15

C	-0.018749	-0.141697	-1.381816
C	-0.021694	-0.231132	0.159003
Br	-1.760265	0.449894	-2.087861
H	1.01235	-0.520881	0.390357
H	0.732223	0.603579	-1.697091
C	0.257059	-1.445738	-1.963888
N	0.473921	-2.531124	-2.360891
N	-0.910818	-1.235044	0.729273
H	-0.703108	-2.145116	0.331221
H	-1.865493	-1.00542	0.472676
C	-0.27223	1.127662	0.789197
H	0.420712	1.857869	0.367833
H	-0.115418	1.04887	1.866922
H	-1.30046	1.455978	0.61379
Cl	2.554506	1.909738	-1.457394
