18

C	-0.343964	0.013958	-1.49727
C	0.0	0.0	0.0
F	-1.749357	0.146641	-1.624545
H	1.096549	0.0	0.0
C	0.29059	1.219342	-2.159574
H	1.37302	1.18622	-2.011255
H	0.063164	1.216488	-3.22842
H	-0.097624	2.143191	-1.728099
C	0.069303	-1.277114	-2.168511
H	-0.134335	-1.22211	-3.241525
H	-0.482414	-2.121061	-1.74985
H	1.139912	-1.434839	-2.010259
C	-0.514651	-1.218364	0.637569
N	-0.96002	-2.18716	1.129295
N	-0.461986	1.162411	0.749334
H	-1.32849	1.502802	0.351445
H	0.242903	1.886325	0.697992
Br	3.497374	0.0	0.0
