18

C	-0.488637	0.025496	-1.456068
C	0.0	0.0	0.0
F	-0.201659	-1.23972	-1.997904
H	1.094781	0.0	0.0
C	-1.989485	0.213081	-1.55895
H	-2.278446	1.179141	-1.140731
H	-2.291866	0.175832	-2.608759
H	-2.508666	-0.586492	-1.023206
C	0.301279	1.050164	-2.239309
H	0.001065	1.02373	-3.290816
H	0.119917	2.04624	-1.832816
H	1.366935	0.825751	-2.152584
C	-0.492637	-1.201649	0.685663
N	-0.952748	-2.104957	1.280202
N	-0.402378	1.236296	0.686123
H	-1.228544	1.083802	1.251164
H	0.355113	1.507996	1.301349
Br	3.524814	0.0	0.0
