18

C	-0.396446	0.007722	-1.475693
C	0.0	0.0	0.0
F	-1.811875	0.071636	-1.542169
H	1.095578	0.0	0.0
C	0.15681	1.239842	-2.155979
H	-0.206342	2.13429	-1.653675
H	-0.156173	1.250147	-3.202756
H	1.246999	1.22273	-2.09693
C	0.044415	-1.268121	-2.160902
H	1.125453	-1.382931	-2.050715
H	-0.208768	-1.222779	-3.22251
H	-0.45329	-2.134146	-1.720576
C	-0.479811	-1.226176	0.662338
N	-0.875981	-2.168812	1.242232
N	-0.459206	1.208928	0.6764
H	0.067334	1.319228	1.535466
H	-1.442458	1.120131	0.907266
Br	3.521499	0.0	0.0
