18

C	-0.412383	-0.033139	-1.491646
C	0.0	0.0	0.0
F	-0.061279	1.229471	-2.003606
H	1.0968	0.0	0.0
C	0.3999	-1.069539	-2.238752
H	0.153179	-2.075817	-1.891443
H	0.187844	-1.004168	-3.309737
H	1.462835	-0.890076	-2.060909
C	-1.906245	-0.180193	-1.71203
H	-2.260298	-1.147993	-1.352427
H	-2.123713	-0.09668	-2.779833
H	-2.459444	0.609905	-1.19693
C	-0.481368	-1.224832	0.648448
N	-0.913554	-2.208269	1.123971
N	-0.432234	1.169673	0.754299
H	-1.366671	1.44876	0.479761
H	0.202962	1.922399	0.520846
Br	3.54428	0.0	0.0
