18

C	-0.456415	-0.003422	-1.468342
C	0.0	0.0	0.0
F	-0.089262	1.263179	-1.97071
H	1.10176	0.0	0.0
C	0.317032	-1.037294	-2.25733
H	0.07011	-0.948425	-3.318772
H	0.064349	-2.04565	-1.920337
H	1.387917	-0.877206	-2.112334
C	-1.959867	-0.105803	-1.62358
H	-2.312379	-1.091933	-1.313949
H	-2.445671	0.651227	-1.006781
H	-2.226681	0.052053	-2.671838
C	-0.470025	-1.223493	0.652555
N	-0.862622	-2.202187	1.169799
N	-0.555249	1.172457	0.69697
H	-0.130961	1.194288	1.619455
H	-0.176249	1.97449	0.202896
Br	3.556569	0.0	0.0
