18

C	-0.431056	0.010728	-1.481079
C	0.0	0.0	0.0
F	0.068416	-1.173423	-2.042155
H	1.096353	0.0	0.0
C	-1.934907	-0.038674	-1.682561
H	-2.343236	-0.9369	-1.214795
H	-2.431256	0.838733	-1.260897
H	-2.15726	-0.071967	-2.751949
C	0.234455	1.161505	-2.209392
H	-0.182219	2.118929	-1.889443
H	0.067982	1.054064	-3.284375
H	1.307671	1.146165	-2.005771
C	-0.498926	-1.220389	0.646802
N	-0.964106	-2.17875	1.140706
N	-0.406667	1.16087	0.784582
H	0.215815	1.932653	0.582129
H	-1.363406	1.431681	0.593946
Br	3.558342	0.0	0.0
