18

C	-0.399349	0.012176	-1.481938
C	0.0	0.0	0.0
F	-1.814795	0.103284	-1.545855
H	1.096472	0.0	0.0
C	0.160389	1.241088	-2.167385
H	-0.240145	2.147701	-1.710647
H	-0.123306	1.236373	-3.222909
H	1.249833	1.245838	-2.076661
C	0.018151	-1.262933	-2.17989
H	-0.47777	-2.124394	-1.729336
H	1.100553	-1.386665	-2.087377
H	-0.254963	-1.215665	-3.237577
C	-0.489503	-1.225719	0.646408
N	-0.90598	-2.203498	1.145903
N	-0.456395	1.149415	0.773604
H	0.204605	1.907324	0.655676
H	-1.370397	1.440995	0.444452
Br	3.503749	0.0	0.0
