17

C	-0.38757	0.012222	-1.486805
C	0.0	0.0	0.0
F	0.01511	-1.205361	-2.033353
H	1.096991	0.0	0.0
C	-1.857319	0.072955	-1.657211
N	-3.023498	0.117919	-1.793104
C	0.31535	1.124314	-2.240754
H	1.387224	1.029207	-2.045776
H	-0.031453	2.100484	-1.895819
H	0.113592	1.025559	-3.309284
C	-0.515046	-1.232101	0.740902
H	-1.608218	-1.270574	0.755691
H	-0.124992	-2.126595	0.255907
H	-0.146472	-1.213798	1.767837
C	-0.477666	1.230746	0.62184
N	-0.894158	2.208917	1.122619
Cl	3.329672	0.0	0.0
