17

C	-0.396935	-0.109979	-1.478393
C	0.0	0.0	0.0
F	-1.76522	-0.41072	-1.579523
H	1.096787	0.0	0.0
C	-0.215083	1.181629	-2.169042
N	-0.090056	2.202614	-2.735452
C	0.395158	-1.189251	-2.191203
H	0.151486	-1.185173	-3.255193
H	0.134813	-2.163817	-1.775841
H	1.462479	-1.009242	-2.042197
C	-0.454142	-1.217178	0.813976
H	-1.537807	-1.342821	0.77841
H	-0.142589	-1.080411	1.85082
H	0.033274	-2.120477	0.444822
C	-0.530012	1.22074	0.599104
N	-0.977185	2.174107	1.120183
Cl	3.304365	0.0	0.0
