17

C	-0.383957	0.027707	-1.488802
C	0.0	0.0	0.0
F	-0.018154	-1.200229	-2.038058
H	1.096964	0.0	0.0
C	-1.849445	0.135422	-1.663505
N	-3.012647	0.220012	-1.805061
C	0.356468	1.118097	-2.236623
H	1.423737	0.984714	-2.041719
H	0.045988	2.103751	-1.884789
H	0.150825	1.034047	-3.305671
C	-0.524402	-1.23373	0.730298
H	-1.617736	-1.271285	0.73044
H	-0.170181	-1.218943	1.762155
H	-0.129156	-2.126898	0.247484
C	-0.472229	1.229463	0.629516
N	-0.887339	2.204494	1.137478
Cl	3.326629	0.0	0.0
