17

C	-0.38681	0.008415	-1.486523
C	0.0	0.0	0.0
F	0.044683	-1.195342	-2.036778
H	1.096993	0.0	0.0
C	-1.856274	0.032214	-1.656803
N	-3.022591	0.047335	-1.791524
C	0.285873	1.13956	-2.236673
H	-0.085728	2.104574	-1.889167
H	1.358796	1.071444	-2.041419
H	0.087087	1.038286	-3.30573
C	-0.51166	-1.234165	0.740852
H	-0.121219	-2.127	0.252371
H	-1.604862	-1.274223	0.757597
H	-0.140383	-1.217601	1.766851
C	-0.482017	1.229406	0.621575
N	-0.899692	2.208013	1.120747
Cl	3.328334	0.0	0.0
