17

C	-0.399897	-0.100181	-1.477622
C	0.0	0.0	0.0
F	-1.770223	-0.393675	-1.577805
H	1.096755	0.0	0.0
C	-0.212278	1.192342	-2.164897
N	-0.099082	2.197016	-2.762203
C	0.384595	-1.181099	-2.199145
H	0.122985	-2.155596	-1.786367
H	1.453957	-1.005357	-2.056331
H	0.134644	-1.172656	-3.261689
C	-0.452866	-1.22014	0.810478
H	-0.132988	-1.089959	1.845288
H	-1.536745	-1.342307	0.782329
H	0.029126	-2.122408	0.433225
C	-0.528958	1.218219	0.605345
N	-0.983996	2.168404	1.125502
Cl	3.304352	0.0	0.0
