14
Coordinates from ORCA-job run
  C   0.56974214696653     -0.14106146083401     -0.21883324815797
  C   -0.92804519202141     -0.49950350713805     -0.00650383148702
  F   1.21312200056666     -1.39587846072110     -0.17455446505714
  H   -1.16892585251362     -1.22613021467016     -0.78858934451497
  N   1.00854653546387      0.74759942578691      0.77845242303524
  H   0.81571002519580      0.41802079925569      1.71552212974537
  H   1.99615050035107      0.94469567574059      0.67751272099175
  N   0.75792484972227      0.37739775409266     -1.53404904513566
  H   1.02708487919439      1.34919469214155     -1.53046652876683
  H   1.38959992065504     -0.19796802822348     -2.07073186064996
  C   -1.77107982664774      0.68196795337218     -0.19236768649945
  N   -2.47028944329784      1.61214955450041     -0.34484441375540
  C   -1.15283485843169     -1.10470160095630      1.30809776447697
  N   -1.28770568520332     -1.56378258234691      2.38035538577508
