14
Coordinates from ORCA-job run
  C   0.53333660039557     -0.10737620908390      0.12025287796290
  C   -0.99403506924999      0.05554975035596     -0.08369370833621
  F   0.73058652474908     -1.07691548435898      1.06894316094179
  H   -1.15315166933395      0.83120268161802     -0.84471115256789
  N   1.04380787923942      1.11198409204691      0.69055805343720
  H   1.95840639570991      0.94110233774068      1.09219270087915
  H   1.12292119288271      1.83868509707824     -0.00990064622084
  N   1.09657918821932     -0.62755546761829     -1.09832539516685
  H   1.17578383533434      0.09533980572444     -1.80275180389652
  H   2.01751201937315     -1.00689664758771     -0.91103923681479
  C   -1.64323256404388      0.48828584868436      1.15706109539286
  N   -2.19596120933326      0.82867295041989      2.13429461553747
  C   -1.59130390691513     -1.19272347761431     -0.56670329048228
  N   -2.10124921702730     -2.17835527740530     -0.94717727066600
