14
Coordinates from ORCA-job run
  C   0.55888942901242     -0.22543335548426     -0.18833104737819
  C   -0.96663434609729     -0.45270037193310     -0.01627201722650
  F   1.11840305108079     -1.50411766387018     -0.06857683955132
  H   -1.23202307714450     -1.22991046417466     -0.73923358109037
  N   1.03414346981247      0.67376643561819      0.79088202507431
  H   0.85742838936575      0.34913872699749      1.73431454571160
  H   2.02416179478976      0.84642906692434      0.66982518195425
  N   0.81362922230211      0.19320863344204     -1.53408195740121
  H   0.84288956317139      1.20226537053742     -1.59464446745146
  H   1.68265343158104     -0.20799750565894     -1.86032087445543
  C   -1.69295932605165      0.77475332816312     -0.34384453388873
  N   -2.26121058135456      1.76209273765398     -0.62483814031961
  C   -1.28627437708744     -0.91053590375506      1.33818770263620
  N   -1.49209664338028     -1.27195903446039      2.43593400338647
