14
Coordinates from ORCA-job run
  C   0.54488866064592     -0.08563829738466      0.07739365493542
  C   -0.99862069048393      0.03200336273722      0.00966438551808
  F   0.85736939470726     -0.93648579911339      1.10572869578163
  H   -1.25008283238570      0.71839682821676     -0.80993530831639
  N   1.07804297401694      1.19842183507130      0.45333462563630
  H   1.09840061325897      1.83137268560849     -0.33642377229972
  H   2.02059060651877      1.08307304228777      0.80695984432059
  N   0.99962472514770     -0.73349960736006     -1.12453775310407
  H   0.97107535027037     -0.10173364442799     -1.91521700377242
  H   1.95135352630608     -1.05712471921749     -0.99610500500374
  C   -1.53271373037855      0.58886624570883      1.25569983572304
  N   -1.99364067116312      1.02522194394753      2.24231092741740
  C   -1.61127381902577     -1.26884660386459     -0.27474254413532
  N   -2.13501410743495     -2.29502727220971     -0.49613058270080
