14
Coordinates from ORCA-job run
  C   0.59869514509126     -0.05591089022414      0.17247604497870
  C   -0.92058343732956     -0.16953223935775      0.48851463590515
  F   1.17269088674857     -1.08243026590278      0.94835499650994
  H   -0.99944943125520     -0.08682562738988      1.57716141859542
  N   1.09869038560822      1.18288491200199      0.66775788157481
  H   1.79108349899760      1.04835226407671      1.38862194113416
  H   1.41697964526222      1.79317025653518     -0.06862922896423
  N   0.82460005482844     -0.20890095440942     -1.20829058764974
  H   0.39986797378025     -1.04814817025860     -1.58288471476045
  H   1.81546243598602     -0.20521457197615     -1.41489616593631
  C   -1.46689110643586     -1.45889863033270      0.05993580237965
  N   -1.85936471992600     -2.50208723721615     -0.30925577055712
  C   -1.64369475230127      0.94625323180131     -0.12164064540716
  N   -2.22708657905471      1.84728792265238     -0.59622560780282
