14
Coordinates from ORCA-job run
  C   0.58537513269609     -0.16320656630127     -0.14504503628611
  C   -0.92711202446657     -0.50781346731211     -0.02683282242624
  F   1.22255539690079     -1.39120784921790      0.11374952429106
  H   -1.09506959876955     -1.33142810471266     -0.72777247087483
  N   0.93112575503619      0.84755083111912      0.77177150105221
  H   1.92533907093108      1.03400373767353      0.73962462807742
  H   0.65580935112963      0.62593514101507      1.72054118921267
  N   0.88772577919269      0.19790095876035     -1.48950592310745
  H   1.54898706897194     -0.43805526413547     -1.90846133676627
  H   1.16703908083241      1.16238184105770     -1.57911167838225
  C   -1.73817107850442      0.63751333780522     -0.44048753666638
  N   -2.39271414357294      1.54716061609028     -0.78898864923024
  C   -1.27379182585226     -0.94418474169280      1.32781501825822
  N   -1.49609796452509     -1.27655047014906      2.43170359284818
