12

C	-0.248091	0.000552	-1.492066
C	0.0	0.0	0.0
Br	-2.194448	-0.12604	-1.994187
H	1.095149	0.0	0.0
H	-0.350433	-0.939873	0.432788
C	0.246332	1.226726	-2.119566
N	0.62032	2.211588	-2.640155
C	0.39351	-1.162203	-2.108006
N	0.884975	-2.09332	-2.629445
C	-0.587822	1.137008	0.664649
N	-1.047297	2.06269	1.226582
F	2.465545	0.0	0.0
