12

C	-0.349115	0.003321	-1.492634
C	0.0	0.0	0.0
Br	0.422772	-1.617262	-2.303919
H	1.09308	0.0	0.0
H	-0.374885	-0.923586	0.448597
C	-1.787581	-0.040543	-1.767055
N	-2.949814	-0.083036	-1.942812
C	0.235088	1.163653	-2.16979
N	0.663181	2.09172	-2.749761
C	-0.568792	1.158228	0.656308
N	-1.016448	2.102143	1.197296
F	2.493592	0.0	0.0
