15

C	0.0	0.0	0.0
C	-0.56255	-0.270483	-1.388799
Br	1.945235	0.0	0.0
H	-1.661315	-0.206163	-1.278974
H	-0.22929	0.494169	-2.090601
N	-0.367936	1.438834	0.379903
O	-0.470475	1.687999	1.573106
O	-0.466656	2.24989	-0.533437
C	-0.510631	-0.960388	1.04376
H	-0.110728	-0.708285	2.023568
H	-1.603221	-0.888451	1.0489
H	-0.203502	-1.972483	0.77468
C	-0.180158	-1.589578	-1.873926
N	0.127688	-2.646403	-2.282548
Cl	-3.67765	0.0	0.0
