15

C	0.0	0.0	0.0
C	-0.557541	-0.313296	-1.383995
Br	1.945273	0.0	0.0
H	-0.218128	0.428163	-2.107041
H	-1.655148	-0.245015	-1.286955
N	-0.384604	1.44362	0.33932
O	-0.507077	1.72221	1.525289
O	-0.476403	2.231263	-0.596029
C	-0.511467	-0.939375	1.064008
H	-0.166494	-1.950338	0.842194
H	-0.152577	-0.632792	2.0428
H	-1.605469	-0.900023	1.038053
C	-0.175156	-1.648662	-1.818867
N	0.142527	-2.723719	-2.165084
Cl	-3.67797	0.0	0.0
