15

C	0.0	0.0	0.0
C	-0.450189	-0.305205	-1.466532
Br	1.947076	0.0	0.0
H	0.428757	-0.267759	-2.130915
H	-0.82975	-1.326774	-1.478654
N	-0.342188	1.438933	0.375999
O	-0.229571	2.281914	-0.506881
O	-0.607124	1.650783	1.556369
C	-0.516009	-0.975627	1.024979
H	-1.609328	-0.921169	1.003484
H	-0.149275	-0.719291	2.017844
H	-0.1824	-1.980383	0.759659
C	-1.43719	0.558264	-2.126654
N	-2.050881	1.150766	-2.935344
Cl	-3.571907	0.0	0.0
