15

C	0.0	0.0	0.0
C	-0.563323	-0.223145	-1.396848
Br	1.945274	0.0	0.0
H	-1.661824	-0.161101	-1.284333
H	-0.228695	0.563035	-2.073694
N	-0.369581	1.424258	0.431041
O	-0.471552	1.630144	1.632716
O	-0.470401	2.266984	-0.453102
C	-0.510027	-0.9974	1.009463
H	-0.205	-1.999391	0.701786
H	-1.602355	-0.925434	1.018038
H	-0.10901	-0.783122	1.997849
C	-0.181967	-1.526765	-1.922688
N	0.130033	-2.572634	-2.355471
Cl	-3.673825	0.0	0.0
