15

C	0.0	0.0	0.0
C	-0.551008	-0.258817	-1.396048
Br	1.945222	0.0	0.0
H	-1.64987	-0.189823	-1.298068
H	-0.202588	0.50511	-2.091336
N	-0.379348	1.42821	0.39968
O	-0.482126	2.250908	-0.503006
O	-0.48713	1.658928	1.596324
C	-0.501039	-0.984539	1.027654
H	-1.594201	-0.932018	1.027541
H	-0.11084	-0.7403	2.013466
H	-0.173039	-1.986584	0.744858
C	-0.168584	-1.579652	-1.87708
N	0.141164	-2.640416	-2.274245
Cl	-3.652678	0.0	0.0
