15

C	0.0	0.0	0.0
C	-0.549175	-0.257999	-1.396922
Br	1.945105	0.0	0.0
H	-1.64807	-0.187198	-1.301252
H	-0.198654	0.505271	-2.091751
N	-0.381164	1.42719	0.400434
O	-0.49109	1.657235	1.596845
O	-0.484093	2.250141	-0.502039
C	-0.501238	-0.985789	1.026136
H	-1.594356	-0.93468	1.024616
H	-0.171317	-1.987187	0.7434
H	-0.112276	-0.74204	2.012596
C	-0.167581	-1.579331	-1.877265
N	0.141386	-2.640505	-2.273944
Cl	-3.647863	0.0	0.0
