14
Coordinates from ORCA-job run
  C   -0.48183865922754      0.36334598643207      0.23626184729152
  C   1.02545766420255      0.25555386865491      0.01738396247453
  F   -0.71033283689071      0.13732821799027      1.59869454194810
  H   1.23274936476856      0.44948812852915     -1.03860044428637
  H   1.50120736853445      1.05364787963103      0.60461996472534
  C   -0.91760174917590      1.74072236082257     -0.05986270059901
  N   -1.24367878274495      2.83526839439702     -0.33079065143701
  C   -1.29153767578397     -0.64398157021216     -0.55215292477059
  H   -0.91757272960186     -1.64114064955870     -0.32666432158722
  H   -2.34397964088280     -0.56583725455381     -0.27610677024947
  H   -1.19024327276747     -0.45592865576090     -1.62293091068210
  N   1.46511083155679     -1.08961354422769      0.35670503830983
  H   2.41138786864509     -1.23691351256093      0.03182107184014
  H   1.46187224936776     -1.19993964958283      1.36262229702232
