14
Coordinates from ORCA-job run
  C   -0.51364750751338      0.14458411487455      0.26067813013687
  C   0.88057611105460     -0.44827905259612      0.07033078396740
  F   -0.77744122296537      0.21697134056642      1.62178416136262
  H   0.88659336967394     -1.38355713425565      0.63719851743071
  H   1.00142161692186     -0.70104005133581     -0.99337910517840
  C   -0.53441611040850      1.51832734107726     -0.27774262770535
  N   -0.52882164051194      2.58729468675012     -0.76259784815666
  C   -1.59916429616137     -0.69792078644518     -0.38324070844865
  H   -1.54307903499168     -1.71490079687301      0.01021749535666
  H   -2.57795926071521     -0.28259688907395     -0.14154006118267
  H   -1.48389424812926     -0.72461035893428     -1.46775748486679
  N   1.89374576258528      0.44349602722345      0.60586028143607
  H   2.70586899259922     -0.07364029536393      0.91073629133762
  H   2.18921746856181      1.11587185438612     -0.08954782548943
