14
Coordinates from ORCA-job run
  C   -0.56439382718146      0.19532368499642      0.45905036712255
  C   0.88072952385081     -0.28147517185630      0.59965598455523
  F   -1.14250699019041      0.13311737983824      1.72627093768771
  H   0.83954687909694     -1.33783874140612      0.87869899412776
  H   1.32915770408151      0.26894483169145      1.43781998449459
  C   -0.56016803671848      1.61019436846487      0.03886371686557
  N   -0.50937046964845      2.72861956166332     -0.31456183610139
  C   -1.38260548996138     -0.64858878117244     -0.49347273395660
  H   -0.92125192279472     -0.64108912921714     -1.47995369517475
  H   -2.40246246063687     -0.26664287771191     -0.55582253666787
  H   -1.41038670462502     -1.67287467036201     -0.11531464539301
  N   1.56916503055837     -0.14134931376294     -0.67522574193026
  H   1.90151781874142      0.80789755189091     -0.79314016099860
  H   2.37202894542773     -0.75423869305635     -0.71286863463094
