14
Coordinates from ORCA-job run
  C   -0.45892649297103      0.33399415123757      0.31275021405432
  C   1.01779963084659      0.27575255400589     -0.07145450647184
  F   -0.53709498583236      0.00097556342313      1.67031311528980
  H   1.54237691500377      1.03778830256613      0.52193871372464
  H   1.10863148424538      0.55283295715521     -1.12529946781960
  C   -0.94336287897501      1.71956283205021      0.17210500768676
  N   -1.31249388431742      2.82411787656337      0.02500838899506
  C   -1.33445789579519     -0.62880222440437     -0.46081579238778
  H   -0.92310735296113     -1.63108114582080     -0.35559270713536
  H   -1.35366019975847     -0.35718683405883     -1.51816289610783
  H   -2.35144425655607     -0.59650089955873     -0.06775291716510
  N   1.50963857332561     -1.08092012646972      0.11566839534966
  H   2.41422608419424     -1.18532735664978     -0.32413796103059
  H   1.62187525955112     -1.26420565003927      1.10443241301786
