14
Coordinates from ORCA-job run
  C   -0.57282344680467      0.21152587560205      0.45869632997589
  C   0.87891631960806     -0.24494017338792      0.61002270559398
  F   -1.16541267962734      0.11442561752319      1.71839293363962
  H   0.84990986479058     -1.28350135971302      0.95185783346632
  H   1.32928761673468      0.35202266762833      1.41152162319914
  C   -0.58887691591256      1.63319725769016      0.06566768550726
  N   -0.56325866710785      2.76371775293983     -0.24945907767942
  C   -1.36488229528933     -0.63003000806411     -0.51716050007592
  H   -0.92284483868472     -0.55862372472620     -1.50976783565202
  H   -1.34405641655447     -1.67027913798339     -0.18382834373002
  H   -2.40125144049551     -0.29082208751266     -0.54709379203720
  N   1.56587216885861     -0.13165446415278     -0.66935421292775
  H   2.13632059975529     -0.94446046190800     -0.85072487933046
  H   2.16510013072920      0.68142224606451     -0.68977046994943
