14
Coordinates from ORCA-job run
  C   -0.44390303485316      0.12324876275151      0.17199489368740
  C   0.93919588413858     -0.51403701411765     -0.00126964426738
  F   -0.66563820172945      0.25246682991853      1.54699257406024
  H   0.88346446933445     -1.50474955626704      0.46138921109226
  H   1.12762449735014     -0.65773520675819     -1.06914155690886
  C   -0.43122551168112      1.48248119463394     -0.39841882723947
  N   -0.38527984302422      2.54118140183283     -0.90381516000816
  C   -1.56845840650274     -0.70611002968466     -0.41220750457404
  H   -1.54425481678532     -1.70270913357109      0.03294333745171
  H   -1.46036855187098     -0.79351236327096     -1.49484259754472
  H   -2.53050728588437     -0.24352446739879     -0.18823677531281
  N   2.04278574945913      0.21508544544475      0.58537616601381
  H   2.19021460312926      1.09588692418723      0.10844608872645
  H   1.84835044891982      0.41102721229958      1.55878979482356
