14
Coordinates from ORCA-job run
  C   -0.43392488637274      0.35382695342978      0.28921782585430
  C   1.09499726776612      0.32438750308834      0.12993620333946
  F   -0.71577615967614     -0.04630277618800      1.59975609768047
  H   1.35099214344012      0.69551609428947     -0.86658016477133
  H   1.50640228637142      1.03143770601671      0.85579717572651
  C   -0.91041328798262      1.73808569661210      0.12971379920969
  N   -1.25996843641203      2.84475265049771     -0.04849840195765
  C   -1.17753241267915     -0.57636912431463     -0.64737650226310
  H   -2.24863662205937     -0.52636126585610     -0.44881930260029
  H   -0.84280760055602     -1.60061018527554     -0.48022948909030
  H   -0.99637214389788     -0.29945288762815     -1.68792516546404
  N   1.71756360295061     -0.96501406074771      0.33906713518254
  H   1.43264323890243     -1.35286461277384      1.22884550499396
  H   1.48283301020526     -1.62103169115015     -0.39290471584022
