16

C	0.0	0.0	0.0
C	-0.68846	-0.108549	-1.327608
Cl	1.746721	0.0	0.0
H	-1.760322	0.0374	-1.109346
H	-0.346589	0.737389	-1.928102
N	-0.36981	1.318466	0.712461
O	-0.035117	1.410308	1.884867
O	-0.889384	2.18589	0.02633
N	-0.454122	-1.141298	0.927828
O	0.108273	-2.215623	0.742291
O	-1.358932	-0.903201	1.709806
C	-0.462338	-1.430839	-2.04956
H	-0.872955	-1.34808	-3.058089
H	-0.983386	-2.244983	-1.547445
H	0.596084	-1.688993	-2.12543
Cl	-3.921891	0.0	0.0
