16

C	0.0	0.0	0.0
C	-0.707384	-0.377177	-1.265826
Cl	1.743682	0.0	0.0
H	-0.374767	-1.383032	-1.530434
H	-1.77568	-0.428702	-0.991439
N	-0.454559	1.403853	0.443884
O	0.161599	2.34144	-0.052564
O	-1.422407	1.459808	1.183583
N	-0.372534	-0.961587	1.148279
O	-0.09353	-0.589273	2.27897
O	-0.834653	-2.045699	0.823509
C	-0.494712	0.603918	-2.411365
H	0.563406	0.804138	-2.597481
H	-0.93389	0.179208	-3.316489
H	-0.998631	1.549423	-2.214031
Cl	-3.996029	0.0	0.0
