16

C	0.0	0.0	0.0
C	-0.675387	0.273469	-1.308467
Cl	1.780282	0.0	0.0
H	-0.32947	1.25429	-1.641673
H	-1.748864	0.354122	-1.062772
N	-0.358162	1.064594	1.05399
O	-0.885152	2.08774	0.642707
O	-0.014438	0.824303	2.202388
N	-0.444082	-1.356445	0.567478
O	-1.337732	-1.350987	1.397158
O	0.111059	-2.333183	0.075084
C	-0.447527	-0.791225	-2.373767
H	0.611468	-1.019697	-2.514766
H	-0.854436	-0.425751	-3.319049
H	-0.97136	-1.713064	-2.123357
Cl	-3.900297	0.0	0.0
