16

C	0.0	0.0	0.0
C	-0.58608	0.274699	-1.364119
Cl	1.748683	0.0	0.0
H	-0.400847	1.328878	-1.58165
H	0.006182	-0.318595	-2.065811
N	-0.441757	0.996422	1.073255
O	-0.006265	0.795148	2.197989
O	-1.165441	1.914449	0.714084
N	-0.488265	-1.378842	0.461216
O	-1.387884	-1.402582	1.28589
O	0.012791	-2.326991	-0.129277
C	-2.067791	-0.07136	-1.48263
H	-2.230792	-1.150587	-1.45008
H	-2.443917	0.285254	-2.442798
H	-2.709023	0.364185	-0.715663
Cl	-5.218205	0.0	0.0
