16

C	0.0	0.0	0.0
C	-0.513328	-0.01704	-1.42215
Cl	1.747499	0.0	0.0
H	-0.043394	-0.881275	-1.895793
H	-0.097205	0.874951	-1.894462
N	-0.443163	1.281674	0.741027
O	-0.697823	2.226791	0.005582
O	-0.425065	1.296051	1.960671
N	-0.414996	-1.282789	0.760161
O	-0.367021	-1.289678	1.979228
O	-0.667203	-2.237674	0.036378
C	-2.026917	-0.063605	-1.585525
H	-2.473067	-0.967522	-1.179964
H	-2.545628	0.766862	-1.113468
H	-2.252027	-0.030777	-2.654867
Cl	-5.016192	0.0	0.0
