16

C	0.0	0.0	0.0
C	-0.585247	-0.348209	-1.347781
Cl	1.741167	0.0	0.0
H	0.003508	0.219019	-2.07426
H	-0.385656	-1.408887	-1.517907
N	-0.48452	1.399295	0.403942
O	-0.035897	2.307802	-0.282766
O	-1.307239	1.475841	1.301973
N	-0.446037	-0.944011	1.12386
O	-1.293574	-1.779313	0.842812
O	0.09359	-0.779896	2.209196
C	-2.063311	-0.006662	-1.495322
H	-2.413873	-0.329025	-2.477497
H	-2.722731	-0.452279	-0.754441
H	-2.214839	1.071937	-1.442965
Cl	-5.186259	0.0	0.0
