14

C	-0.455606	0.127341	-1.447187
C	0.0	0.0	0.0
Br	-2.296219	-0.421831	-1.844214
H	1.109315	0.0	0.0
H	0.178679	-0.533344	-2.041131
C	-0.308618	1.511558	-1.879585
N	-0.248053	2.643338	-2.191917
N	-0.373075	-1.306947	0.610431
O	-0.565015	-1.322925	1.821957
O	-0.351152	-2.275955	-0.140276
N	-0.552072	1.088324	0.859018
O	0.246753	1.771822	1.488862
O	-1.776589	1.216601	0.854329
Cl	3.140267	0.0	0.0
