14

C	-0.60513	0.035553	-1.394833
C	0.0	0.0	0.0
Br	-0.267072	1.784969	-2.196128
H	1.101148	0.0	0.0
H	-1.689127	-0.064154	-1.328218
C	-0.066872	-0.990484	-2.275896
N	0.302908	-1.797196	-3.045365
N	-0.458046	-1.227685	0.729115
O	-1.001527	-2.117469	0.075997
O	-0.228678	-1.249284	1.932513
N	-0.562952	1.136022	0.798088
O	0.211941	1.932175	1.307169
O	-1.793836	1.164688	0.869237
Cl	3.147086	0.0	0.0
