17

C	-0.194808	-0.197573	-1.504798
C	0.0	0.0	0.0
Cl	-1.943033	-0.476695	-1.96928
H	1.10805	0.0	0.0
C	0.206652	1.025926	-2.206156
N	0.515668	1.994363	-2.795502
C	0.66507	-1.362659	-1.97809
H	1.667382	-1.151529	-1.583345
H	0.659312	-1.444273	-3.066579
H	0.285843	-2.2891	-1.542058
C	-0.486045	-1.160798	0.720239
N	-0.881418	-2.082723	1.33545
C	-0.559785	1.297488	0.563419
H	-1.637198	1.39573	0.394767
H	-0.044249	2.143184	0.104084
H	-0.369121	1.337705	1.638019
F	2.576476	0.0	0.0
