17

C	-0.261068	0.067626	-1.520156
C	0.0	0.0	0.0
Cl	0.078663	-1.5501	-2.243953
H	1.0962	0.0	0.0
C	-1.654737	0.387022	-1.841472
N	-2.768307	0.698291	-2.054485
C	0.720371	1.065592	-2.136681
H	1.695569	0.833377	-1.686269
H	0.425311	2.085199	-1.8765
H	0.732652	0.970792	-3.223255
C	-0.609314	-1.157669	0.622982
N	-1.123863	-2.054293	1.184605
C	-0.428553	1.283896	0.716354
H	0.197762	2.110991	0.379424
H	-1.484694	1.532088	0.566917
H	-0.248566	1.162041	1.786481
F	2.59858	0.0	0.0
