17

C	-0.278373	-0.088737	-1.500563
C	0.0	0.0	0.0
Cl	-2.036242	-0.442785	-1.869887
H	1.104058	0.0	0.0
C	-0.012669	1.207667	-2.129835
N	0.167418	2.2425	-2.657361
C	0.608653	-1.163219	-2.114822
H	0.539346	-1.162376	-3.204482
H	1.621725	-0.940298	-1.757174
H	0.299974	-2.138662	-1.732936
C	-0.440796	-1.220207	0.652851
N	-0.786266	-2.196045	1.211615
C	-0.545513	1.238338	0.697272
H	-0.270119	1.202522	1.753661
H	-0.08489	2.129523	0.266694
H	-1.634784	1.32035	0.619902
F	2.576376	0.0	0.0
