15
Coordinates from ORCA-job run
  C   0.73442546857246     -0.40348957081228     -0.16421957075958
  C   -0.63988408368349     -0.18196524506520      0.46928717994437
  F   1.35363703352324     -1.36324539933024      0.64016163486913
  H   -0.51680135104953      0.23443890263233      1.46987374975871
  H   0.59880418721783     -0.85292300952327     -1.15343346120090
  C   1.60253534963495      0.82891504423989     -0.22598297270761
  H   2.60297634418857      0.55232828620027     -0.56189523823978
  H   1.67995587588605      1.29478571791552      0.75835045200430
  H   1.19475363781079      1.55925396625130     -0.92691838237098
  N   -1.50569488066844     -1.32440787064864      0.52222806752153
  H   -1.52746562168942     -1.79197938062102     -0.37587216816703
  H   -1.16188938199378     -1.97116825797521      1.21954579300746
  N   -1.31760002626599      0.87915873385513     -0.34235367089817
  O   -1.39309429872569      2.01049036992316      0.12846441505672
  O   -1.70465825275757      0.52980771295825     -1.45623582781817
