15
Coordinates from ORCA-job run
  C   0.60275675451531      0.57813754839922      0.13479462045043
  C   -0.66162417221107     -0.26418757148583      0.30562551347157
  F   0.37420038450750      1.43552513839525     -0.94373523270060
  H   -0.52941938445326     -0.95121134954703      1.14331528632119
  H   0.74748264481769      1.20448576226472      1.01882402628943
  C   1.82529809766248     -0.25601395497557     -0.15840684297290
  H   2.04784790559636     -0.92269125887527      0.67811506995030
  H   2.68511815415511      0.39559871371012     -0.31917020614826
  H   1.67471610634604     -0.85115570373392     -1.06035689781538
  N   -1.12680377662171     -0.96290270631872     -0.84362153163015
  H   -0.67513667132447     -1.85857710742769     -0.94859870752521
  H   -1.02739266353094     -0.40775241563642     -1.68201543359157
  N   -1.73528364874812      0.70405983915848      0.77334532069096
  O   -1.63263732380391      1.07753955518570      1.94035939810168
  O   -2.56912240690700      1.07914551088696     -0.03847438289149
