15
Coordinates from ORCA-job run
  C   0.63757783776195      0.57004865743930      0.04063977007169
  C   -0.65800862674533     -0.21857427108242      0.25975922524037
  F   0.50711070118837      1.31637922811768     -1.12798937879496
  H   -0.48744829138846     -1.00194504774663      0.99864623371756
  H   0.78778554058917      1.28390453741366      0.85635689877382
  C   1.82732203691394     -0.34866510875032     -0.11163370410935
  H   2.70961450329275      0.23303008936475     -0.38126143201639
  H   1.64249256335531     -1.07864546364026     -0.90210810327839
  H   2.03042341764017     -0.87738379092505      0.82222424802468
  N   -1.25000863522098     -0.74883415653646     -0.92282135424902
  H   -1.05382798579850     -1.72761220020844     -1.05477916306150
  H   -1.01097335746081     -0.20660486170674     -1.73979197709498
  N   -1.65591400433183      0.70505001302613      0.92432049958666
  O   -2.05987501943606      1.64671766482052      0.25195030531688
  O   -1.96727068035969      0.45413471041428      2.08748793187294
