15
Coordinates from ORCA-job run
  C   0.64135330142231      0.52294809974687      0.17900390788325
  C   -0.68969319903917     -0.22300083228085      0.27450995932175
  F   0.51667076976021      1.44062516640089     -0.86615960420525
  H   -0.63980016341122     -0.95064475979121      1.08650127236458
  H   0.80509107380273      1.09762350540546      1.09432409346510
  C   1.80385582292104     -0.39284970736525     -0.11508269553056
  H   2.71832618447777      0.19330327765463     -0.21458492430225
  H   1.94175195668751     -1.11481222040232      0.69333061951046
  H   1.63918344734843     -0.92993130666883     -1.05040085767659
  N   -1.16820867195052     -0.83687455449180     -0.91680468616283
  H   -0.78347568056925     -1.76010879543161     -1.04643076265881
  H   -0.99990496982552     -0.25774035169063     -1.72749219572051
  N   -1.70034389983031      0.80760719987719      0.74888768799184
  O   -1.61081584841104      1.12515188488881      1.93336406228030
  O   -2.47299012338297      1.27970339414868     -0.07296587656048
