15
Coordinates from ORCA-job run
  C   0.61422073744514      0.63445942940613     -0.07613588577946
  C   -0.52458927725486     -0.25810834805663      0.39273421913081
  F   0.24354987802152      1.12118542870273     -1.33495740411528
  H   -0.30678406225132     -0.64421224072027      1.39145912292515
  H   0.69003771946241      1.49740999604990      0.58776630843164
  C   1.92505091056983     -0.10071652540429     -0.19721706277803
  H   1.81805776004100     -0.95362917150955     -0.86588199611830
  H   2.25041408265331     -0.45971613457931      0.78201151242598
  H   2.68719883293431      0.57472497201327     -0.58883384630072
  N   -0.78173845733232     -1.30198439560607     -0.52292414193489
  H   -1.00738757559225     -0.91976268901011     -1.43193877990656
  H   -1.54572068352421     -1.88898747462248     -0.21870894754681
  N   -1.73407698930498      0.67389157948323      0.63190749402182
  O   -1.59461408229320      1.51963514645899      1.50999417815940
  O   -2.73361879357439      0.50381042739445     -0.05727477061475
