15
Coordinates from ORCA-job run
  C   0.82720715930369     -0.47148331155523     -0.04561754678851
  C   -0.52709024953845     -0.16393556636684      0.59076411799972
  F   1.58697244275472     -1.09282760677919      0.93570168617995
  H   -0.38080908965971      0.43623663244311      1.48972489078655
  H   0.67983364017816     -1.19820134341501     -0.85217853591495
  C   1.57252708320371      0.74658624951629     -0.54026166143167
  H   1.64504245767104      1.50088852916860      0.24530224752109
  H   1.08332496360514      1.18883196388755     -1.40901685410365
  H   2.58025477960467      0.44645680014013     -0.83034900533473
  N   -1.25103279498646     -1.34664839932871      0.87847531524192
  H   -1.48495447064675     -1.84567189236486      0.03006630015368
  H   -2.09286533408550     -1.15933702146762      1.40594933854017
  N   -1.24645786442301      0.76393680103176     -0.38488244897556
  O   -1.71012687557875      0.23003501360321     -1.39239875869425
  O   -1.28182584740247      1.96313315148680     -0.12227908517977
