15
Coordinates from ORCA-job run
  C   0.61477346069672      0.57582127007593      0.07811445944919
  C   -0.66360840314070     -0.22200641600199      0.33575270293797
  F   0.39211764749373      1.33642287294503     -1.07157276972425
  H   -0.53754404094910     -0.82873325819953      1.23429543552990
  H   0.78048493659820      1.27606938249804      0.90096576364066
  C   1.81823280099638     -0.30569975329187     -0.14821353668663
  H   2.69023004778255      0.31187661489707     -0.36726148329182
  H   1.65046940225709     -0.97184691297935     -0.99582067581835
  H   2.03241350061296     -0.90347963121550      0.74093061204904
  N   -1.15218077730278     -1.01934124327863     -0.73775722461164
  H   -0.70234064469610     -1.92168918808032     -0.77005139906048
  H   -1.06365652665683     -0.54176504225085     -1.62396689224209
  N   -1.71572035237310      0.80678890475383      0.71376602252126
  O   -2.54813578200007      1.11592965829231     -0.12696932456839
  O   -1.59753526931898      1.29065274183580      1.83778830987563
