15
Coordinates from ORCA-job run
  C   0.86590994326296      0.18535660815472      0.58377966629003
  C   -0.57664884637306     -0.31085060444165      0.64533367836843
  F   0.92463163896145      1.40157163103402      1.25500699657642
  H   -0.89057581172234     -0.35444785590374      1.68879851134531
  H   1.45633831874342     -0.53638291700040      1.15531787542875
  C   1.43798116670479      0.36481058257768     -0.80247764374353
  H   2.46184269832963      0.73053576781286     -0.71256962975328
  H   1.46510777927642     -0.58459970697898     -1.33990206877156
  H   0.85901373887019      1.08718125646930     -1.37753217141837
  N   -0.70376200396794     -1.57864460134666      0.01388050168678
  H   -1.59190847338512     -2.00801802727774      0.23697721378555
  H   -0.64213838470618     -1.47753803163556     -0.99150501332322
  N   -1.47604910443679      0.76319613191762      0.03487107507088
  O   -1.95801610901498      1.59588285421272      0.79497870981330
  O   -1.63172655054244      0.72094691240581     -1.18595770135549
