15
Coordinates from ORCA-job run
  C   0.81894912752083      0.18059098298140      0.64910514286085
  C   -0.63814068931085     -0.27386231977687      0.60329225826726
  F   0.85727037917631      1.41609357400670      1.28557996456248
  H   -1.03898160169715     -0.27467783459027      1.61747656122252
  H   1.33757470316447     -0.53793716534487      1.29013756145693
  C   1.51060188434283      0.29887268805987     -0.68834403934944
  H   1.00432153361201      1.01789059663248     -1.33205752229847
  H   2.53408719419205      0.63835187555078     -0.52289703730334
  H   1.55378057344007     -0.66799631512089     -1.19265947403946
  N   -0.75002173347206     -1.55742419655073      0.00217412811148
  H   -0.59938572506100     -1.49173297594739     -0.99671020621223
  H   -1.66631006863512     -1.95496137949328      0.16108489879931
  N   -1.45015036110911      0.80442137849070     -0.11288656542043
  O   -1.97040720201379      1.67310227605839      0.57854403970511
  O   -1.50218801414948      0.72826881504397     -1.34083971036257
