18

C	0.0	0.0	0.0
C	-0.571438	0.071334	-1.412533
F	1.359015	0.0	0.0
H	-1.661733	0.081111	-1.281018
N	-0.336625	1.273373	0.798662
O	-1.055551	2.135497	0.300048
O	0.165145	1.337702	1.917941
C	-0.537613	-1.163111	0.78681
H	-0.267729	-2.077773	0.262403
H	-0.100524	-1.148425	1.785498
H	-1.626902	-1.079602	0.842284
N	-0.190651	-1.161533	-2.083667
H	0.703122	-1.006271	-2.536143
H	-0.882892	-1.392052	-2.783658
N	-0.049613	1.227664	-2.152555
H	-0.449929	1.170447	-3.083149
H	-0.432521	2.065554	-1.730231
Br	-4.07751	0.0	0.0
