18

C	-0.298697	-0.10251	-1.500824
C	0.0	0.0	0.0
Br	-2.13361	-0.719364	-1.917259
H	1.093786	0.0	0.0
N	-0.26584	1.321086	-2.181869
O	-1.1149	2.136012	-1.850906
O	0.613729	1.48678	-3.018541
N	0.629946	-0.983024	-2.050851
H	1.576123	-0.776811	-1.713892
H	0.599255	-0.997845	-3.061379
C	-0.47441	-1.198718	0.792291
H	-0.034265	-1.149504	1.790372
H	-0.113447	-2.101726	0.299618
H	-1.558983	-1.223913	0.87773
N	-0.480826	1.269168	0.613855
O	0.252738	2.249066	0.510933
O	-1.568674	1.252419	1.192912
Br	3.435329	0.0	0.0
