18

C	-0.492271	-0.019469	-1.432198
C	0.0	0.0	0.0
Br	0.320053	1.61673	-2.364967
H	1.086904	0.0	0.0
N	0.105299	-1.232701	-2.16776
O	-0.381992	-1.431399	-3.291835
O	1.197277	-1.616268	-1.798843
N	-1.867759	-0.133012	-1.608423
H	-2.130499	-0.1801	-2.582378
H	-2.341655	0.600068	-1.097485
C	-0.564011	-1.141787	0.819246
H	-0.242522	-2.090208	0.3839
H	-0.156089	-1.088099	1.832367
H	-1.656569	-1.118023	0.856718
N	-0.411449	1.26627	0.678125
O	-1.558219	1.702872	0.487129
O	0.445052	1.863795	1.317727
Br	2.939434	0.0	0.0
