18

C	-0.536131	-0.018536	-1.430348
C	0.0	0.0	0.0
Br	0.207731	1.599462	-2.368472
H	1.086852	0.0	0.0
N	0.065216	-1.186929	-2.218057
O	0.9406	-1.852506	-1.690581
O	-0.417917	-1.368708	-3.330482
N	-1.924	-0.168805	-1.545864
H	-2.207025	-0.144812	-2.517044
H	-2.389459	0.539664	-0.993166
C	-0.525542	-1.137138	0.865615
H	-0.087407	-1.033621	1.861003
H	-1.61393	-1.122135	0.932025
H	-0.192653	-2.087638	0.453217
N	-0.428178	1.276811	0.670982
O	0.4082	1.879663	1.328353
O	-1.620434	1.601934	0.589801
Br	3.541498	0.0	0.0
