17
Coordinates from ORCA-job run
  C   -0.57070390673500     -0.43777902842781     -0.38931896565671
  C   0.90063003604838     -0.22984220162846     -0.03893218662647
  H   -0.80291088424261     -1.50711021144924     -0.40143410607156
  H   1.53385939427826     -0.83914838131501     -0.68215965081547
  N   -0.73824512604082      0.01335357436820     -1.82450424688453
  O   -1.82787651223463      0.46997583639038     -2.15036416688425
  O   0.21231884061888     -0.16570995351674     -2.58258904545808
  C   -1.51556759000780      0.30283740209941      0.52869821840964
  H   -2.54290471589574      0.17618507643976      0.19281715581084
  H   -1.28553376708598      1.36821243826837      0.54691936428959
  H   -1.42848521562620     -0.10254963102659      1.53940979167705
  N   1.07500490970011     -0.84911482182881      1.34484061104963
  O   1.43956650354415     -0.12370604645467      2.26668609374554
  O   0.81538069943946     -2.04432251266213      1.43165917403213
  N   1.25450677233855      1.15540175295923     -0.07098799062682
  H   2.11555401550112      1.29662655814300     -0.57989775140729
  H   1.36440654639985      1.51869014964112      0.86815770141676
