17
Coordinates from ORCA-job run
  C   -0.45261049524859     -0.43534770217514     -0.42441317986355
  C   0.83555324460156     -0.32095936083265      0.42111600962394
  H   -0.31222909833622     -1.30437075620974     -1.07217350848411
  H   0.82528721310737     -1.14308413678460      1.13831486883345
  N   -0.52358829097717      0.72600138946553     -1.37976374339734
  O   -1.32882210708047      1.62157909301843     -1.14922049405827
  O   0.26002468329010      0.69380710361187     -2.33021240429531
  C   -1.72194603954327     -0.54395951260290      0.39294930056195
  H   -1.88365912286877      0.34170671741020      1.00419497386624
  H   -1.65410803418895     -1.41418290959356      1.04943061583471
  H   -2.58463394159195     -0.66838784929735     -0.26269190293977
  N   0.69746873087543      0.92514654228311      1.26668676823748
  O   0.28050762967889      0.78434442397941      2.41427989204857
  O   0.98253469278569      1.98387871303935      0.71742679737887
  N   2.09014092628714     -0.27563842574514     -0.25017791392443
  H   2.03862532118519      0.23518415290164     -1.12120990249400
  H   2.44945468802403     -1.20471748246846     -0.41353617692844
