17
Coordinates from ORCA-job run
  C   -0.38117161004817      0.04373624371114     -0.59125527388432
  C   0.60327161688171      0.08182482720849      0.56565239757562
  H   0.15660712416196      0.07110470102783     -1.53880787210327
  H   0.09329092695216      0.42698024948455      1.47384371117779
  N   -1.25122624458673      1.26652721268336     -0.58713214307357
  O   -1.55782174767241      1.72790399639582     -1.67996461974924
  O   -1.64796418984256      1.67164502836580      0.50375847980436
  C   -1.30482187318470     -1.16186412591621     -0.51455033800657
  H   -2.04092043588269     -1.11117555454668     -1.31864202752524
  H   -1.83386611790766     -1.18378080428438      0.44163725948973
  H   -0.72434296707249     -2.07567849232918     -0.63652599215392
  N   1.64658971301699      1.15173817432771      0.31081253369897
  O   2.70967896926745      1.04436395309545      0.91396695758446
  O   1.33519463230858      2.07334048454904     -0.43571521416352
  N   1.29754351591516     -1.18162282964842      0.67959635127737
  H   0.73714599821228     -1.82052988823399      1.22999710771772
  H   2.16381268948114     -1.02351317589031      1.18232868233361
