17
Coordinates from ORCA-job run
  C   -0.33726163778109      0.03296911955538     -0.54370039214886
  C   0.60411052439354     -0.00306315614360      0.65293624298956
  H   0.24380785055933      0.03974873199435     -1.46683399968612
  H   0.05118567911026      0.06442052788299      1.58829075114023
  N   -1.09422318595906      1.32785597210978     -0.55394650466212
  O   -1.49654315921636      1.74114565350241      0.53337646697693
  O   -1.29851781769171      1.84778343822530     -1.64656069508041
  C   -1.35164667273647     -1.09682784066658     -0.51076096588533
  H   -2.02243376715344     -1.02277374904237     -1.36844030115671
  H   -0.84380308703513     -2.06081499584699     -0.55741684571661
  H   -1.94370077423864     -1.04935853573038      0.40590151495237
  N   1.46243537304678      1.24452522148782      0.61885973356369
  O   1.99434580772333      1.49738977247915     -0.46135014315985
  O   1.60271906200140      1.86719013216121      1.66400560228942
  N   1.49920686381147     -1.11797213116508      0.67211915723511
  H   1.15339530346349     -1.88768260392255      1.22272496666236
  H   1.77692363770230     -1.42253555688085     -0.25020458831363
