17
Coordinates from ORCA-job run
  C   -0.41733001451400     -0.01547918642027     -0.55060826188592
  C   0.56189710619130     -0.07269387185885      0.60624693473918
  H   0.11435045986223     -0.09454787952073     -1.49956577385146
  H   0.05280795807996      0.02843662496397      1.56329778549375
  N   -1.07173239583892      1.33228366324206     -0.58980086614670
  O   -1.25680940278004      1.89758435818595      0.48755045750701
  O   -1.42731941505818      1.74126162995130     -1.68984520699248
  C   -1.50896406213041     -1.06435675060594     -0.42411969468479
  H   -1.05775289700205     -2.05480586194315     -0.38724695076430
  H   -2.18316215402678     -1.00513378744444     -1.27995125715328
  H   -2.08220136741768     -0.90273539244738      0.49165023851148
  N   1.48456731109585      1.13887213068099      0.54496250520562
  O   1.85504967909070      1.49880880756899     -0.57237047702531
  O   1.86235562668475      1.59962057954802      1.61756237139877
  N   1.30403639514733     -1.29130201463803      0.55797158919834
  H   1.89674876153792     -1.32565810552940     -0.26321412340415
  H   1.87145841107801     -1.40915494373311      1.38748072985423
