17
Coordinates from ORCA-job run
  C   -0.67262003157969     -0.40266448174829     -0.19483933942097
  C   0.82679975547788     -0.43687040087771      0.10273447248536
  H   -1.13015709876634     -1.28455971112318      0.25840400133771
  H   1.22956083724096     -1.39851021069388     -0.21538078975785
  N   -0.78927403993726     -0.63233926294943     -1.68156432962639
  O   -0.33014404283712     -1.69489612459520     -2.09232007861844
  O   -1.32180374460841      0.23201282584547     -2.36808045010475
  C   -1.36506897916534      0.87269365176155      0.22742745189064
  H   -2.42635803680165      0.82413088255889     -0.01478851887933
  H   -0.95027757696492      1.73828730554048     -0.28773723254347
  H   -1.26676497053774      1.00753692834609      1.30680646804841
  N   0.92879589746244     -0.47213914658526      1.63806604746812
  O   1.37316763276053      0.52317271128011      2.20296312865766
  O   0.52450726537270     -1.49520301680126      2.18202263817079
  N   1.52232738307661      0.62934604702968     -0.50686433884860
  H   2.52110503145664      0.47570909198310     -0.49867855117352
  H   1.32720471835070      1.51429291102883     -0.05817057908541
