17
Coordinates from ORCA-job run
  C   -0.47289049818364      0.00961376854222     -0.50385099559610
  C   0.62663125021305     -0.08914943364145      0.53565039152201
  H   -0.04387407617672      0.04837965777991     -1.50581192026449
  H   0.21866501479645     -0.09748863490616      1.54500708231990
  N   -1.19782357374030      1.31227062301182     -0.34812585447385
  O   -1.71036610287724      1.78101012387543     -1.35870392258848
  O   -1.27616550195882      1.78086372792303      0.78697378539050
  C   -1.48846274466218     -1.11195734383556     -0.36738148547922
  H   -2.25640673968647     -1.01321467199746     -1.13608727220396
  H   -1.96288244801053     -1.07350147902019      0.61594852345893
  H   -0.98686943324376     -2.07206374991311     -0.47845681780670
  N   1.47993723512382      1.17264704654114      0.48993883804794
  O   1.68503474358105      1.66843130027779     -0.61773849997971
  O   1.97676398306336      1.53825414326598      1.55065394168080
  N   1.41623872412134     -1.25617276404170      0.30452548162666
  H   1.91999502062166     -1.18898151061173     -0.57217517002470
  H   2.07347514701894     -1.40894080324996      1.05863389437049
