16

C	0.0	0.0	0.0
C	-0.502088	0.055549	-1.447012
Br	1.961475	0.0	0.0
H	-1.594856	0.071697	-1.290735
H	-0.242231	0.947002	0.496813
N	-0.563586	-1.158135	0.626457
H	-1.593093	-0.972619	0.511726
H	-0.376154	-1.121162	1.624868
N	-0.170887	-1.126635	-2.236963
H	0.843546	-1.195157	-2.282216
H	-0.479343	-1.928072	-1.696546
C	-0.094017	1.314607	-2.186446
H	0.98619	1.355694	-2.359379
H	-0.598928	1.331236	-3.155008
H	-0.389759	2.205634	-1.624419
H	-3.092594	0.0	0.0
