16

C	0.0	0.0	0.0
C	-0.407094	0.024997	-1.509058
Br	1.959806	0.0	0.0
H	0.412228	0.527711	-2.032839
H	-0.207869	0.996288	0.409657
N	-0.604683	-1.069992	0.728645
H	-1.620033	-0.949211	0.549926
H	-0.476206	-0.904118	1.72262
N	-1.617172	0.772004	-1.800023
H	-2.390551	0.435972	-1.186116
H	-1.469279	1.74166	-1.531227
C	-0.529765	-1.38764	-2.065285
H	0.361576	-1.982797	-1.850153
H	-1.395506	-1.888846	-1.630426
H	-0.676506	-1.321651	-3.145787
H	-3.396272	0.0	0.0
