16

C	0.0	0.0	0.0
C	-0.586144	0.124202	-1.406107
Br	1.959613	0.0	0.0
H	-1.61108	0.453308	-1.15291
H	-0.244288	0.920299	0.536842
N	-0.523842	-1.100881	0.750492
H	-1.540992	-0.896295	0.77855
H	-0.41133	-1.926511	0.168533
N	-0.66284	-1.20117	-2.037093
H	-1.59293	-1.553627	-1.818434
H	-0.626734	-1.083741	-3.04288
C	0.088182	1.14094	-2.305165
H	-0.544468	1.346127	-3.175687
H	1.060557	0.779814	-2.651239
H	0.248237	2.083973	-1.775735
H	-3.176416	0.0	0.0
