17

C	0.0	0.0	0.0
C	-0.539819	0.368747	-1.394921
Cl	1.785305	0.0	0.0
H	-1.610017	0.145108	-1.318898
C	-0.348804	1.06309	0.972027
N	-0.575709	1.899657	1.765756
N	-0.502496	-1.29831	0.361014
H	-0.235046	-1.508591	1.317184
H	-1.525965	-1.219263	0.331367
C	0.084926	-0.487452	-2.481408
H	-0.522012	-0.418383	-3.389744
H	1.097478	-0.144276	-2.707626
H	0.119019	-1.530757	-2.166356
N	-0.296698	1.787494	-1.656158
H	-1.017802	2.322166	-1.179943
H	-0.429821	1.949562	-2.647919
Cl	-3.61551	0.0	0.0
