17

C	0.0	0.0	0.0
C	-0.342035	-0.791364	-1.342472
Cl	1.791581	0.0	0.0
H	0.387941	-1.611156	-1.336486
C	-0.411891	1.404571	-0.093384
N	-0.708666	2.534555	-0.209199
N	-0.521062	-0.566247	1.209191
H	-1.529952	-0.394046	1.212516
H	-0.376242	-1.570771	1.190349
C	-0.113976	0.083187	-2.568937
H	0.843166	0.60497	-2.546716
H	-0.161554	-0.54655	-3.458921
H	-0.912495	0.825859	-2.637342
N	-1.646767	-1.382009	-1.438574
H	-1.801392	-2.060024	-0.702978
H	-2.400343	-0.701418	-1.326955
Cl	-4.085585	0.0	0.0
