17

C	0.0	0.0	0.0
C	-0.336407	-0.020022	-1.519855
Cl	1.871631	0.0	0.0
H	0.356333	0.677682	-2.005624
C	-0.329336	1.2955	0.595405
N	-0.553195	2.356539	1.048293
N	-0.542942	-1.072305	0.734545
H	-1.404269	-0.796649	1.199777
H	-0.726116	-1.825957	0.076874
C	-1.762203	0.414676	-1.796041
H	-1.937583	1.438836	-1.466988
H	-1.928925	0.37838	-2.879877
H	-2.515248	-0.197834	-1.298592
N	-0.136736	-1.397037	-1.962689
H	-0.716665	-1.586011	-2.76864
H	0.831699	-1.564201	-2.201785
Cl	-4.625606	0.0	0.0
