17

C	0.0	0.0	0.0
C	-0.340848	-0.528236	-1.449324
Cl	1.785919	0.0	0.0
H	0.385147	-0.0232	-2.093334
C	-0.353667	1.427013	0.117766
N	-0.603717	2.569658	0.241231
N	-0.569134	-0.837477	1.011174
H	-0.478957	-0.394025	1.918321
H	-1.572235	-0.901636	0.819479
C	-1.729199	-0.184384	-1.944878
H	-1.815919	-0.580185	-2.960645
H	-1.897757	0.892771	-1.968459
H	-2.536291	-0.60361	-1.34158
N	-0.113214	-1.958004	-1.581169
H	0.768197	-2.212211	-1.152317
H	-0.842916	-2.4526	-1.081078
Cl	-4.425563	0.0	0.0
