17

C	0.0	0.0	0.0
C	-0.519577	-0.150465	-1.43067
Cl	1.855281	0.0	0.0
H	-1.598354	0.018693	-1.29365
C	-0.340109	1.332115	0.517738
N	-0.544944	2.408592	0.937967
N	-0.510432	-0.997507	0.849247
H	-0.53617	-0.743383	1.82359
H	-0.094733	-1.902811	0.698045
C	-0.311666	-1.561283	-1.969067
H	0.749553	-1.834376	-1.972818
H	-0.882003	-2.290317	-1.390172
H	-0.679266	-1.601771	-2.99745
N	0.036209	0.913231	-2.254452
H	0.91332	0.619569	-2.66783
H	-0.612711	1.135528	-2.997914
Cl	-3.853836	0.0	0.0
