17

C	0.0	0.0	0.0
C	-0.517774	0.006257	-1.45804
Cl	1.78852	0.0	0.0
H	-1.595	-0.15084	-1.326695
C	-0.369959	1.275393	0.643744
N	-0.605218	2.317076	1.131664
N	-0.499811	-1.076042	0.817645
H	-0.303214	-1.954978	0.350366
H	-1.519759	-0.955857	0.842251
C	0.06603	-1.11732	-2.296878
H	0.012225	-2.081934	-1.787812
H	-0.511299	-1.209549	-3.22177
H	1.106889	-0.906759	-2.550854
N	-0.216145	1.29061	-2.093929
H	-0.417616	1.204653	-3.084581
H	-0.869657	1.979419	-1.732207
Cl	-3.617818	0.0	0.0
