14

C	-0.358522	0.02588	-1.462898
C	0.0	0.0	0.0
Cl	-2.167184	0.508397	-1.680106
H	1.093812	0.0	0.0
H	0.174081	0.847981	-1.935509
N	-0.055268	-1.203775	-2.072133
H	-0.565837	-1.971138	-1.654372
H	-0.222869	-1.177267	-3.067331
C	-0.521931	-1.157268	0.681736
N	-0.886447	-2.179249	1.137899
N	-0.312267	1.233744	0.689499
O	-0.561268	1.18467	1.90204
O	-0.133592	2.276441	0.045967
H	2.389567	0.0	0.0
