14

C	-0.325595	0.118368	-1.490809
C	0.0	0.0	0.0
Cl	-0.078752	-1.570341	-2.241223
H	1.091881	0.0	0.0
H	-1.382993	0.308412	-1.685092
N	0.51498	1.116381	-2.003401
H	0.475715	1.179739	-3.010856
H	1.474056	0.962041	-1.672361
C	-0.594192	-1.134219	0.672702
N	-1.017221	-2.062858	1.256378
N	-0.487922	1.259178	0.653586
O	-1.674394	1.290247	0.996587
O	0.310467	2.179361	0.786159
H	2.641156	0.0	0.0
