14

C	-0.361398	0.008874	-1.461512
C	0.0	0.0	0.0
Cl	-2.176223	0.47472	-1.676955
H	1.09378	0.0	0.0
H	0.161718	0.831203	-1.944007
N	-0.050452	-1.223886	-2.060381
H	-0.551661	-1.992193	-1.632582
H	-0.220668	-1.209332	-3.055544
C	-0.517512	-1.150567	0.695967
N	-0.873991	-2.166507	1.171132
N	-0.312933	1.240994	0.67682
O	-0.551579	1.204394	1.891906
O	-0.144915	2.276916	0.020239
H	2.389647	0.0	0.0
