14

C	-0.212451	-0.001955	-1.505634
C	0.0	0.0	0.0
Cl	-1.962252	0.008458	-1.934955
H	1.094602	0.0	0.0
H	0.201596	0.930274	-1.884581
N	0.444612	-1.113099	-2.144145
H	1.42559	-1.037241	-1.861941
H	0.085983	-1.977962	-1.749676
C	-0.505554	-1.183173	0.65007
N	-0.857999	-2.210279	1.101587
N	-0.418475	1.222559	0.668959
O	-0.271033	2.273788	0.033981
O	-0.771349	1.15818	1.851962
H	2.462886	0.0	0.0
