14

C	-0.022159	0.003965	-0.011369
C	-0.463654	-0.255831	-1.458317
Br	1.995262	-0.018171	0.032951
H	-1.562962	-0.247383	-1.351833
H	-0.129948	-1.24638	-1.779176
N	-0.496206	1.297549	0.367006
H	-0.276465	1.409163	1.352813
H	-1.524101	1.148228	0.304172
N	-0.482058	-1.014573	0.893227
H	-1.513997	-0.895045	0.807781
H	-0.217748	-1.932434	0.547793
C	-0.018848	0.735994	-2.428389
N	0.323775	1.49275	-3.258456
F	-2.83311	-0.028613	0.091606
