14

C	-0.001025	-0.005573	-0.007803
C	-0.433157	-0.282373	-1.457042
Br	2.017417	0.017819	0.036295
H	-1.53323	-0.238822	-1.362539
H	-0.068349	0.505662	-2.118588
N	-0.492094	1.299313	0.316362
H	-0.284359	1.442271	1.300866
H	-1.520527	1.13521	0.248841
N	-0.447291	-0.990212	0.936455
H	-1.476744	-0.883588	0.853564
H	-0.174983	-1.920653	0.634018
C	-0.022089	-1.587942	-1.950291
N	0.295408	-2.647063	-2.34703
F	-2.811693	0.008449	0.061101
