14

C	-0.005839	0.001163	-0.010251
C	-0.439082	-0.004038	-1.485353
Br	2.012976	-0.009532	0.034618
H	-0.069943	-0.90152	-1.985223
H	-1.539037	-0.034078	-1.383994
N	-0.453481	1.14627	0.730128
H	-0.185515	2.002708	0.254691
H	-1.4827	1.022361	0.671711
N	-0.493	-1.21973	0.556757
H	-1.522114	-1.070424	0.468509
H	-0.276797	-1.176744	1.548865
C	-0.034568	1.186634	-2.217016
N	0.272782	2.1554	-2.806064
F	-2.815404	-0.004706	0.060969
