18
Coordinates from ORCA-job run
  C   0.47946868952225      0.05760032752079     -0.33146341871365
  C   -0.90458230625092     -0.12649094886013      0.29574117470682
  H   0.30843406168729      0.37528126331041     -1.36861485035311
  H   -0.81651009848286     -0.45323533788706      1.33435419917825
  C   1.21677482702118     -1.27880898230909     -0.32773404955789
  H   1.38279668005702     -1.62442894437433      0.69782027719685
  H   2.19381067915900     -1.17752252064111     -0.80567210680512
  H   0.66385121287229     -2.05188362408728     -0.86507480877027
  C   1.28898456093924      1.13546184564195      0.38579275811945
  H   2.29398933212220      1.19714430824452     -0.03826645580083
  H   0.82998621302479      2.12142185711929      0.29271198194094
  H   1.38521428321274      0.90771470589422      1.45174670134355
  N   -1.82719987668130     -0.97733370684177     -0.40017875719400
  H   -1.70762200939609     -0.91619144555920     -1.40239267974320
  H   -1.74477261964974     -1.93632724902783     -0.09823050311151
  N   -1.53766868115967      1.23980317037867      0.38062336156477
  O   -1.64251496975413      1.76004269784521      1.48864112170910
  O   -1.86343997824329      1.74775258363274     -0.68880394571015
