18
Coordinates from ORCA-job run
  C   0.62130139532452      0.43869861601957      0.07716183944932
  C   -0.85507665072550      0.19942699951744      0.42617303101047
  H   0.75859458276571      1.52499102831576      0.00964822835462
  H   -1.11798614720636      0.73093812010764      1.34134661835851
  C   0.95607680603167     -0.17446733197995     -1.28162239579385
  H   0.73901144472827     -1.24567240747227     -1.28119889230688
  H   0.38903259151613      0.28972761686091     -2.09251555296930
  H   2.01663214884757     -0.04220815640406     -1.50782474423648
  C   1.49382857411330     -0.12886930282182      1.18369275154906
  H   2.54519980878581      0.10113176569770      0.99294831352143
  H   1.23268925941044      0.29850175060689      2.15688149538850
  H   1.36717998938724     -1.21046021242509      1.24077578462109
  N   -1.17939691913456     -1.19719968829322      0.53163436024665
  H   -1.62832807847545     -1.50588807175705     -0.32342676874732
  H   -1.81651859568547     -1.35654542673826      1.29978779026685
  N   -1.65691330287099      0.91134822424271     -0.65668777815335
  O   -1.59227669744350      2.13707035763903     -0.64317989836531
  O   -2.27405020936884      0.23147611888408     -1.47259418219400
