15

C	0.0	0.0	0.0
C	-0.377995	0.008139	-1.520771
Cl	1.7901	0.0	0.0
H	0.380323	0.632633	-2.008021
H	-0.304271	0.972997	0.391495
C	-0.635809	-1.102142	0.803455
H	-1.722907	-0.942271	0.689248
H	-0.355374	-1.025047	1.857531
H	-0.340439	-2.084554	0.428019
N	-1.681872	0.49431	-1.900023
H	-1.647615	1.50582	-1.829541
H	-2.419408	0.192222	-1.181698
C	-0.164922	-1.348704	-2.069347
N	-0.005387	-2.419586	-2.525169
F	-3.269889	0.0	0.0
