15

C	0.0	0.0	0.0
C	-0.429563	-0.068734	-1.49275
Cl	1.789609	0.0	0.0
H	0.41333	0.298292	-2.088265
H	-0.293664	1.000956	0.318735
C	-0.628576	-1.034239	0.895009
H	-1.715707	-0.892589	0.75865
H	-0.353751	-0.854492	1.937533
H	-0.326368	-2.045147	0.613494
N	-1.56933	0.791774	-1.732847
H	-2.356006	0.508112	-1.058725
H	-1.885476	0.639422	-2.685295
C	-0.595601	-1.486655	-1.912044
N	-0.738367	-2.591405	-2.289129
F	-3.231945	0.0	0.0
