15

C	0.0	0.0	0.0
C	-0.558174	0.026918	-1.422753
Cl	1.790148	0.0	0.0
H	-1.66195	0.064364	-1.178272
H	-0.319049	0.912047	0.5033
C	-0.479802	-1.212916	0.773794
H	-0.083555	-2.130952	0.329999
H	-0.12724	-1.161622	1.807702
H	-1.57652	-1.152066	0.719946
N	-0.229341	-1.127414	-2.255639
H	0.751742	-1.360184	-2.133248
H	-0.781587	-1.913377	-1.93835
C	-0.13963	1.246733	-2.116301
N	0.193958	2.228465	-2.669258
F	-2.855116	0.0	0.0
