15

C	0.0	0.0	0.0
C	-0.508437	0.415203	-1.407606
Cl	1.78561	0.0	0.0
H	0.349508	0.754311	-2.000365
H	-0.288807	0.828589	0.64667
C	-0.555726	-1.297247	0.536256
H	-0.229017	-1.446287	1.568499
H	-1.647779	-1.168997	0.484733
H	-0.224283	-2.146519	-0.067544
N	-1.443704	1.522295	-1.263192
H	-1.767605	1.778813	-2.192026
H	-2.257457	1.082062	-0.737219
C	-1.060466	-0.746078	-2.1465
N	-1.457024	-1.61718	-2.828277
F	-3.045774	0.0	0.0
