15

C	0.0	0.0	0.0
C	-0.383347	0.064455	-1.517775
Cl	1.794129	0.0	0.0
H	0.3836	0.69053	-1.989194
H	-0.298209	0.960533	0.425697
C	-0.637677	-1.125376	0.768187
H	-1.724367	-0.96018	0.656137
H	-0.342857	-2.096586	0.364481
H	-0.359659	-1.079455	1.824765
N	-1.68015	0.588933	-1.872416
H	-1.632709	1.594465	-1.74345
H	-2.421105	0.255354	-1.172252
C	-0.200302	-1.276345	-2.111495
N	-0.040253	-2.337784	-2.588049
F	-3.272053	0.0	0.0
