15

C	0.0	0.0	0.0
C	-0.36688	0.026312	-1.523944
Cl	1.790238	0.0	0.0
H	0.375926	0.684152	-1.991482
H	-0.305515	0.96619	0.406778
C	-0.634199	-1.119067	0.779969
H	-1.72141	-0.957713	0.665363
H	-0.333441	-2.092832	0.386487
H	-0.358574	-1.061583	1.83619
N	-1.681448	0.474354	-1.915648
H	-1.667898	1.487488	-1.877546
H	-2.414488	0.17916	-1.19127
C	-0.103467	-1.313159	-2.094502
N	0.095261	-2.368789	-2.568987
F	-3.261233	0.0	0.0
