15

C	0.0	0.0	0.0
C	-0.422132	-0.225013	-1.47426
Cl	1.789386	0.0	0.0
H	0.402385	0.127417	-2.104148
H	-0.2927	1.029287	0.213761
C	-0.634532	-0.937105	0.994228
H	-0.328306	-1.971331	0.821731
H	-1.721758	-0.815849	0.843755
H	-0.365841	-0.651163	2.014765
N	-1.602531	0.544063	-1.797418
H	-2.386722	0.326556	-1.09359
H	-1.906616	0.285607	-2.72841
C	-0.502507	-1.684923	-1.75816
N	-0.56784	-2.819367	-2.06056
F	-3.284512	0.0	0.0
