13

C	0.0	0.0	0.0
C	-0.312909	0.286826	-1.475886
F	1.355007	0.0	0.0
H	0.481995	0.957885	-1.81655
H	-0.170094	-0.66571	-1.996781
N	-0.371448	1.146647	0.909825
O	-0.435871	2.255445	0.394708
O	-0.414125	0.901681	2.108475
C	-0.499247	-1.268024	0.523549
N	-0.557498	-2.37891	0.909428
C	-1.591048	0.857992	-1.896249
N	-2.387585	1.379573	-2.590326
F	-2.253541	0.0	0.0
