13

C	0.0	0.0	0.0
C	-0.452397	-0.270514	-1.429011
F	1.359449	0.0	0.0
H	-1.561507	-0.305438	-1.315071
H	-0.145348	0.581625	-2.037958
N	-0.406018	1.395207	0.444322
O	-0.450999	2.260859	-0.420903
O	-0.505606	1.576318	1.650139
C	-0.479934	-0.983799	0.972267
N	-0.581437	-1.861433	1.747898
C	0.144943	-1.492476	-1.937789
N	0.606386	-2.478455	-2.379179
F	-2.452576	0.0	0.0
