13

C	0.0	0.0	0.0
C	-0.303396	0.040983	-1.499302
F	1.361873	0.0	0.0
H	0.038857	-0.922369	-1.886997
H	0.374073	0.801853	-1.905126
N	-0.388718	1.258671	0.72887
O	-0.462466	2.280344	0.055443
O	-0.435028	1.195206	1.953008
C	-0.406679	-1.202663	0.735552
N	-0.601894	-2.231447	1.270153
C	-1.65452	0.313334	-2.001799
N	-2.441554	0.565588	-2.844392
F	-2.254879	0.0	0.0
