13

C	0.0	0.0	0.0
C	-0.452581	-0.052473	-1.451898
F	1.35982	0.0	0.0
H	-0.130429	0.87217	-1.933731
H	-1.562891	-0.090135	-1.343921
N	-0.40527	1.312712	0.648042
O	-0.451295	2.296764	-0.079784
O	-0.503331	1.312991	1.867388
C	-0.485691	-1.118977	0.811293
N	-0.595145	-2.103145	1.446184
C	0.123854	-1.198947	-2.133273
N	0.566063	-2.116916	-2.718856
F	-2.454098	0.0	0.0
