13

C	0.0	0.0	0.0
C	-0.453474	-0.199103	-1.440458
F	1.359592	0.0	0.0
H	-1.567138	-0.204953	-1.322692
H	-0.104982	0.663768	-2.016935
N	-0.414726	1.362545	0.527171
O	-0.493158	1.476519	1.742442
O	-0.48375	2.272616	-0.289151
C	-0.464183	-1.038367	0.924686
N	-0.579995	-1.942963	1.666845
C	0.103842	-1.425222	-1.989214
N	0.551937	-2.40379	-2.459542
F	-2.457226	0.0	0.0
