13

C	0.0	0.0	0.0
C	-0.439946	0.012281	-1.463626
F	1.368181	0.0	0.0
H	-0.405384	-1.020135	-1.82124
H	-1.49949	0.308537	-1.410861
N	-0.394776	1.276731	0.712829
O	-0.539895	2.274572	0.021478
O	-0.392719	1.234165	1.937209
C	-0.493843	-1.157189	0.745328
N	-0.584941	-2.176175	1.326102
C	0.406381	0.840111	-2.311383
N	1.047851	1.47927	-3.059072
F	-2.398746	0.0	0.0
