13

C	0.0	0.0	0.0
C	-0.314646	0.060706	-1.499506
F	1.367881	0.0	0.0
H	0.489978	-0.499524	-1.987258
H	-0.19848	1.108629	-1.783661
N	-0.38548	1.240603	0.770863
O	-0.467084	1.120407	1.986456
O	-0.418606	2.297367	0.151121
C	-0.459283	-1.207204	0.681757
N	-0.51786	-2.267185	1.188483
C	-1.589603	-0.430237	-2.023511
N	-2.365677	-0.818156	-2.819323
F	-2.250113	0.0	0.0
