13

C	0.0	0.0	0.0
C	-0.468069	-0.034411	-1.446691
F	1.352416	0.0	0.0
H	-0.156424	0.897582	-1.919886
H	-1.580502	-0.075801	-1.313078
N	-0.41007	1.302946	0.670564
O	-0.468758	2.2982	-0.040674
O	-0.502582	1.282016	1.890484
C	-0.476283	-1.1317	0.801456
N	-0.578793	-2.129788	1.414733
C	0.104214	-1.169674	-2.14702
N	0.549057	-2.082284	-2.737511
F	-2.471929	0.0	0.0
