18

C	0.0	0.0	0.0
C	-0.447735	0.809492	-1.228394
Cl	1.803745	0.0	0.0
H	0.248595	0.540614	-2.032575
H	-0.262811	-1.046542	-0.173929
C	-0.573412	0.445977	1.325428
H	-1.66614	0.412006	1.259703
H	-0.256814	-0.226645	2.125315
H	-0.257305	1.458163	1.58124
C	-0.343846	2.314843	-1.001869
H	0.63289	2.601036	-0.601734
H	-1.122852	2.659298	-0.316334
H	-0.48758	2.843735	-1.947838
C	-1.849311	0.411112	-1.680071
H	-2.633311	0.59934	-0.94375
H	-1.89576	-0.653346	-1.924405
H	-2.10935	0.966865	-2.585911
Br	-5.061391	0.0	0.0
