14

C	-0.205504	0.067158	-1.515003
C	0.0	0.0	0.0
F	-0.354287	-1.248603	-2.007978
H	1.096137	0.0	0.0
H	-1.121917	0.5872	-1.832619
H	-0.322466	0.966635	0.411673
N	0.939521	0.653395	-2.161559
H	1.76359	0.451169	-1.565701
H	0.821812	1.658069	-2.192285
C	-0.656286	-1.158529	0.72615
H	-1.746527	-1.178205	0.598388
H	-0.443499	-1.104333	1.798693
H	-0.259164	-2.103819	0.356223
F	2.790592	0.0	0.0
