14

C	-0.21371	0.150669	-1.505005
C	0.0	0.0	0.0
F	-0.407513	-1.139676	-2.054717
H	1.096144	0.0	0.0
H	-1.118759	0.714821	-1.778772
H	-0.44174	-0.92612	0.376064
N	0.936172	0.735919	-2.138261
H	0.825594	1.73829	-2.204681
H	1.762795	0.537089	-1.544134
C	-0.490533	1.227834	0.754032
H	-0.00136	2.123105	0.35713
H	-1.577171	1.374431	0.683361
H	-0.224102	1.167819	1.812721
F	2.78343	0.0	0.0
