14

C	-0.246173	0.366156	-1.464467
C	0.0	0.0	0.0
F	-1.210011	-0.522913	-2.050785
H	1.09613	0.0	0.0
H	-0.749105	1.341318	-1.570033
H	-0.386416	-1.005813	0.184364
N	0.980923	0.293918	-2.170904
H	1.098029	1.02566	-2.853446
H	1.794093	0.20966	-1.533542
C	-0.566968	1.022331	0.971152
H	-0.104731	1.998566	0.792765
H	-0.341575	0.749049	2.006266
H	-1.654192	1.139828	0.878272
F	2.798757	0.0	0.0
