18

C	-0.551811	-0.030109	-1.425309
C	0.0	0.0	0.0
Cl	0.309186	1.267523	-2.405419
H	1.094653	0.0	0.0
N	-0.195194	-1.302536	-2.18374
O	0.780654	-1.939662	-1.812544
O	-0.914277	-1.572972	-3.144373
N	-1.946252	0.097756	-1.432283
H	-2.173725	0.866026	-0.810072
H	-2.310356	0.230596	-2.365224
C	-0.513962	-1.176633	0.816859
H	-1.605826	-1.191598	0.849967
H	-0.144599	-2.117611	0.411995
H	-0.120849	-1.09057	1.834116
N	-0.515802	1.259856	0.583402
H	-0.433851	1.176745	1.590525
H	0.129131	1.997447	0.315208
Cl	3.497679	0.0	0.0
