18

C	-0.56056	-0.000353	-1.421645
C	0.0	0.0	0.0
Cl	0.284509	1.327816	-2.371597
H	1.094239	0.0	0.0
N	-0.208288	-1.249902	-2.21997
O	-0.892151	-1.453067	-3.220265
O	0.723796	-1.940152	-1.835646
N	-1.958387	0.115799	-1.417046
H	-2.186145	0.87346	-0.780815
H	-2.324606	0.267378	-2.346599
C	-0.517502	-1.180419	0.809537
H	-0.060697	-1.141169	1.802674
H	-0.222078	-2.126456	0.3593
H	-1.605177	-1.144228	0.907877
N	-0.506441	1.253271	0.607995
H	0.154888	1.987754	0.37363
H	-0.449222	1.141326	1.614171
Cl	3.498694	0.0	0.0
