18

C	-0.561611	0.002339	-1.421219
C	0.0	0.0	0.0
Cl	0.285864	1.326201	-2.373193
H	1.094175	0.0	0.0
N	-0.214945	-1.248594	-2.217626
O	-0.909726	-1.457369	-3.210506
O	0.724971	-1.934678	-1.84117
N	-1.958436	0.124386	-1.412919
H	-2.180669	0.882394	-0.775557
H	-2.328007	0.276778	-2.340688
C	-0.516554	-1.182225	0.807072
H	-0.059627	-1.144661	1.800108
H	-1.604228	-1.148861	0.905345
H	-0.218772	-2.126621	0.354956
N	-0.505196	1.252768	0.610704
H	0.159861	1.98479	0.380145
H	-0.449544	1.137401	1.6166
Cl	3.476027	0.0	0.0
