18

C	-0.330364	-0.099466	-1.497717
C	0.0	0.0	0.0
Cl	-1.9878	-0.724503	-1.831806
H	1.09598	0.0	0.0
N	-0.326508	1.361006	-2.062369
O	-1.368974	1.990935	-2.157497
O	0.79301	1.779752	-2.335003
N	0.619398	-0.925003	-2.11958
H	1.557933	-0.69018	-1.791876
H	0.567266	-0.889358	-3.128793
C	-0.436636	-1.254045	0.746343
H	0.061993	-1.266292	1.71866
H	-0.149052	-2.152804	0.198389
H	-1.520135	-1.267839	0.900911
N	-0.465123	1.248003	0.573643
H	0.234849	1.594148	1.215726
H	-1.33739	1.119189	1.069164
Cl	3.398632	0.0	0.0
