18

C	-0.343682	-0.028679	-1.498168
C	0.0	0.0	0.0
Cl	-1.953077	-0.710893	-1.825915
H	1.0994	0.0	0.0
N	-0.339974	1.431473	-1.993979
O	0.721725	2.003436	-1.773026
O	-1.306025	1.908805	-2.569494
N	0.632979	-0.696227	-2.313259
H	0.459666	-1.69234	-2.3009
H	1.557422	-0.518758	-1.911862
C	-0.423299	-1.279297	0.701425
H	-1.503692	-1.302274	0.865416
H	-0.136741	-2.161702	0.12662
H	0.093811	-1.332871	1.662924
N	-0.593604	1.167408	0.646609
H	-0.783961	0.946355	1.61602
H	0.096476	1.910238	0.64243
Cl	3.436462	0.0	0.0
