18

C	-0.575798	-0.019816	-1.414322
C	0.0	0.0	0.0
Cl	0.276086	1.275111	-2.400467
H	1.094624	0.0	0.0
N	-0.255477	-1.289639	-2.192177
O	0.669698	-1.988994	-1.805222
O	-0.956113	-1.499945	-3.181232
N	-1.970948	0.120308	-1.391529
H	-2.17646	0.889774	-0.763138
H	-2.349635	0.263983	-2.318405
C	-0.519318	-1.157206	0.840305
H	-1.605555	-1.107635	0.951375
H	-0.049601	-1.100176	1.826424
H	-0.23823	-2.11622	0.408048
N	-0.491575	1.270814	0.587742
H	0.174686	1.993827	0.329552
H	-0.418573	1.178925	1.595194
Cl	3.47621	0.0	0.0
