18

C	-0.271249	0.005069	-1.511289
C	0.0	0.0	0.0
Cl	-2.0305	-0.183586	-1.877713
H	1.094114	0.0	0.0
N	0.083866	1.376814	-2.185804
O	-0.074511	1.419576	-3.404069
O	0.561677	2.279868	-1.508687
N	0.471662	-1.010584	-2.142107
H	1.431771	-0.983013	-1.791385
H	0.451833	-0.90608	-3.148994
C	-0.457547	-1.322889	0.604915
H	-1.546814	-1.348306	0.707063
H	-0.138006	-2.175179	0.006456
H	-0.013997	-1.39299	1.599444
N	-0.545281	1.087885	0.78
H	-1.530678	1.206012	0.566733
H	-0.059815	1.941698	0.547512
Cl	3.392773	0.0	0.0
