18

C	-0.343862	-0.161693	-1.491957
C	0.0	0.0	0.0
Cl	-1.974499	-0.843908	-1.742759
H	1.098832	0.0	0.0
N	-0.320298	1.248215	-2.101558
O	0.808977	1.704574	-2.215257
O	-1.36286	1.817259	-2.38549
N	0.601911	-0.934991	-2.246852
H	0.477625	-1.914043	-2.018597
H	1.537529	-0.658109	-1.941507
C	-0.4029	-1.221644	0.818565
H	0.108984	-1.168712	1.782585
H	-0.099902	-2.154065	0.334644
H	-1.483911	-1.256155	0.986445
N	-0.495285	1.258231	0.5285
H	0.214633	1.671905	1.11816
H	-1.339278	1.120261	1.070402
Cl	3.402228	0.0	0.0
