18

C	-0.522869	0.033779	-1.461056
C	0.0	0.0	0.0
Cl	0.289302	1.33726	-2.343259
H	1.093778	0.0	0.0
N	-0.171751	-1.29927	-2.126421
O	0.930189	-1.441561	-2.629582
O	-1.039938	-2.168398	-2.028889
N	-1.940559	0.197536	-1.659312
H	-2.437517	-0.529668	-1.160018
H	-2.215375	1.109	-1.320587
C	-0.477196	-1.234203	0.753687
H	-1.57067	-1.300271	0.804478
H	-0.094149	-1.143961	1.769941
H	-0.091355	-2.157902	0.32327
N	-0.391685	1.191657	0.739736
H	0.161081	1.98233	0.434412
H	-1.376538	1.403432	0.631755
Cl	3.447726	0.0	0.0
