18

C	-0.313819	-0.039923	-1.508067
C	0.0	0.0	0.0
Cl	-0.180629	-1.690068	-2.169746
H	1.097507	0.0	0.0
N	-1.772053	0.39706	-1.703812
O	-2.629354	-0.304767	-1.170345
O	-1.989384	1.440305	-2.304787
N	0.511416	0.823823	-2.283635
H	0.397849	1.75283	-1.888319
H	1.474413	0.541054	-2.095197
C	-0.531209	-1.111275	0.88609
H	-0.138462	-0.949695	1.893456
H	-0.194272	-2.091718	0.550778
H	-1.623331	-1.108909	0.921353
N	-0.393879	1.345911	0.434911
H	0.330048	1.715875	1.03722
H	-1.259431	1.309315	0.960073
Cl	3.387901	0.0	0.0
