18

C	-0.211833	-0.040946	-1.532501
C	0.0	0.0	0.0
Cl	-0.216252	-1.781219	-2.18611
H	1.098722	0.0	0.0
N	-1.602717	0.42451	-1.976241
O	-2.546701	0.180021	-1.230125
O	-1.690243	0.991966	-3.059975
N	0.735465	0.781868	-2.133658
H	1.669835	0.599258	-1.757859
H	0.71122	0.758529	-3.142904
C	-0.549699	-1.153524	0.812149
H	-0.306005	-0.949906	1.855805
H	-0.089741	-2.097964	0.526666
H	-1.63399	-1.236698	0.70941
N	-0.422792	1.275259	0.563338
H	-1.41149	1.425322	0.40199
H	0.101965	2.022764	0.126668
Cl	3.426684	0.0	0.0
