18

C	-0.296776	0.163951	-1.497861
C	0.0	0.0	0.0
Cl	-0.51184	-1.495154	-2.353115
H	1.094858	0.0	0.0
N	-1.681228	0.768468	-1.743229
O	-1.808256	1.508787	-2.712244
O	-2.581356	0.438042	-0.979346
N	0.663803	0.962911	-2.079428
H	0.586939	1.058508	-3.079835
H	1.603059	0.745159	-1.750574
C	-0.515178	-1.251564	0.687458
H	-0.221145	-1.192605	1.739204
H	-1.603535	-1.320336	0.621396
H	-0.073819	-2.154902	0.268377
N	-0.422719	1.250573	0.633099
H	0.329001	1.582706	1.222809
H	-1.248371	1.096865	1.198125
Cl	3.402218	0.0	0.0
