16

C	0.0	0.0	0.0
C	-0.439538	0.029107	-1.512754
Br	1.963007	0.0	0.0
H	0.461747	0.242845	-2.096672
C	-0.320489	1.283641	0.661161
N	-0.497708	2.283901	1.254417
N	-0.51298	-1.138988	0.686086
H	-1.554456	-0.908808	0.590089
H	-0.242723	-1.067056	1.662928
C	-1.356775	1.126203	-1.840029
N	-1.937769	2.029402	-2.317622
C	-1.015237	-1.305763	-1.986645
H	-0.324926	-2.119128	-1.759824
H	-1.177111	-1.256	-3.067514
H	-1.961686	-1.449135	-1.471624
F	-2.640782	0.0	0.0
