16

C	0.0	0.0	0.0
C	-0.231976	0.103855	-1.567476
Br	2.008624	0.0	0.0
H	0.567078	-0.522263	-1.976967
C	-0.346549	1.234631	0.727887
N	-0.497509	2.207055	1.371853
N	-0.584025	-1.18763	0.488423
H	-0.425654	-1.240418	1.491324
H	-1.633206	-0.901135	0.337296
C	0.054076	1.467782	-2.024403
N	0.247711	2.54261	-2.457733
C	-1.520862	-0.406949	-2.224099
H	-1.369236	-0.325145	-3.306287
H	-2.39073	0.134249	-1.873717
H	-1.651406	-1.453624	-1.95899
F	-2.74301	0.0	0.0
