16

C	0.0	0.0	0.0
C	-0.231225	0.106414	-1.571657
Br	1.972117	0.0	0.0
H	0.515176	-0.584584	-1.974465
C	-0.370304	1.233786	0.719246
N	-0.59206	2.189408	1.368129
N	-0.609756	-1.182376	0.476405
H	-0.429966	-1.260053	1.474022
H	-1.659452	-0.880387	0.347432
C	0.148789	1.444619	-2.035788
N	0.410605	2.508133	-2.460791
C	-1.559249	-0.303416	-2.21508
H	-2.386061	0.291925	-1.848147
H	-1.418217	-0.226553	-3.299817
H	-1.771587	-1.339611	-1.955062
F	-2.792569	0.0	0.0
