16
Coordinates from ORCA-job run
  C   0.88227667229448     -0.56235240010477     -0.10598322781163
  C   -0.53020630483802     -0.13204127040290     -0.51076159232311
  F   1.56378003493906     -0.92400189463032     -1.22812464517430
  H   -0.90681498098855     -1.00538813350742     -1.06916607827999
  C   0.90328877886638     -1.66628310748235      0.85511676997778
  N   0.88622149377217     -2.58078426812517      1.59211208359260
  N   1.62637814695556      0.62127932161415      0.51195640129929
  O   1.26366864982621      0.91370187260258      1.64448120035822
  O   2.47394341325287      1.16699546401733     -0.16987168339874
  N   -0.37749023217559      1.06547719186983     -1.31854119281553
  H   -1.28212503708415      1.48385345180722     -1.49203992076662
  H   0.05222786455592      0.85254194328603     -2.21025863718336
  C   -1.45697677914217      0.13929017088311      0.66260219130235
  H   -1.13467970247899      1.02518520948147      1.20799236192731
  H   -2.46639043255996      0.30950423492417      0.27961135408889
  H   -1.49910158519523     -0.70597778623295      1.35087461520685
