16
Coordinates from ORCA-job run
  C   0.73712126418700     -0.62093940218122      0.19188942383346
  C   -0.44961931914771      0.03362448880750     -0.50203845170775
  F   0.73376115457205     -1.97515229025327     -0.00053212568850
  H   -0.42073621114296     -0.33617556669464     -1.53261376195188
  C   0.78183368363067     -0.32106505700103      1.62387596065225
  N   0.72016661348011     -0.12120360729330      2.77935609028496
  N   2.03230164653774     -0.12697427752395     -0.45736167186362
  O   2.99562309002505      0.06509817547580      0.27269834847735
  O   2.00239292986799     -0.02941070030125     -1.67899663542094
  N   -0.21743300800682      1.46593576481247     -0.41160823784825
  H   -1.05200819012749      1.96588267832479     -0.14078170724133
  H   0.13083149562374      1.84432185119650     -1.28135000010915
  C   -1.75062445921594     -0.38552058432206      0.16265802771057
  H   -1.82263783831639      0.03550105359372      1.16861750183625
  H   -1.82627749551549     -1.47156846091027      0.23404224857095
  H   -2.59369535645155     -0.02235406572978     -0.42885500953436
