16
Coordinates from ORCA-job run
  C   0.74441299656459     -0.61315491699233      0.18915051590980
  C   -0.44876254736029      0.03207082812291     -0.50271487319264
  F   0.75743913936923     -1.96569375753294     -0.01474734699299
  H   -0.41244746566467     -0.33098392697987     -1.53543881960464
  C   0.78261964918282     -0.32511052149464      1.62364436444585
  N   0.71657761195001     -0.13642018940770      2.78076117689251
  N   2.03450752392993     -0.09792851939264     -0.45325153730696
  O   2.99189436556435      0.10782249750798      0.28098798853443
  O   2.00758232746498      0.00238774078121     -1.67469583886453
  N   -0.23462901280658      1.46648226616321     -0.40306668782268
  H   -1.07480102089456      1.95383910196540     -0.12673140781768
  H   0.10675105529080      1.85496026843366     -1.27107075525311
  C   -1.74598929172839     -0.40787366239954      0.15607564766286
  H   -1.82520961388649      0.00524153103811      1.16486073132615
  H   -2.59215430223853     -0.05041409456454     -0.43457319904852
  H   -1.80879141473720     -1.49522464524827      0.21981004113214
