16
Coordinates from ORCA-job run
  C   0.73985557070773     -0.12588369072191      0.61346638666869
  C   -0.30415255304121      0.44749257766495     -0.34593024114618
  F   0.15045222926538     -0.47797371482056      1.78354156242236
  H   0.24286492218978      0.75597381757699     -1.24117663016764
  C   1.84553522244055      0.79895796499797      0.86815871164937
  N   2.74236731076268      1.52982255612007      1.06877977157877
  N   1.32464164820623     -1.39167335037635     -0.01354398988229
  O   1.05859044272884     -2.45990841153573      0.51279097781806
  O   1.96896901711113     -1.19606756799721     -1.03673065886963
  N   -0.81583696900870      1.63911891659298      0.30989461408958
  H   -1.53384543483717      1.39594721905133      0.98107282706563
  H   -1.21170402187266      2.27699431580930     -0.36701819796857
  C   -1.34762079855896     -0.60660074690303     -0.71121405578330
  H   -2.11899590521230     -0.13947697580213     -1.32642514092548
  H   -0.92226310757531     -1.43527713335866     -1.28186826040479
  H   -1.81985757330602     -1.01044577629801      0.18720232385543
