16
Coordinates from ORCA-job run
  C   0.75608314251797     -0.06168339853220      0.48927921811445
  C   -0.42711520648543      0.36426119915398     -0.40552240900776
  F   0.32986109229165     -0.27912477266451      1.75889364344494
  H   -0.01030806638005      0.52966036812480     -1.40318399124745
  C   1.82642714792199      0.93821153715507      0.49153017929777
  N   2.63148700619992      1.79365549472532      0.48217882802559
  N   1.33271562997088     -1.36686170683293     -0.04676891003246
  O   1.15417432304399     -2.37831565863258      0.61195037242604
  O   1.87344761093973     -1.26450878467265     -1.14167323562831
  N   -1.02791120624727      1.59811240198294      0.05061846547058
  H   -1.35148196009162      1.51341740044508      1.00624758647401
  H   -0.38988632941604      2.38174747759426     -0.01453471264896
  C   -1.47116121312161     -0.74313888663141     -0.45713447274670
  H   -1.82987586112945     -0.98750056612521      0.54507757518017
  H   -1.08476138334791     -1.65423395600860     -0.91668907224549
  H   -2.31269472666678     -0.38469814908136     -1.04926906487641
