13

C	0.0	0.0	0.0
C	-0.530476	0.448028	-1.334948
F	1.351577	0.0	0.0
H	-1.65657	0.40764	-1.117287
H	-0.387521	-0.963529	0.305316
H	-0.135051	1.411199	-1.648044
N	-0.392635	0.983059	1.097943
O	-0.292582	2.181932	0.816603
O	-0.623132	0.545131	2.217743
N	-0.195708	-0.538761	-2.368422
O	-0.161984	-1.733039	-2.050815
O	-0.013537	-0.131882	-3.521706
F	-2.56518	0.0	0.0
