13

C	0.0	0.0	0.0
C	-0.473716	0.146934	-1.428216
F	1.360788	0.0	0.0
H	-1.140946	0.985999	-1.544786
H	-0.385089	-0.875087	0.49823
H	0.397201	0.218001	-2.093842
N	-0.37709	1.182162	0.837315
O	-0.433266	0.990729	2.048062
O	-0.428652	2.283593	0.294518
N	-1.213649	-1.052712	-1.896396
O	-0.870353	-2.149901	-1.463403
O	-2.021007	-0.883965	-2.803239
F	-2.326315	0.0	0.0
