13

C	0.0	0.0	0.0
C	-0.509677	0.394318	-1.382327
F	1.349869	0.0	0.0
H	-1.117853	1.285117	-1.333452
H	-0.385247	-0.950809	0.336432
H	-1.062498	-0.427665	-1.817372
N	-0.392444	0.993722	1.056814
O	-0.482358	2.176437	0.74566
O	-0.436278	0.555485	2.202731
N	0.662493	0.677187	-2.279888
O	1.14806	-0.268574	-2.905636
O	1.080207	1.833484	-2.33767
F	-2.324967	0.0	0.0
