13

C	0.0	0.0	0.0
C	-0.536068	0.235967	-1.398071
F	1.347722	0.0	0.0
H	-1.622561	0.399357	-1.240071
H	-0.417117	-0.911668	0.410181
H	-0.331073	-0.667354	-1.977289
N	-0.401454	1.086785	0.955374
O	-0.482324	0.766653	2.136977
O	-0.483997	2.226407	0.513623
N	0.139552	1.338134	-2.1408
O	-0.538612	2.309199	-2.473049
O	1.328035	1.191481	-2.441043
F	-2.58163	0.0	0.0
