13

C	0.0	0.0	0.0
C	-0.536993	0.182848	-1.406414
F	1.348846	0.0	0.0
H	-0.387906	-0.762546	-1.932325
H	-0.416485	-0.894555	0.447171
H	-1.612122	0.40215	-1.256635
N	-0.392495	1.12299	0.915793
O	-0.424069	2.252686	0.438236
O	-0.505573	0.841075	2.104431
N	0.189505	1.202768	-2.211219
O	1.344431	0.943906	-2.565687
O	-0.416785	2.223889	-2.53259
F	-2.570904	0.0	0.0
