16
Coordinates from ORCA-job run
  C   -0.93409790298583     -0.39884123047453      0.20268926367538
  C   0.58960411793978     -0.25858008472629      0.29715443205405
  H   -1.30449587491497     -1.00863289248051      1.02763307976482
  H   1.00637509764573     -1.26914721985518      0.34164734792187
  N   -1.22333180741430     -1.18427028988755     -1.05996951290487
  O   -0.82646982345005     -2.34420837343906     -1.03503386816582
  O   -1.78411450791512     -0.61633206835701     -1.98780311858611
  C   -1.60514962731469      0.89331253135705      0.17691672520743
  N   -2.11190342244707      1.95249233927929      0.19610183138671
  N   0.89724819098985      0.34106819989932      1.65492258261678
  O   1.84205925529693      1.11658544851982      1.73207812312864
  O   0.19948203608463     -0.04077024335007      2.59125262099532
  C   1.19786945154001      0.55504254784723     -0.82216074481388
  H   2.27890453576572      0.60512418395755     -0.70703212256739
  H   0.97538437318621      0.08619730630269     -1.78288462254494
  H   0.80263590799319      1.57195984540725     -0.82651201716800
