16
Coordinates from ORCA-job run
  C   -0.93759585373968     -0.28030383983445      0.34127925575534
  C   0.58947336175915     -0.14981549102587      0.36244481911556
  H   -1.30457008004955     -0.54768707928500      1.33279363925337
  H   0.99138220944777     -1.08988140679384      0.75225957164160
  N   -1.26372263433078     -1.45774231448395     -0.55417236370853
  O   -0.88500906270104     -2.54107041139486     -0.12208343143861
  O   -1.83630870812547     -1.24671553661302     -1.61523319122363
  C   -1.58741222559822      0.93237956160592     -0.13559408252228
  N   -2.07441811215672      1.94077703828788     -0.48914436382892
  N   0.93924467316027      0.88160353838327      1.41676044009196
  O   0.21685824723704      0.92117422775919      2.40979699170753
  O   1.94158250852916      1.56003045576340      1.23031815811019
  C   1.18913685274422      0.20607987936520     -0.97924273770261
  H   0.81714167561690      1.17013894369020     -1.32976459286301
  H   0.93176773238852     -0.55884154299050     -1.71469669930017
  H   2.27344941581843      0.25987397756643     -0.90472141308779
