16
Coordinates from ORCA-job run
  C   -0.84891466205635     -0.58026048036163     -0.16173254985270
  C   0.57381360265950     -0.33962859669006      0.36382519710688
  H   -0.83064604320577     -1.46020506624418     -0.81271927236266
  H   0.80775388266813     -1.17023584144279      1.03037909730854
  N   -1.29424753706354      0.56037280744402     -1.05378285239612
  O   -1.96021116761100      1.44372030918467     -0.54647933580124
  O   -0.91737295387520      0.48942730484373     -2.20297846946384
  C   -1.81720370741294     -0.77607516904867      0.90956470788360
  N   -2.62830074388152     -1.08389956019369      1.70525015529720
  N   0.55771169077324      0.86773682906962      1.26004569022096
  O   0.69347850753595      1.95763100088364      0.71837620684331
  O   0.41467927253967      0.68087176531447      2.48152587897510
  C   1.61440271081658     -0.17305144991999     -0.72372710253221
  H   1.43910626245497      0.73172119367380     -1.30928983947208
  H   1.59618196188217     -1.03714218939781     -1.39422373246079
  H   2.60276892377612     -0.10998285711514     -0.26503377929397
