16
Coordinates from ORCA-job run
  C   -0.84607547661033     -0.54009154485426     -0.14015829722219
  C   0.58929053521961     -0.26582352949296      0.31347274501270
  H   -0.82108596699977     -1.31697183503613     -0.91327536611013
  H   0.83611378722476     -1.03255000778578      1.05675666055181
  N   -1.49276761123109      0.64852195442830     -0.84146225406376
  O   -0.73744879781710      1.47007641141405     -1.34225115814782
  O   -2.71262047228339      0.63766625710656     -0.90187841822995
  C   -1.71277808946141     -0.99725048280441      0.94052321484460
  N   -2.35899409382593     -1.44810386439518      1.81095329285718
  N   0.62802806928600      1.02252036510713      1.10750944457662
  O   1.72938759184328      1.52999065430016      1.27547933399675
  O   -0.43475752391336      1.42778811921922      1.56787143801843
  C   1.63735538085957     -0.27450501142692     -0.78394244826025
  H   1.60107813010020     -1.23267602373966     -1.30775045476670
  H   2.62757560796498     -0.16121504346638     -0.34684940673876
  H   1.46869892964399      0.53162358142626     -1.49399832631853
