16
Coordinates from ORCA-job run
  C   -0.81417430888810     -0.12191028790653     -0.42424707122436
  C   0.45587175733569      0.00724483874358      0.39806156406566
  H   -0.65467406276156      0.21515589656736     -1.44989269205198
  H   0.24521891690613     -0.17846041522439      1.45092963283373
  N   -1.91646950988386      0.78119896660470      0.11129220580770
  O   -2.85332273247666      0.96924425777091     -0.65145973810268
  O   -1.78109480028980      1.22338186299448      1.24522903482249
  C   -1.31265260029658     -1.49202233295790     -0.40663700350809
  N   -1.67846822715506     -2.60780833432594     -0.37558491742290
  N   0.91732598739186      1.43841217204407      0.33815111718588
  O   0.59209349913863      2.10204008853599     -0.64405880113744
  O   1.63225555695697      1.80944158057412      1.26031510198170
  C   1.58101839894076     -0.87368743099176     -0.12107854981267
  H   1.80186576790879     -0.64226518250227     -1.16572508361043
  H   2.47700270440130     -0.70242552873136      0.47678956830261
  H   1.30720365277150     -1.92654015119506     -0.04008436812922
