16
Coordinates from ORCA-job run
  C   -0.75899280064122     -0.16160774771777     -0.50401400518155
  C   0.41510466341209      0.02290576201095      0.44081299092338
  H   -0.52570015417469      0.21560849865953     -1.50117111718800
  H   0.11944707298679     -0.21197081102341      1.46313544634775
  N   -1.96498975141803      0.65356079110613     -0.05775576757184
  O   -1.97640866014335      1.05424904856275      1.09930267689101
  O   -2.82776914037531      0.81713260556921     -0.90832210439126
  C   -1.16579392015097     -1.56032710507823     -0.56728509374110
  N   -1.46088118266161     -2.69687393060093     -0.59981158248726
  N   0.78075808782962      1.48280279587850      0.46492226637494
  O   0.49434451412876      2.15921468239621     -0.52057353403367
  O   1.38657351733986      1.86599745314606      1.45756262934883
  C   1.64191553248582     -0.76448730836697      0.00855863964705
  H   1.43260136509044     -1.83488806497231      0.03078167308203
  H   2.46302034509408     -0.55822837350582      0.69598313364820
  H   1.94577051119771     -0.48208829606392     -1.00212625166850
