11

C	0.0	0.0	0.0
C	-0.478721	0.031106	-1.428954
Cl	1.792511	0.0	0.0
H	-0.125259	-0.879426	-1.943744
H	-0.351495	-0.889488	0.516747
H	-0.342199	0.889653	0.521618
H	-1.575145	0.00793	-1.332702
N	-0.053108	1.269182	-2.090952
H	0.915007	1.193047	-2.381898
H	-0.61557	1.402268	-2.921517
H	-3.142662	0.0	0.0
