16
Coordinates from ORCA-job run
  C   0.37021281383748     -0.14702408598588     -0.55455512829086
  C   -0.97768966456367     -0.27273012161806      0.18755538844076
  Br  0.56977869098800     -1.84890178884149     -1.62029088079026
  H   -1.75460979404068     -0.43698317324568     -0.57723621408416
  C   1.55418842795516     -0.05179011154438      0.38443198264094
  H   1.61070654024881     -0.93098748613265      1.02568143877282
  H   2.48212372599964      0.01459214438780     -0.18794416026849
  H   1.43710356159268      0.83759630966780      1.00485133804082
  N   0.29003206903252      0.99627867674691     -1.39925475979337
  H   -0.36797975179717      0.85388492140343     -2.15705436722863
  H   1.19333933276824      1.22337230099729     -1.79624604491456
  N   -1.16196598742781      0.93301341696979      0.98788067351405
  H   -1.13824818165318      1.73162773794761      0.36521370081748
  H   -2.05472370495175      0.90329852789457      1.46522895266274
  C   -0.99577215181401     -1.43876695682182      1.07725084475705
  N   -1.05449592617426     -2.36448031182524      1.79648723572367
