16
Coordinates from ORCA-job run
  C   0.45585733385339     -0.03241066336756     -0.43861119632749
  C   -0.80063799728525     -0.37373285780690      0.38412534951740
  Br  0.23979385452343     -1.23986558366282     -2.12969325400139
  H   -0.81567919372887     -1.46187920743883      0.53314793281298
  C   1.74316319735483     -0.50020618733503      0.20371415197979
  H   2.58461969719133     -0.33293820683354     -0.47104218040423
  H   1.70129134044653     -1.56501565452444      0.43537675408354
  H   1.90729361458560      0.07128942222233      1.12082114960440
  N   0.45790588096759      1.32408406935773     -0.73496888452532
  H   1.22288318391297      1.62145358681757     -1.32327211080705
  H   -0.44259004480830      1.64443004904869     -1.06916555085835
  N   -1.98693891454915      0.15120193894203     -0.28718882058159
  H   -2.21761061358667     -0.46105255905508     -1.06129906547221
  H   -2.77278751683539      0.17597039838580      0.35068559861033
  C   -0.67963905005029      0.25577618149081      1.70650707793774
  N   -0.59692477199175      0.72389527375923      2.77986304843144
