16
Coordinates from ORCA-job run
  C   0.39605308936919     -0.13159866612596     -0.57974041748346
  C   -1.00386806533016     -0.25007567986385      0.06514117310709
  Br  0.60849184244545     -1.90170022688109     -1.59265497804862
  H   -1.69703750997785     -0.58778535585065     -0.71182480262174
  C   1.54363745357305     -0.09802135595715      0.41324485751965
  H   2.49263016484173     -0.02512908421709     -0.12162045558290
  H   1.44491066042145      0.78889821942841      1.04625118457360
  H   1.56751730353807     -0.99268361274633      1.03356733419064
  N   0.43627791399490      0.99073784928746     -1.42285869255226
  H   1.27718209469289      1.02050479957163     -1.98373401968867
  H   -0.38531479463950      1.09022031642408     -2.00379876187178
  N   -1.47426483804286      1.04956400977719      0.52953558561871
  H   -0.82465560701541      1.44293168537629      1.20002913062928
  H   -2.36707929422179      0.93473136198075      0.99608774575043
  C   -0.98938009504919     -1.28609481034802      1.11744017152381
  N   -1.02510031859997     -2.04249944985565      2.01593494493623
