16
Coordinates from ORCA-job run
  C   0.43281699994563      0.14771116338068     -0.50288471656758
  C   -0.67525172499875     -0.00366044956435      0.56922579862369
  Br  -0.39383305826687     -0.30525791268072     -2.24294448615839
  H   -0.17330915892454      0.21216866467385      1.52190978160440
  C   1.56693734251489     -0.82212269398555     -0.23718543885048
  H   2.03301736575254     -0.57148430644688      0.72322762172062
  H   2.31439389149940     -0.72808568792483     -1.02460331066225
  H   1.19885030863439     -1.84401984115326     -0.18415848962020
  N   0.94928619851287      1.48148681039301     -0.62594529536028
  H   0.21497679559551      2.16943916485943     -0.74609909309028
  H   1.51612993091640      1.71831904059595      0.18028175502757
  N   -1.19796268885932     -1.35462739928047      0.64685035208099
  H   -1.75969124917243     -1.55047247936566     -0.17379309747302
  H   -1.78751264387865     -1.45339591267510      1.46467744895446
  C   -1.70175297527892      1.04367117305793      0.38327157915816
  N   -2.53809533399216      1.85833066611597      0.24816959061258
