16
Coordinates from ORCA-job run
  C   0.34373492723042      0.25827062281486     -0.49891696856862
  C   -0.70378272872261      0.00872606828155      0.60590650609374
  Br  -0.56340896360584      0.19828363506398     -2.23238986136702
  H   -0.16337594103433      0.15030621503861      1.55459811345821
  C   1.40218418287604     -0.83284189783373     -0.48352308223193
  H   2.14202028419865     -0.64761467159010     -1.26433497313795
  H   1.91391593182292     -0.81872936656789      0.48714459584212
  H   0.95373428625843     -1.81398309580162     -0.63430476827511
  N   0.83950242691552      1.61102528841334     -0.32112734741831
  H   1.33403964534256      1.91904958561073     -1.14986151316909
  H   1.49509569787212      1.62407849562585      0.45528605349481
  N   -1.26030430687379     -1.33779666194362      0.53779094470609
  H   -2.25536957008508     -1.32202619440889      0.36571642263760
  H   -1.08900387746164     -1.84029773488276      1.39705480259549
  C   -1.74885028988828      1.03997076858761      0.57405266786660
  N   -2.64013170484508      1.80357894359209      0.60590840747336
