16
Coordinates from ORCA-job run
  C   0.42870026296864     -0.03542793982377     -0.46387615281020
  C   -0.78148949723770     -0.36334576020901      0.43023540429723
  Br  0.09228680421662     -1.23442891812844     -2.14539005135526
  H   -0.80295620280638     -1.45201437616173      0.57442543868690
  C   1.74499029269346     -0.52671317723253      0.09661836794984
  H   1.69983720356062     -1.59167526959803      0.32698926102385
  H   1.97430587111860      0.03841165817803      1.00377792183035
  H   2.54612622201246     -0.37037682781725     -0.62808449426590
  N   0.43299299227758      1.32120824767613     -0.75556436399594
  H   -0.48155650256677      1.65736931807819     -1.03088757519600
  H   1.16511793788802      1.61142196080384     -1.38753727488118
  N   -1.99764362117879      0.18308382227830     -0.16677907470861
  H   -2.27970115669755     -0.42000130232819     -0.93111342220448
  H   -2.74476839266726      0.20882713300002      0.51601388452197
  C   -0.57426859908535      0.25669279139471      1.74643173290869
  N   -0.42297361449619      0.71696863988974      2.81574039819873
