16
Coordinates from ORCA-job run
  C   -0.64785064739581      0.00281092950788     -0.62492375289159
  C   0.85534740044611     -0.11567989232257     -0.31990928445831
  F   -0.70321482579869      0.81930971868780     -1.74817176302838
  H   1.40123740964600     -0.36294419271262     -1.22932443768217
  C   -1.50777255608742      0.62345496869377      0.45396805028774
  H   -1.15441239994002      1.63118576254942      0.67365591097966
  H   -2.52848266048844      0.68529399514755      0.07408011388612
  H   -1.49028912121387      0.02280943695357      1.36058047099442
  C   -1.13302269369820     -1.32964143572552     -1.01902913428238
  N   -1.53245382566064     -2.37947960704198     -1.36223126798604
  N   1.20865416695641     -1.14226727459193      0.71112447598810
  O   0.31111674920926     -1.61174756934756      1.40211439039472
  O   2.40469371969139     -1.40397154395646      0.76981288691362
  N   1.38579758900425      1.20103845987535      0.17182387088375
  O   1.30472370698819      1.41025353971621      1.37760374570571
  O   1.82592798834148      1.95057470456710     -0.69117427570497
