16
Coordinates from ORCA-job run
  C   -0.63918892775587     -0.25084617188196     -0.39558965203228
  C   0.63828787611969     -0.06755813033283      0.42865516780762
  F   -0.30715998995096     -0.33816878710605     -1.72861347692462
  H   0.41801089179554      0.05226913392570      1.48921167474620
  C   -1.59618647092170      0.91697001252140     -0.21693222281185
  H   -1.85019658176998      1.06526772445140      0.83352814108896
  H   -2.50619567068353      0.70127982525086     -0.77751454947665
  H   -1.14626566820877      1.82810491742425     -0.61047062418438
  C   -1.28837687493381     -1.49921990981719      0.04089748649498
  N   -1.87022755567920     -2.43668205086515      0.44294042413147
  N   1.35751868245619      1.17240183860861     -0.01891236900885
  O   2.12787244983956      1.05799730008040     -0.96266968375158
  O   1.06641661437501      2.19558729690216      0.59253343328961
  N   1.62068222976935     -1.20102630695780      0.31182180585684
  O   2.60506660970413     -1.07763619126989      1.03151931408348
  O   1.36994238584434     -2.11774050093390     -0.45940486930897
