16
Coordinates from ORCA-job run
  C   -0.57525169485309     -0.11854462468805     -0.68581393681049
  C   0.88042363219097     -0.21142947807753     -0.19418622230829
  F   -0.47643670252144      0.40524296493627     -1.96859346543931
  H   1.51342193306946     -0.63583868793231     -0.97250343324956
  C   -1.48805768156803      0.77807088708592      0.12221705014176
  H   -1.11221661150239      1.80149031740358      0.08887712351736
  H   -1.55425466378243      0.44223854347876      1.15474407923312
  H   -2.47842122461394      0.75755042392243     -0.33416009000890
  C   -1.10239726872125     -1.48722408187846     -0.81006518557806
  N   -1.52511000040718     -2.57283038165477     -0.95986875751397
  N   1.06857189771458     -1.03010728943878      1.04399161011121
  O   2.23061565829889     -1.34892301149048      1.26888022502041
  O   0.08382623525102     -1.28423047573970      1.72956440817394
  N   1.40186789283372      1.16573769856816      0.10756782808613
  O   1.28056004570627      1.56262864943339      1.26098243416471
  O   1.85285855290482      1.77816854607160     -0.85163366754006
