15

C	0.0	0.0	0.0
C	-0.520842	0.123631	-1.421935
Br	1.962448	0.0	0.0
H	-0.253283	1.093891	-1.836787
H	-1.615857	-0.003386	-1.375346
C	-0.465298	1.217346	0.799249
H	-0.110429	1.144554	1.828035
H	-0.059514	2.124201	0.344185
H	-1.55941	1.230873	0.779364
C	-0.401698	-1.2361	0.670873
N	-0.641045	-2.194011	1.309107
N	0.040194	-0.889256	-2.354264
O	0.413776	-0.485266	-3.456057
O	0.071537	-2.057256	-1.977911
Br	-3.751653	0.0	0.0
