15

C	0.0	0.0	0.0
C	-0.551777	0.013045	-1.413484
Br	1.962525	0.0	0.0
H	-1.645764	-0.113792	-1.328869
H	-0.309086	0.952205	-1.907928
C	-0.486226	1.25387	0.722544
H	-1.581022	1.230822	0.724031
H	-0.123321	2.142735	0.201174
H	-0.112687	1.262649	1.747407
C	-0.370946	-1.190286	0.769958
N	-0.574905	-2.09715	1.48899
N	-0.017846	-1.062777	-2.28729
O	0.078636	-2.192239	-1.815678
O	0.263435	-0.747826	-3.443984
Br	-3.796114	0.0	0.0
