15

C	0.0	0.0	0.0
C	-0.553692	0.146082	-1.40443
Br	1.962629	0.0	0.0
H	-1.647358	0.007155	-1.333137
H	-0.314427	1.128413	-1.807671
C	-0.484778	1.182307	0.836627
H	-0.120862	1.086599	1.860102
H	-1.580107	1.16707	0.827929
H	-0.110229	2.114387	0.406997
C	-0.379731	-1.253971	0.65563
N	-0.607277	-2.215018	1.293177
N	-0.015936	-0.84202	-2.374603
O	0.276586	-0.419371	-3.494223
O	0.071238	-2.012627	-2.010168
Br	-3.793539	0.0	0.0
