15

C	0.0	0.0	0.0
C	-0.543486	-0.117599	-1.425608
Br	1.963967	0.0	0.0
H	-1.633895	0.022807	-1.359382
H	-0.286759	-1.078474	-1.866417
C	-0.474404	1.236063	0.755385
H	-1.568424	1.238368	0.725025
H	-0.126832	1.187548	1.788735
H	-0.08511	2.13522	0.281405
C	-0.375914	-1.223017	0.71248
N	-0.59683	-2.220568	1.294657
N	0.021985	0.916024	-2.331643
O	0.731591	0.526206	-3.261837
O	-0.258513	2.092346	-2.10519
Br	-3.788413	0.0	0.0
