19

C	-0.544621	-0.001055	-1.417247
C	0.0	0.0	0.0
Br	0.386645	1.467917	-2.365211
H	1.089423	0.0	0.0
C	-0.118527	-1.304369	-2.094189
H	0.945855	-1.499997	-1.956105
H	-0.330886	-1.249496	-3.163927
H	-0.687268	-2.139781	-1.674043
C	-2.041771	0.219002	-1.587445
H	-2.347229	1.195422	-1.221596
H	-2.581377	-0.55118	-1.030142
H	-2.300734	0.135341	-2.645775
N	-0.428351	-1.254378	0.700874
O	0.409042	-2.144332	0.812293
O	-1.591682	-1.303704	1.108458
N	-0.431403	1.096468	0.916383
O	-1.034351	2.075001	0.472519
O	0.029369	0.99369	2.054808
Br	2.749212	0.0	0.0
