14

C	-0.527683	0.004208	-1.43473
C	0.0	0.0	0.0
Br	0.247284	-1.617742	-2.375893
H	1.097708	0.0	0.0
H	-0.095911	0.827889	-2.001413
N	-1.939007	0.01995	-1.448263
H	-2.310394	-0.105947	-2.379133
H	-2.274293	-0.711217	-0.830472
N	-0.559219	-1.163825	0.715676
H	0.045952	-1.946051	0.484125
H	-0.441298	-1.003415	1.710077
C	-0.463689	1.230608	0.648957
N	-0.81118	2.219058	1.179304
Br	3.490236	0.0	0.0
