14

C	-0.549846	-0.05184	-1.423574
C	0.0	0.0	0.0
Br	0.23633	-1.699961	-2.313987
H	1.091976	0.0	0.0
H	-0.136418	0.750287	-2.031201
N	-1.957083	-0.049192	-1.413471
H	-2.281348	-0.757916	-0.765252
H	-2.353594	-0.189719	-2.33283
N	-0.550439	-1.13652	0.768086
H	-0.423493	-0.931395	1.75299
H	0.061653	-1.923564	0.569012
C	-0.459424	1.252875	0.609011
N	-0.836179	2.245642	1.109795
Br	3.502476	0.0	0.0
