14

C	-0.405545	-0.0958	-1.469032
C	0.0	0.0	0.0
Br	-0.08565	1.677876	-2.381103
H	1.103103	0.0	0.0
H	-1.481102	-0.238121	-1.57478
N	0.316328	-1.169175	-2.042498
H	1.318884	-1.021316	-1.932308
H	0.087997	-1.302734	-3.018317
N	-0.538087	-1.202463	0.669173
H	-0.152269	-1.986999	0.151825
H	-0.114336	-1.237259	1.592264
C	-0.53194	1.183901	0.669848
N	-0.954061	2.100956	1.269207
Br	3.520657	0.0	0.0
