14

C	-0.297143	0.019332	-1.4892
C	0.0	0.0	0.0
Br	-2.258269	0.123109	-1.828714
H	1.09842	0.0	0.0
H	-0.044854	-0.971925	-1.87514
N	0.355925	1.136909	-2.093834
H	1.31206	1.174344	-1.741089
H	0.384705	1.030688	-3.097679
N	-0.462246	-1.228556	0.625678
H	-1.415985	-1.12204	0.947684
H	0.132194	-1.425461	1.421035
C	-0.464654	1.224612	0.667555
N	-0.857014	2.145768	1.282858
Br	3.445243	0.0	0.0
