14

C	-0.545077	-0.048525	-1.426216
C	0.0	0.0	0.0
Br	0.267694	-1.674273	-2.32522
H	1.092001	0.0	0.0
H	-0.150432	0.771501	-2.023577
N	-1.952469	-0.074051	-1.415018
H	-2.252489	-0.812635	-0.783973
H	-2.340843	-0.214316	-2.338789
N	-0.542321	-1.144121	0.761371
H	0.136296	-1.894669	0.657778
H	-0.555921	-0.903929	1.743852
C	-0.464187	1.249931	0.610534
N	-0.850568	2.23547	1.119474
Br	3.498453	0.0	0.0
