14

C	-0.431515	-0.11702	-1.472481
C	0.0	0.0	0.0
Br	-0.235862	1.603457	-2.383044
H	1.094755	0.0	0.0
H	-1.496942	-0.357649	-1.52994
N	0.327113	-1.117004	-2.180677
H	0.180348	-1.982824	-1.668151
H	1.31519	-0.887989	-2.072723
N	-0.387277	-1.263936	0.64757
H	-1.246105	-1.155317	1.172535
H	0.349902	-1.526239	1.29095
C	-0.546118	1.162992	0.700233
N	-1.04911	2.024562	1.32223
Br	3.459462	0.0	0.0
