19

C	-0.381604	0.040878	-1.477036
C	0.0	0.0	0.0
F	-0.11524	-1.209657	-2.05555
H	1.097914	0.0	0.0
C	-1.838097	0.255817	-1.659443
N	-2.989583	0.454296	-1.785116
C	0.431872	1.064714	-2.249611
H	0.273418	0.921854	-3.321409
H	1.482797	0.90503	-1.985389
H	0.142727	2.082309	-1.982157
C	-0.528085	-1.248653	0.68872
H	-1.625005	-1.271463	0.718918
H	-0.155882	-1.272379	1.716679
H	-0.170447	-2.148168	0.187011
C	-0.447126	1.264733	0.725903
H	-0.00819	2.162141	0.283829
H	-1.538131	1.375934	0.745133
H	-0.088676	1.217593	1.75782
H	2.995184	0.0	0.0
