14

C	0.0	0.0	0.0
C	-0.475093	0.069871	-1.449902
Cl	1.78232	0.0	0.0
H	0.371553	-0.16292	-2.111269
H	-0.354556	0.850366	0.5691
H	-0.342296	-0.91365	0.463919
C	-1.071788	1.412121	-1.81207
H	-1.947271	1.497781	-1.165761
H	-1.349642	1.447279	-2.865792
H	-0.328315	2.192965	-1.613184
N	-1.411645	-1.064731	-1.768081
O	-1.162392	-2.154537	-1.263673
O	-2.21377	-0.894003	-2.680404
F	-2.510932	0.0	0.0
