18

C	0.007126	-0.001	-0.003952
C	-0.4168	-0.180006	-1.486963
F	1.410376	0.016582	0.017263
H	-1.486256	-0.40566	-1.417118
N	-0.497008	1.271137	0.416234
H	-0.294805	1.312136	1.412016
H	-1.523873	1.110343	0.334967
N	-0.434903	-1.043218	0.874678
H	-1.460687	-0.929976	0.820096
H	-0.203423	-1.947769	0.478364
N	0.275285	-1.386658	-2.028349
O	-0.156144	-2.493728	-1.690216
O	1.252623	-1.234095	-2.763177
C	-0.118086	1.019934	-2.357359
H	-0.740525	1.84611	-2.020604
H	-0.337631	0.800632	-3.405654
H	0.928714	1.309094	-2.269533
F	-2.8092	0.009449	0.043455
