18

C	-0.001932	-0.000398	-0.006438
C	-0.430012	-9.9e-05	-1.498947
F	1.401452	0.018896	0.012397
H	-1.499618	-0.231431	-1.454377
N	-0.508124	1.210274	0.565201
H	-1.535067	1.056168	0.470654
H	-0.30089	1.133049	1.557794
N	-0.437379	-1.14213	0.742114
H	-1.463982	-1.029885	0.70121
H	-0.200166	-1.991905	0.241677
N	0.259047	-1.133361	-2.183936
O	1.23265	-0.893788	-2.900313
O	-0.170923	-2.272974	-1.978279
C	-0.132256	1.295737	-2.219419
H	-0.751716	2.076172	-1.782934
H	-0.356117	1.204918	-3.28565
H	0.915446	1.570475	-2.101452
F	-2.817552	-0.00535	0.054995
