19

C	-0.390855	-0.002982	-1.462887
C	0.0	0.0	0.0
F	0.190778	1.095594	-2.038278
H	1.092593	0.0	0.0
C	-0.060172	-1.215066	-2.298726
H	-0.609868	-2.090164	-1.963576
H	-0.320687	-0.990233	-3.337965
H	1.010133	-1.40389	-2.218107
N	-1.897101	0.264953	-1.516661
O	-2.302521	1.312236	-2.016082
O	-2.60555	-0.692375	-1.195852
N	-0.316404	-1.256822	0.726868
O	-1.342294	-1.310055	1.422139
O	0.23833	-2.293064	0.28145
C	-0.562172	1.180943	0.750266
H	-1.648756	1.133652	0.854197
H	-0.281955	2.098842	0.23033
H	-0.124761	1.209236	1.751346
Br	2.940686	0.0	0.0
