19

C	-0.398999	0.005854	-1.474902
C	0.0	0.0	0.0
F	0.125325	1.144746	-2.012833
H	1.092616	0.0	0.0
C	0.01809	-1.168267	-2.319283
H	-0.206787	-0.929926	-3.362057
H	-0.501905	-2.074076	-2.021882
H	1.092672	-1.304701	-2.189033
N	-1.915888	0.170871	-1.558027
O	-2.565669	-0.787544	-1.145367
O	-2.375889	1.220676	-1.990564
N	-0.416174	-1.270414	0.672788
O	0.116254	-2.308046	0.286792
O	-1.236703	-1.206059	1.587956
C	-0.519527	1.209162	0.746453
H	-0.201349	2.106735	0.216067
H	-1.606086	1.201455	0.843698
H	-0.081812	1.227792	1.74438
Br	3.436124	0.0	0.0
