13

C	0.0	0.0	0.0
C	-0.279473	0.049189	-1.521982
F	1.381793	0.0	0.0
H	0.408154	-0.704327	-1.923384
H	-0.379657	0.863823	0.541437
H	-0.374211	-0.923309	0.441053
C	0.231675	1.331789	-2.018758
N	0.637349	2.354612	-2.432228
C	-1.673388	-0.245649	-2.071464
H	-2.454439	0.370676	-1.617962
H	-1.966342	-1.262977	-1.807123
H	-1.64653	-0.149551	-3.169867
H	-3.610569	0.0	0.0
