13

C	0.0	0.0	0.0
C	-0.274492	0.007508	-1.523123
F	1.381968	0.0	0.0
H	0.351457	-0.816491	-1.892604
H	-0.381257	-0.906936	0.468883
H	-0.382427	0.881493	0.511644
C	0.334723	1.226135	-2.070774
N	0.812373	2.198723	-2.523809
C	-1.689192	-0.178477	-2.060933
H	-2.415433	0.488667	-1.595364
H	-1.669301	-0.07258	-3.15262
H	-2.055739	-1.170441	-1.801613
H	-3.685798	0.0	0.0
