18

C	0.0	0.0	0.0
C	-0.567506	0.035681	-1.421611
Cl	1.776956	0.0	0.0
H	-1.624864	0.29018	-1.264347
N	-0.398145	1.227465	0.84482
O	-0.597005	2.276679	0.251586
O	-0.402741	1.064046	2.05694
C	-0.416216	-1.184848	0.752039
N	-0.607043	-2.201984	1.310022
C	-0.513485	-1.36405	-2.029435
H	0.507136	-1.759803	-2.051474
H	-0.878519	-1.314985	-3.05837
H	-1.157077	-2.053384	-1.483322
C	0.092814	1.047028	-2.354684
H	0.088898	2.05197	-1.939872
H	1.119132	0.762877	-2.603144
H	-0.484551	1.063087	-3.283265
Br	-3.693894	0.0	0.0
