14

C	-0.52057	-0.003285	-1.420017
C	0.0	0.0	0.0
F	-0.099548	-1.243135	-1.95382
H	1.088261	0.0	0.0
H	-0.349447	-0.89812	0.509656
N	-1.9378	0.112601	-1.471664
H	-2.270061	0.007079	-2.42301
H	-2.355449	-0.595947	-0.881149
C	0.058534	1.022589	-2.313585
N	0.433178	1.767897	-3.138996
N	-0.447921	1.153389	0.749403
O	-0.38629	2.256466	0.191823
O	-0.751025	0.987787	1.94073
H	2.59667	0.0	0.0
