14

C	-0.316777	-0.133333	-1.485963
C	0.0	0.0	0.0
F	-0.376299	1.223044	-1.94888
H	1.09171	0.0	0.0
H	-0.407342	0.917795	0.410849
N	0.685069	-0.871829	-2.117055
H	0.667426	-0.782631	-3.122776
H	1.601578	-0.660789	-1.705256
C	-1.665639	-0.660755	-1.809003
N	-2.738415	-1.048875	-2.086462
N	-0.452087	-1.113619	0.82735
O	-0.519533	-2.238368	0.321957
O	-0.646767	-0.868666	2.022655
H	2.689233	0.0	0.0
