14

C	-0.305013	-0.131505	-1.492134
C	0.0	0.0	0.0
F	-0.431091	1.220848	-1.947842
H	1.089094	0.0	0.0
H	-0.420094	0.912896	0.408909
N	0.730774	-0.823905	-2.124148
H	1.637191	-0.595295	-1.696688
H	0.71835	-0.718179	-3.128651
C	-1.623853	-0.729834	-1.822649
N	-2.682734	-1.164049	-2.082445
N	-0.465602	-1.121897	0.809542
O	-0.433058	-2.251837	0.317197
O	-0.796948	-0.873069	1.974438
H	2.703806	0.0	0.0
