14

C	-0.307585	-0.1301	-1.480515
C	0.0	0.0	0.0
F	-0.024617	1.094321	-2.112664
H	1.089024	0.0	0.0
H	-0.328613	-0.881721	0.550129
N	0.535803	-1.172828	-1.934199
H	0.529084	-1.22252	-2.945459
H	1.485896	-0.987173	-1.5854
C	-1.720355	-0.43361	-1.81464
N	-2.819872	-0.760237	-2.065704
N	-0.584749	1.17425	0.657987
O	-0.175602	1.413689	1.793901
O	-1.44602	1.83304	0.068131
H	2.733011	0.0	0.0
