14

C	-0.353285	0.06484	-1.481822
C	0.0	0.0	0.0
F	-0.249694	1.422566	-1.797846
H	1.090573	0.0	0.0
H	-0.394482	0.833343	0.575984
N	0.541131	-0.650515	-2.336049
H	0.290262	-1.629969	-2.318674
H	1.472258	-0.561481	-1.915319
C	-1.758451	-0.313866	-1.768738
N	-2.879917	-0.570673	-1.998769
N	-0.41347	-1.238564	0.630888
O	-0.493288	-1.250014	1.863258
O	-0.561999	-2.243659	-0.084146
H	2.637909	0.0	0.0
