16

C	0.0	0.0	0.0
C	-0.253706	-0.05794	-1.560805
Br	2.031133	0.0	0.0
H	0.603201	-0.591942	-1.977187
N	-0.636473	1.085852	0.605117
H	-0.507962	1.024332	1.611212
H	-1.695996	0.806872	0.385791
C	-0.290529	-1.326038	0.582025
N	-0.46136	-2.396308	1.040036
C	-0.168536	1.305703	-2.09187
N	-0.12136	2.345224	-2.636807
C	-1.492306	-0.778227	-2.112126
H	-1.396749	-0.797862	-3.203514
H	-2.403331	-0.300799	-1.765897
H	-1.499688	-1.805238	-1.740639
F	-2.814143	0.0	0.0
