16

C	0.0	0.0	0.0
C	-0.534051	-0.039918	-1.447418
Br	1.957276	0.0	0.0
H	-1.627866	-0.148486	-1.232635
N	-0.558787	1.140322	0.654467
H	-0.32202	1.095752	1.641022
H	-1.594406	0.916767	0.542104
C	-0.327393	-1.28073	0.671002
N	-0.533618	-2.275728	1.263003
C	-0.037672	-1.196655	-2.179113
N	0.359875	-2.099323	-2.819226
C	-0.270294	1.255385	-2.21128
H	-0.717992	2.082654	-1.664113
H	-0.726207	1.192165	-3.202362
H	0.800028	1.44135	-2.328316
F	-2.783715	0.0	0.0
