16

C	0.0	0.0	0.0
C	-0.222528	0.03062	-1.593938
Br	1.974474	0.0	0.0
H	0.573882	-0.586236	-2.019635
N	-0.629849	0.976226	0.783582
H	-1.677375	0.695304	0.622323
H	-0.457824	1.888718	0.369752
C	-0.371877	-1.346174	0.467513
N	-0.583039	-2.441773	0.834834
C	0.040683	1.404269	-2.02844
N	0.212654	2.509054	-2.390256
C	-1.539409	-0.465503	-2.196976
H	-2.383259	0.097812	-1.808736
H	-1.701419	-1.503626	-1.901247
H	-1.440436	-0.411506	-3.287755
F	-2.828395	0.0	0.0
