16

C	0.0	0.0	0.0
C	-0.51925	-0.012036	-1.464745
Br	1.96575	0.0	0.0
H	-1.609411	-0.158891	-1.248389
N	-0.534151	1.046573	0.813008
H	-1.568767	0.853171	0.691988
H	-0.300754	1.936774	0.386486
C	-0.35081	-1.292071	0.620457
N	-0.547163	-2.333008	1.128156
C	0.021581	-1.117038	-2.240958
N	0.444483	-1.983852	-2.913915
C	-0.314427	1.317969	-2.186346
H	-0.647013	1.228827	-3.223009
H	-0.925476	2.087074	-1.709644
H	0.73612	1.625613	-2.185236
F	-2.753424	0.0	0.0
