16

C	0.0	0.0	0.0
C	-0.512901	0.028395	-1.443354
Br	1.987833	0.0	0.0
H	0.136464	0.734334	-1.975732
N	-0.366554	1.186235	0.705522
H	-0.241429	1.998278	0.117362
H	0.157029	1.285661	1.563134
C	-0.390818	-1.197896	0.750573
N	-0.552243	-2.195179	1.351135
C	-1.910809	0.566824	-1.568402
N	-2.563246	1.152966	-2.375968
C	-0.398014	-1.33365	-2.117892
H	0.622882	-1.723533	-2.059445
H	-0.675997	-1.227673	-3.168393
H	-1.082744	-2.03908	-1.644616
F	-2.547551	0.0	0.0
