16

C	0.0	0.0	0.0
C	-0.435215	0.008969	-1.513113
Br	1.96269	0.0	0.0
H	0.47568	0.137794	-2.105417
N	-0.496312	1.144108	0.692484
H	-0.239213	1.066262	1.673022
H	-1.537986	0.953327	0.58709
C	-0.345155	-1.282641	0.647958
N	-0.506423	-2.281239	1.247701
C	-1.253557	1.180666	-1.83897
N	-1.770029	2.139625	-2.279531
C	-1.133947	-1.274625	-1.967444
H	-0.491257	-2.143286	-1.804146
H	-2.05102	-1.345591	-1.383226
H	-1.356862	-1.206882	-3.036069
F	-2.629312	0.0	0.0
