16

C	0.0	0.0	0.0
C	-0.416372	-0.029475	-1.53651
Br	1.969757	0.0	0.0
H	0.501545	0.047459	-2.129679
N	-0.48059	1.0786	0.801674
H	-1.519813	0.90108	0.697923
H	-0.247436	1.951784	0.337546
C	-0.368685	-1.266363	0.650472
N	-0.535291	-2.307536	1.168129
C	-1.178014	1.181064	-1.857027
N	-1.648142	2.187514	-2.24054
C	-1.173	-1.288181	-1.970591
H	-2.086691	-1.318493	-1.375224
H	-0.556733	-2.176282	-1.803019
H	-1.403442	-1.221456	-3.038253
F	-2.617411	0.0	0.0
