16

C	0.0	0.0	0.0
C	-0.518423	0.009587	-1.465509
Br	1.965241	0.0	0.0
H	-1.611307	-0.121832	-1.251548
N	-0.537315	1.034567	0.827219
H	-1.571824	0.83774	0.701977
H	-0.308106	1.93037	0.410066
C	-0.353454	-1.300467	0.600756
N	-0.546696	-2.352984	1.086009
C	0.003273	-1.100372	-2.249452
N	0.420051	-1.970061	-2.923233
C	-0.286743	1.338779	-2.180252
H	-0.654787	1.271818	-3.205934
H	-0.851352	2.127439	-1.679799
H	0.773305	1.606269	-2.209769
F	-2.755797	0.0	0.0
