16

C	0.0	0.0	0.0
C	-0.247574	0.012082	-1.562982
Br	2.021464	0.0	0.0
H	0.590705	-0.539705	-1.994653
N	-0.643971	1.058235	0.646191
H	-0.515275	0.960824	1.649596
H	-1.704153	0.778865	0.416182
C	-0.293673	-1.350846	0.524506
N	-0.490918	-2.417417	0.980107
C	-0.101585	1.391902	-2.037843
N	0.003939	2.452407	-2.531936
C	-1.50986	-0.63056	-2.153351
H	-1.398992	-0.617836	-3.243638
H	-1.573449	-1.66785	-1.816377
H	-2.405983	-0.128901	-1.80441
F	-2.823644	0.0	0.0
