14
Coordinates from ORCA-job run
  C   -0.49958297444936     -0.10193878020554      0.33647566897612
  C   0.98967055860753     -0.24187805986676      0.06309692592211
  Br  -1.33585162612332     -1.78618869945155      0.66936639033819
  H   1.44563074884212     -0.75757778006383      0.91297118568456
  H   1.39506807660337      0.77018897598596      0.02305437870467
  N   -1.12667688420172      0.62113184984312     -0.85589324927557
  O   -1.97610242953092      0.06685020995618     -1.52532038669102
  O   -0.65571692226820      1.74114587105437     -1.01674587621161
  N   -0.78329708360322      0.80060355684432      1.52693866762930
  O   0.13957964215920      0.96341230339032      2.31616351737029
  O   -1.91246677952745      1.26317659750822      1.60044953614525
  N   1.14563204207940     -0.88365765474804     -1.22864722854367
  H   1.98859414736905     -0.56592203477999     -1.68455617137246
  H   1.18651948404350     -1.88934635546676     -1.13835335867616
