16

C	-0.507581	-0.120209	-1.427569
C	0.0	0.0	0.0
Cl	0.08888	1.301388	-2.359514
H	1.100531	0.0	0.0
H	-0.041037	-0.985687	-1.892964
C	-2.018983	-0.165485	-1.521746
H	-2.347932	-0.17178	-2.563614
H	-2.382874	-1.073385	-1.034854
H	-2.432343	0.711375	-1.022552
N	-0.342246	-1.188974	0.7395
O	-0.32867	-2.275693	0.12601
O	-0.487154	-1.110186	1.977104
N	-0.438108	1.207581	0.665043
H	0.407497	1.745683	0.84612
H	-0.800975	0.932137	1.570784
H	2.474244	0.0	0.0
