16

C	-0.561506	-0.048344	-1.412435
C	0.0	0.0	0.0
Cl	0.3471	-1.230518	-2.440487
H	1.096988	0.0	0.0
H	-1.591621	-0.418623	-1.414805
C	-0.450157	1.307207	-2.086825
H	0.591401	1.63707	-2.069718
H	-1.049203	2.038976	-1.549482
H	-0.790403	1.241157	-3.122758
N	-0.427615	-1.151326	0.793943
O	-0.770464	-2.192104	0.211569
O	-0.344993	-1.057064	2.031441
N	-0.278414	1.242785	0.686418
H	-0.971765	1.089878	1.407151
H	0.589019	1.500228	1.156341
H	2.510824	0.0	0.0
