16

C	-0.343182	0.00863	-1.478268
C	0.0	0.0	0.0
Cl	-2.139739	0.177042	-1.749098
H	1.09228	0.0	0.0
H	0.076598	0.948952	-1.843939
C	0.205516	-1.139856	-2.293574
H	-0.293474	-2.076961	-2.053485
H	1.267666	-1.231104	-2.045175
H	0.086634	-0.931774	-3.360261
N	-0.508499	-1.250731	0.638879
O	-1.434353	-1.180469	1.447918
O	0.040203	-2.304507	0.301751
N	-0.406666	1.141115	0.74854
H	-1.26092	1.560835	0.409749
H	0.359316	1.802779	0.755506
H	2.710762	0.0	0.0
