16

C	-0.33906	-0.078466	-1.476722
C	0.0	0.0	0.0
Cl	-2.134398	0.087567	-1.766268
H	1.092337	0.0	0.0
H	0.089258	0.834904	-1.897195
C	0.203652	-1.277744	-2.219017
H	0.091946	-1.132386	-3.296692
H	-0.304586	-2.194637	-1.926211
H	1.263668	-1.362721	-1.959469
N	-0.511708	-1.209584	0.710671
O	0.039063	-2.281315	0.44094
O	-1.443104	-1.091431	1.507925
N	-0.406807	1.184677	0.678105
H	0.36035	1.844426	0.645789
H	-1.258389	1.585459	0.311637
H	2.708416	0.0	0.0
