16

C	-0.435315	0.013442	-1.445686
C	0.0	0.0	0.0
Cl	-2.252871	-0.092117	-1.577728
H	1.101765	0.0	0.0
H	-0.20609	1.028476	-1.769431
C	0.22459	-0.986069	-2.369516
H	1.298232	-0.963095	-2.157596
H	-0.142182	-1.995204	-2.197741
H	0.043523	-0.705285	-3.41058
N	-0.388975	-1.264118	0.692662
O	-0.904786	-1.187275	1.815643
O	-0.102888	-2.330653	0.145919
N	-0.42793	1.171577	0.701356
H	-1.340565	1.023884	1.111678
H	0.238418	1.330043	1.448052
H	2.65131	0.0	0.0
