16

C	-0.472078	-0.047459	-1.451129
C	0.0	0.0	0.0
Cl	-0.03827	1.511207	-2.25023
H	1.089398	0.0	0.0
H	0.113593	-0.803854	-1.970262
C	-1.961607	-0.282537	-1.63649
H	-2.221176	-1.266223	-1.242713
H	-2.549598	0.479509	-1.117468
H	-2.225019	-0.24812	-2.69655
N	-0.346656	-1.303984	0.631182
O	-0.252451	-2.307904	-0.095562
O	-0.556694	-1.355099	1.842069
N	-0.45424	1.096044	0.793649
H	-1.10176	1.688445	0.295648
H	0.359048	1.645658	1.047581
H	2.616164	0.0	0.0
