15

C	-0.549439	0.002533	-1.424785
C	0.0	0.0	0.0
Cl	0.148949	1.390682	-2.273523
H	1.09284	0.0	0.0
N	-0.09764	-1.251127	-2.198034
O	0.88707	-1.829568	-1.776552
O	-0.753087	-1.502327	-3.201127
C	-2.004828	0.077212	-1.4816
N	-3.174417	0.194715	-1.502556
N	-0.469496	-1.212254	0.75714
O	-1.145757	-2.03836	0.144498
O	-0.126157	-1.277106	1.928512
C	-0.467724	1.178453	0.715699
N	-0.856322	2.13319	1.279789
Br	3.271175	0.0	0.0
