15

C	-0.37897	-0.05018	-1.483476
C	0.0	0.0	0.0
Cl	0.357397	-1.452983	-2.231689
H	1.090747	0.0	0.0
N	-1.925567	-0.062878	-1.709982
O	-2.51004	0.829492	-1.114187
O	-2.401241	-0.886351	-2.466238
C	0.080237	1.16771	-2.142703
N	0.37971	2.152295	-2.713687
N	-0.504134	-1.204295	0.741279
O	0.089061	-1.485672	1.773481
O	-1.486242	-1.783459	0.276879
C	-0.439805	1.19416	0.700681
N	-0.723572	2.163174	1.302871
Br	3.249658	0.0	0.0
