15

C	-0.566414	0.053137	-1.420665
C	0.0	0.0	0.0
Cl	0.051418	1.519438	-2.20247
H	1.1024	0.0	0.0
N	-0.080595	-1.128683	-2.284373
O	0.980829	-1.631809	-1.971798
O	-0.796379	-1.395052	-3.240362
C	-2.024614	0.060088	-1.436273
N	-3.197888	0.101472	-1.385689
N	-0.446456	-1.252732	0.704474
O	-0.945516	-2.140899	0.01509
O	-0.240107	-1.296551	1.909022
C	-0.485565	1.140432	0.761591
N	-0.909647	2.06312	1.351765
Br	3.273569	0.0	0.0
