15

C	-0.469644	-0.001128	-1.45783
C	0.0	0.0	0.0
Cl	0.540424	-0.996268	-2.479495
H	1.098992	0.0	0.0
N	-1.963341	-0.476177	-1.544415
O	-2.667177	-0.06212	-0.6357
O	-2.300513	-1.146055	-2.50161
C	-0.499619	1.36157	-1.982357
N	-0.536471	2.460922	-2.399306
N	-0.377953	-1.275035	0.70294
O	-0.251012	-1.273455	1.91904
O	-0.725965	-2.224031	0.006102
C	-0.475324	1.135687	0.768641
N	-0.810035	2.070151	1.39771
Br	3.231621	0.0	0.0
