15

C	-0.563858	-0.187285	-1.40798
C	0.0	0.0	0.0
Cl	-2.30132	-0.51202	-1.367385
H	1.115112	0.0	0.0
N	-0.326939	1.155188	-2.183917
O	0.752182	1.67642	-1.957246
O	-1.191516	1.518126	-2.961235
C	0.115606	-1.203344	-2.20242
N	0.59818	-1.972034	-2.9508
N	-0.326791	-1.194364	0.854711
O	-0.356578	-2.279925	0.287233
O	-0.451036	-0.997059	2.057376
C	-0.529406	1.204839	0.610941
N	-0.97326	2.19908	1.052486
Br	3.225313	0.0	0.0
