15

C	-0.546949	0.005613	-1.426976
C	0.0	0.0	0.0
Cl	0.155124	1.394412	-2.272057
H	1.09289	0.0	0.0
N	-0.094616	-1.246353	-2.204848
O	-0.726453	-1.474734	-3.227173
O	0.866601	-1.847442	-1.765606
C	-2.003119	0.080543	-1.489928
N	-3.172351	0.202349	-1.513318
N	-0.47099	-1.214573	0.75381
O	-1.158953	-2.030586	0.143238
O	-0.118985	-1.287449	1.921381
C	-0.469978	1.175883	0.717769
N	-0.863976	2.128617	1.28187
Br	3.266085	0.0	0.0
