15

C	-0.525988	-0.026694	-1.435184
C	0.0	0.0	0.0
Cl	-2.272076	-0.323196	-1.474544
H	1.109828	0.0	0.0
N	-0.259209	1.376698	-2.072048
O	-0.973551	1.696701	-3.00731
O	0.69137	1.985697	-1.607188
C	0.16331	-0.96783	-2.309499
N	0.678758	-1.667931	-3.100445
N	-0.343118	-1.287597	0.698578
O	-0.54012	-1.230198	1.905984
O	-0.321591	-2.302511	0.011333
C	-0.547582	1.120331	0.740317
N	-1.007626	2.03799	1.311898
Br	3.23069	0.0	0.0
