15

C	-0.568971	0.058331	-1.416629
C	0.0	0.0	0.0
Cl	0.042898	1.525723	-2.197244
H	1.104724	0.0	0.0
N	-0.084174	-1.120631	-2.284844
O	0.955831	-1.656892	-1.952471
O	-0.777514	-1.352501	-3.266332
C	-2.027516	0.062914	-1.428026
N	-3.2006	0.105803	-1.372535
N	-0.45132	-1.250339	0.70731
O	-0.971287	-2.13	0.020811
O	-0.228767	-1.300838	1.908058
C	-0.465582	1.144553	0.769119
N	-0.847614	2.076579	1.373856
Br	3.26157	0.0	0.0
