17

C	0.0	0.0	0.0
C	-0.567724	-0.073841	-1.430456
F	1.367909	0.0	0.0
H	-1.674179	-0.184562	-1.262327
N	-0.424945	1.228277	0.625489
H	-0.080698	2.036682	0.120509
H	-1.453036	1.202385	0.598297
N	-0.486983	-1.126866	0.722536
H	-0.308716	-0.904555	1.697337
H	-1.513255	-1.081789	0.60715
N	-0.059673	-1.154843	-2.322443
O	0.193931	-0.851567	-3.491818
O	0.001425	-2.286027	-1.858171
N	-0.355328	1.201983	-2.172013
O	-1.335004	1.698306	-2.72174
O	0.782218	1.672816	-2.183963
H	-2.943511	0.0	0.0
