17

C	0.0	0.0	0.0
C	-0.558842	0.082911	-1.432641
F	1.375138	0.0	0.0
H	-1.667469	0.173518	-1.269594
N	-0.487463	1.120669	0.727944
H	-1.515003	1.069091	0.620145
H	-0.294256	0.903237	1.701799
N	-0.420235	-1.235052	0.613075
H	-1.448588	-1.216716	0.580832
H	-0.063064	-2.038336	0.107277
N	-0.311007	-1.180138	-2.187075
O	0.839102	-1.617782	-2.203843
O	-1.276829	-1.701569	-2.736633
N	-0.070009	1.185849	-2.309451
O	0.187533	0.900728	-3.482429
O	-0.032491	2.313276	-1.833801
H	-2.938419	0.0	0.0
