12

C	0.0	0.0	0.0
C	-0.225032	-0.161289	-1.544174
Cl	1.791607	0.0	0.0
H	0.32955	0.666629	-1.995634
H	0.316329	-1.074226	-1.810751
C	-0.437798	1.289414	0.52975
N	-0.530334	2.386631	0.943292
C	-0.445268	-1.150856	0.784
N	-0.505765	-2.146237	1.409347
C	-1.519169	-0.222869	-2.225565
N	-2.218682	-0.306957	-3.171307
Cl	-2.944572	0.0	0.0
