12

C	0.0	0.0	0.0
C	-0.499259	0.292245	-1.42823
Cl	1.788229	0.0	0.0
H	-0.142731	-0.503443	-2.082841
H	-1.603051	0.270007	-1.352558
C	-0.42391	1.015043	0.972669
N	-0.630557	1.791232	1.830041
C	-0.411626	-1.340137	0.430492
N	-0.685427	-2.415259	0.812735
C	-0.026819	1.585881	-1.908875
N	0.349464	2.614704	-2.32987
Cl	-3.305892	0.0	0.0
