12

C	0.0	0.0	0.0
C	-0.497999	0.261933	-1.430482
Cl	1.788202	0.0	0.0
H	-0.165204	-0.563431	-2.065761
H	-1.60003	0.259028	-1.358202
C	-0.413933	1.048241	0.939625
N	-0.588913	1.887622	1.74287
C	-0.427384	-1.328001	0.454959
N	-0.568945	-2.444856	0.792987
C	-0.003241	1.524324	-1.960981
N	0.386731	2.532844	-2.419099
Cl	-3.286364	0.0	0.0
