12

C	0.0	0.0	0.0
C	-0.48217	-0.272473	-1.437164
Cl	1.788308	0.0	0.0
H	-1.584369	-0.242661	-1.388583
H	-0.109014	0.527523	-2.080753
C	-0.395187	1.341155	0.439542
N	-0.582225	2.440824	0.807059
C	-0.440361	-1.032977	0.946188
N	-0.667165	-1.859187	1.750093
C	-0.002946	-1.557272	-1.931867
N	0.391646	-2.577903	-2.356849
Cl	-3.276619	0.0	0.0
