12

C	0.0	0.0	0.0
C	-0.440059	0.268328	-1.454071
Cl	1.788231	0.0	0.0
H	-0.02013	-0.529075	-2.080856
H	-1.539966	0.221287	-1.46153
C	-0.422092	1.041082	0.939263
N	-0.61396	1.838285	1.780538
C	-0.411739	-1.330396	0.439488
N	-0.66922	-2.390492	0.86966
C	0.044639	1.553704	-1.93225
N	0.426801	2.580893	-2.354673
Cl	-3.220101	0.0	0.0
