12

C	0.0	0.0	0.0
C	-0.21542	0.176774	-1.549503
Cl	1.79136	0.0	0.0
H	0.363264	-0.632695	-2.003223
H	0.310011	1.104911	-1.795562
C	-0.431311	1.148593	0.794138
N	-0.51336	2.127899	1.439962
C	-0.438616	-1.291467	0.52116
N	-0.512575	-2.388482	0.940403
C	-1.498771	0.219047	-2.25551
N	-2.172174	0.281296	-3.22189
Cl	-2.908556	0.0	0.0
