12

C	0.0	0.0	0.0
C	-0.232171	0.324877	-1.516067
Cl	1.791249	0.0	0.0
H	0.425841	-0.363346	-2.053481
H	0.190339	1.323994	-1.656599
C	-0.4477	1.051706	0.911306
N	-0.504344	1.968112	1.64769
C	-0.426826	-1.343706	0.390551
N	-0.5185	-2.473074	0.708404
C	-1.51372	0.275732	-2.220011
N	-2.202068	0.300878	-3.176068
Cl	-2.932329	0.0	0.0
