17

C	-0.471367	-0.054073	-1.45496
C	0.0	0.0	0.0
F	-0.024035	1.143282	-2.056734
H	1.093794	0.0	0.0
C	0.177118	-1.19779	-2.19432
H	-0.088688	-1.14229	-3.254632
H	-0.15294	-2.144642	-1.772342
H	1.259777	-1.111957	-2.088714
N	-1.900523	-0.11372	-1.50666
H	-2.27848	0.768141	-1.175463
H	-2.19882	-0.241492	-2.466723
N	-0.428086	-1.209462	0.691484
H	0.094309	-1.296991	1.554741
H	-1.419016	-1.164842	0.894114
C	-0.506069	1.236387	0.626598
N	-0.988679	2.162655	1.166243
Br	3.541916	0.0	0.0
