17

C	-0.275671	-0.103687	-1.503779
C	0.0	0.0	0.0
F	-1.639929	-0.280544	-1.745246
H	1.10409	0.0	0.0
C	0.158697	1.14828	-2.241611
H	0.025197	0.995961	-3.316659
H	-0.436828	2.008786	-1.932126
H	1.213873	1.340758	-2.032297
N	0.373605	-1.31789	-1.942207
H	0.295092	-1.388003	-2.951734
H	1.361993	-1.258595	-1.697777
N	-0.550678	-1.150394	0.726086
H	-0.561113	-1.9184	0.060203
H	0.128663	-1.398448	1.438838
C	-0.527427	1.246626	0.555446
N	-0.96533	2.241527	0.998895
Br	3.490242	0.0	0.0
