17

C	-0.347116	-0.04536	-1.496979
C	0.0	0.0	0.0
F	-1.748701	-0.141911	-1.586564
H	1.094856	0.0	0.0
C	0.100904	1.206708	-2.211366
H	1.163846	1.371236	-2.028229
H	-0.459056	2.069491	-1.848348
H	-0.078092	1.084577	-3.279325
N	0.202911	-1.214877	-2.115749
H	0.104176	-1.973084	-1.446412
H	1.202457	-1.059597	-2.239069
N	-0.445335	-1.229847	0.649426
H	-1.412416	-1.152854	0.93196
H	0.124452	-1.395037	1.46679
C	-0.5101	1.212491	0.650805
N	-0.925829	2.159801	1.209339
Br	3.46688	0.0	0.0
