12

C	-0.489774	0.030356	-1.42894
C	0.0	0.0	0.0
Cl	-2.292308	0.093355	-1.512
H	1.092676	0.0	0.0
H	-0.12939	0.938025	-1.913792
H	-0.397727	-0.842209	0.562229
C	-0.041622	-1.148781	-2.162739
N	0.280645	-2.113219	-2.750866
N	-0.429141	1.234609	0.704748
O	-0.400608	2.289232	0.073652
O	-0.744632	1.124332	1.886729
Cl	3.248087	0.0	0.0
