12

C	-0.589318	0.025721	-1.397399
C	0.0	0.0	0.0
Cl	0.130777	-1.238717	-2.431737
H	1.087926	0.0	0.0
H	-1.656945	-0.192396	-1.354224
H	-0.345173	0.86997	0.566834
C	-0.400107	1.337489	-2.010164
N	-0.268785	2.396236	-2.500158
N	-0.509248	-1.184405	0.757425
O	0.101052	-1.483049	1.775674
O	-1.531003	-1.744894	0.352972
Cl	3.302474	0.0	0.0
