12

C	-0.485764	0.025231	-1.430485
C	0.0	0.0	0.0
Cl	-2.285734	0.10312	-1.518894
H	1.09265	0.0	0.0
H	-0.11416	0.925515	-1.920679
H	-0.399266	-0.839014	0.565658
C	-0.043437	-1.161748	-2.156353
N	0.275084	-2.112113	-2.768348
N	-0.428	1.238556	0.696537
O	-0.751907	1.136184	1.877079
O	-0.392303	2.289446	0.059809
Cl	3.243382	0.0	0.0
