14

C	-0.413411	-0.065003	-1.475957
C	0.0	0.0	0.0
Cl	0.04862	1.505157	-2.234957
H	1.093703	0.0	0.0
H	-0.366745	0.916632	0.468579
C	0.340392	-1.188608	-2.174271
H	0.140312	-1.182873	-3.247505
H	1.40495	-1.040395	-1.970958
H	0.028218	-2.146788	-1.751918
C	-1.862291	-0.198358	-1.650741
N	-3.023119	-0.334252	-1.779978
C	-0.48935	-1.161312	0.723208
N	-0.866103	-2.113054	1.301832
H	2.753003	0.0	0.0
