14

C	-0.395641	0.043052	-1.465077
C	0.0	0.0	0.0
Cl	-2.196641	0.342941	-1.65151
H	1.095041	0.0	0.0
H	-0.311367	0.936943	0.471569
C	0.372246	1.16311	-2.145783
H	1.436886	0.987608	-1.951651
H	0.087074	2.117818	-1.698619
H	0.165035	1.190373	-3.216577
C	-0.132861	-1.236414	-2.124955
N	0.093168	-2.261752	-2.652653
C	-0.552275	-1.123897	0.729972
N	-0.978282	-2.034403	1.338393
H	2.713858	0.0	0.0
