14

C	-0.54567	0.01661	-1.431118
C	0.0	0.0	0.0
Cl	0.056883	-1.463259	-2.26742
H	1.092878	0.0	0.0
H	-0.32541	-0.93122	0.476186
C	-2.070486	-0.001561	-1.497913
H	-2.468988	0.896821	-1.020633
H	-2.444109	-0.881529	-0.970011
H	-2.410304	-0.038812	-2.535319
C	-0.049069	1.182382	-2.170231
N	0.298658	2.158112	-2.726228
C	-0.513284	1.129872	0.755479
N	-0.926157	2.045092	1.36865
H	2.712177	0.0	0.0
