14

C	-0.380362	0.067406	-1.471039
C	0.0	0.0	0.0
Cl	-2.164566	0.422336	-1.683696
H	1.094937	0.0	0.0
H	-0.310784	0.933485	0.479746
C	0.433558	1.167462	-2.134194
H	0.161192	2.128229	-1.69211
H	0.252139	1.2005	-3.209537
H	1.489721	0.965817	-1.909776
C	-0.145792	-1.214349	-2.139061
N	0.050782	-2.242394	-2.672602
C	-0.564937	-1.12894	0.712008
N	-1.004474	-2.042331	1.307165
H	2.720738	0.0	0.0
