14

C	-0.360429	0.055551	-1.478748
C	0.0	0.0	0.0
Cl	-2.165687	0.18897	-1.746466
H	1.095006	0.0	0.0
H	-0.3615	-0.91802	0.46907
C	0.33868	1.22968	-2.143539
H	0.165793	1.232592	-3.221143
H	1.408154	1.130704	-1.915249
H	-0.033856	2.161492	-1.713787
C	0.034523	-1.205615	-2.114163
N	0.31892	-2.218901	-2.6366
C	-0.487906	1.160181	0.720781
N	-0.85494	2.107187	1.312639
H	2.703556	0.0	0.0
