14

C	-0.520718	0.04252	-1.437877
C	0.0	0.0	0.0
Cl	0.073353	-1.401033	-2.337504
H	1.092785	0.0	0.0
H	-0.30131	0.929279	0.49849
C	-2.044405	0.054223	-1.53933
H	-2.360122	0.094904	-2.584093
H	-2.436958	0.92719	-1.011505
H	-2.442625	-0.851352	-1.079062
C	0.004629	1.238621	-2.106688
N	0.304391	2.231629	-2.659345
C	-0.549834	-1.127334	0.728322
N	-0.986713	-2.041741	1.325475
H	2.702347	0.0	0.0
