15
Coordinates from ORCA-job run
  C   -0.86308543865820     -0.26283813038967      0.73911860862291
  C   0.55015916978645      0.19926683773727      0.40405520870329
  F   -1.46879536824113      0.81113707711017      1.42858724555157
  H   1.06296661439439      0.42471492283241      1.33923535714252
  H   -0.79079575649980     -1.07374242574119      1.46950785347008
  N   -1.60464413226056     -0.70414782653086     -0.37284069097699
  H   -1.70035103363553      0.02859517237853     -1.06324334950108
  H   -2.51340733547212     -1.04552587593469     -0.09243029907677
  N   0.49555857628130      1.51994023114938     -0.30531143129946
  O   1.12121400515439      2.45300137499648      0.18717954449433
  O   -0.15051404785388      1.56970489361472     -1.35252070008196
  C   1.32350855518987     -0.79074685383341     -0.44417285629560
  H   1.37172413433009     -1.75235978578602      0.07098575927555
  H   2.34250873887773     -0.43529473860059     -0.60971289192342
  H   0.82395331860701     -0.94070487300251     -1.39943735810498
