15
Coordinates from ORCA-job run
  C   -0.86920297033885     -0.62041827825211      0.07414009122701
  C   0.40210074259686      0.17492656946390      0.33396869506909
  F   -0.85506781091125     -1.66355835727200      0.98802319623348
  H   0.36469882798755      0.52096023930268      1.36773188239070
  H   -0.84801287589417     -1.08162728032736     -0.92047107033809
  N   -2.03620713359619      0.17356413218204      0.35604080858896
  H   -2.82996332448629     -0.44925105477687      0.45011746498501
  H   -2.21580913887512      0.79086994099978     -0.42645061013779
  N   0.40601397859672      1.41300684601613     -0.50391152419907
  O   -0.19022928776360      1.37198190133882     -1.58282236992643
  O   1.05181699962867      2.36753431249118     -0.08548212317804
  C   1.67197479643439     -0.60291846521639      0.03921530114054
  H   1.68372119968369     -1.51114746960061      0.64183307601158
  H   2.54951120946464     -0.00406589052805      0.28616912073280
  H   1.71465478747296     -0.87885714582115     -1.01710193859973
