15
Coordinates from ORCA-job run
  C   -0.97334250199990     -0.24379568130626      0.58702657254687
  C   0.46724341256945      0.24476682944681      0.47859938865092
  F   -1.70830682809313      0.82876117927214      1.13829154968589
  H   0.78080357967684      0.57676264715766      1.46845444449650
  H   -1.00564008189913     -1.04052684523826      1.33583136089809
  N   -1.50473534862308     -0.72882530979366     -0.61754576015874
  H   -1.48048722189223     -0.04143279897190     -1.35736495144013
  H   -2.43753586103999     -1.09411956439832     -0.49408420111535
  N   0.50540256683555      1.50161680986891     -0.34169454701711
  O   0.22648184173487      1.40314354605186     -1.53855050939060
  O   0.84475164711529      2.53698641741562      0.22331706322537
  C   1.40061069533563     -0.78834925194520     -0.11608297528409
  H   1.36735528493145     -1.69702450332502      0.48904096594878
  H   2.42830560057810     -0.42021544274370     -0.12422979293775
  H   1.08909321477030     -1.03574803149070     -1.12900860810864
