15
Coordinates from ORCA-job run
  C   -1.07927766327726     -0.02449431794745     -0.00460427112729
  C   0.40581992622338      0.15771597188664      0.29634842991989
  F   -1.32003872913709      0.08312936089360     -1.35722373863063
  H   0.62813213577478     -0.27320898934022      1.27459261141166
  H   -1.67163185231520      0.77118633336163      0.46593064035493
  N   -1.44573215135914     -1.36874011561656      0.36994939193807
  H   -1.44054924456811     -1.46691290933803      1.37795966076316
  H   -2.38492480956995     -1.55644227411194      0.03966308413615
  N   0.73551877941122      1.61012674200080      0.44024850276413
  O   1.51377396329649      1.91977605514020      1.34102506858790
  O   0.23560136424704      2.38285839968974     -0.37442428699409
  C   1.29772884753735     -0.44472104605192     -0.77362952623486
  H   1.14512385219656      0.07131513625122     -1.72071840508267
  H   2.34524319029311     -0.36513560637746     -0.47842293174322
  H   1.03521239124682     -1.49545274044026     -0.89669423006314
