15
Coordinates from ORCA-job run
  C   -0.90352463851408     -0.52277474635242     -0.13996149718035
  C   0.40889831535694      0.10747260726341      0.30691623790142
  F   -0.93855926558079     -1.79591617801849      0.46925473730446
  H   0.37070732253390      0.28838215246476      1.38322040589007
  H   -0.89758052562957     -0.69908668051639     -1.21683264566137
  N   -1.99778913444769      0.29309263560866      0.20294256565505
  H   -2.87005482554025     -0.06557941262723     -0.15916955885844
  H   -2.07007154068508      0.43202964362541      1.20234791208403
  N   0.47868466420645      1.46190096351095     -0.32233419942098
  O   0.54918750961943      1.49206379293600     -1.54884125793899
  O   0.45897349142643      2.43827195907058      0.42173275490009
  C   1.62772630482411     -0.70499344451887     -0.08035883530749
  H   1.58296447865803     -1.67663799031935      0.41061017300098
  H   1.65722983658248     -0.85126026755024     -1.16055482699330
  H   2.54220800718970     -0.19596503457677      0.23002803462483
