15
Coordinates from ORCA-job run
  C   -1.06199642923282      0.03657129131165      0.08287437590891
  C   0.44187215203039      0.17209411143172      0.30631110277845
  F   -1.35231655687013      0.40881970758181     -1.21635866107211
  H   0.66379811931273     -0.14118294993484      1.33082668417223
  H   -1.59746561817318      0.74537487188319      0.72519309432654
  N   -1.45190677338542     -1.34054286014303      0.22917713789090
  H   -2.43545030375416     -1.42881519957169      0.00188138635243
  H   -1.32553695111329     -1.63708255503660      1.18972710797207
  N   0.74591296865466      1.64809958366481      0.30716981931207
  O   1.43616745400070      2.10813004056288     -0.59645799385107
  O   0.25307428285482      2.29380057440686      1.23093686731258
  C   1.27151393368715     -0.57534783901622     -0.71028029163162
  H   1.01521805557477     -1.63310763857614     -0.65827148913828
  H   2.33515638153069     -0.44680928699233     -0.50933832160121
  H   1.06095928488310     -0.21100185157208     -1.71339081873188
