13

C	0.0	0.0	0.0
C	-0.619226	0.351601	-1.340241
Cl	1.790459	0.0	0.0
H	-0.352687	-0.385616	-2.103641
H	-0.312309	-1.018838	0.228107
H	-1.726315	0.268838	-1.06457
C	-0.491627	0.926954	1.096798
H	-1.585533	0.848478	1.046487
H	-0.153659	1.950713	0.912917
H	-0.112817	0.603861	2.070081
C	-0.269815	1.680375	-1.813362
N	-0.002776	2.753908	-2.211721
F	-2.913163	0.0	0.0
