13

C	0.0	0.0	0.0
C	-0.400543	0.219678	-1.460942
Cl	1.791767	0.0	0.0
H	-0.03767	1.213422	-1.755082
H	-0.341754	-0.967632	0.354812
H	0.163548	-0.490558	-2.076206
C	-0.419472	1.116949	0.94419
H	-1.510405	1.102574	0.946993
H	-0.0247	2.071144	0.578196
H	-0.012697	0.940253	1.944682
C	-1.812049	0.116058	-1.897993
N	-2.563993	0.111111	-2.811929
F	-2.627111	0.0	0.0
