17

C	-0.450473	0.035953	-1.466722
C	0.0	0.0	0.0
F	-1.856592	0.016167	-1.503289
H	1.090442	0.0	0.0
C	0.047278	1.222441	-2.262543
H	1.132042	1.293426	-2.157065
H	-0.22637	1.098245	-3.312159
H	-0.406173	2.134554	-1.876684
C	-0.017294	-1.22784	-2.093522
N	0.264067	-2.23631	-2.623937
N	-0.474519	-1.115297	0.744081
H	-1.364395	-1.464807	0.422351
H	0.228591	-1.838494	0.76691
N	-0.505374	1.278169	0.629706
O	0.171459	2.292486	0.460517
O	-1.580043	1.232761	1.224672
Cl	3.274467	0.0	0.0
