17

C	-0.558131	0.009089	-1.433301
C	0.0	0.0	0.0
F	-0.235375	-1.25658	-1.940756
H	1.100733	0.0	0.0
C	-2.069421	0.144025	-1.493956
H	-2.377865	1.158182	-1.243587
H	-2.403685	-0.09091	-2.506285
H	-2.499951	-0.565189	-0.786526
C	0.090923	0.990498	-2.32234
N	0.519019	1.806866	-3.050868
N	-0.538959	-1.158312	0.696767
H	-0.013898	-1.94992	0.344643
H	-0.273369	-1.049636	1.669959
N	-0.415645	1.229085	0.734779
O	-0.531082	1.145328	1.955864
O	-0.557812	2.265636	0.086026
Cl	3.241192	0.0	0.0
