17

C	-0.458706	0.022057	-1.466082
C	0.0	0.0	0.0
F	-1.862447	-0.050003	-1.50419
H	1.090479	0.0	0.0
C	-0.008521	1.231853	-2.25627
H	-0.497931	2.121152	-1.859693
H	-0.284584	1.107263	-3.304916
H	1.07321	1.345837	-2.158054
C	0.020109	-1.220881	-2.10032
N	0.349564	-2.21392	-2.633979
N	-0.478251	-1.105387	0.759122
H	0.206309	-1.84597	0.756852
H	-1.383629	-1.430431	0.458595
N	-0.501669	1.28091	0.62256
O	0.206836	2.279396	0.508799
O	-1.61018	1.252195	1.155282
Cl	3.302922	0.0	0.0
