17

C	-0.56938	0.004937	-1.426278
C	0.0	0.0	0.0
F	-0.241933	-1.256324	-1.935767
H	1.100773	0.0	0.0
C	-2.080933	0.132132	-1.473536
H	-2.501047	-0.581655	-0.765137
H	-2.390309	1.145295	-1.218996
H	-2.422274	-0.101009	-2.483766
C	0.061937	0.991307	-2.319293
N	0.492272	1.727923	-3.125746
N	-0.533768	-1.154473	0.707146
H	-0.34749	-0.995657	1.690741
H	0.048835	-1.934827	0.428117
N	-0.412299	1.236701	0.724979
O	-0.529074	2.270004	0.066515
O	-0.554154	1.165014	1.944167
Cl	3.244551	0.0	0.0
