17

C	-0.50702	-0.095798	-1.443771
C	0.0	0.0	0.0
F	-0.291048	1.101717	-2.109333
H	1.098515	0.0	0.0
C	0.242574	-1.199821	-2.164762
H	0.029588	-2.159157	-1.694828
H	1.312062	-0.987926	-2.085299
H	-0.06134	-1.221473	-3.212586
C	-1.968365	-0.328143	-1.452297
N	-3.1294	-0.506129	-1.421871
N	-0.464628	-1.127983	0.741054
H	0.179987	-1.30247	1.501199
H	-1.388317	-0.945011	1.116945
N	-0.472101	1.32235	0.585086
O	0.169559	2.328582	0.309122
O	-1.489964	1.295469	1.283203
Cl	3.306903	0.0	0.0
