17

C	-0.503529	0.034172	-1.46572
C	0.0	0.0	0.0
F	-0.095629	-1.172871	-2.028544
H	1.090854	0.0	0.0
C	-2.015181	0.110709	-1.610109
H	-2.273494	-0.005036	-2.664386
H	-2.486302	-0.696818	-1.047651
H	-2.399217	1.065355	-1.251115
C	0.102729	1.121596	-2.252738
N	0.465457	1.981574	-2.96541
N	-0.418592	-1.127174	0.758766
H	0.233228	-1.882964	0.607649
H	-1.368971	-1.421198	0.589922
N	-0.51957	1.258697	0.636993
O	-1.55779	1.175136	1.295682
O	0.083648	2.302037	0.394136
Cl	3.27971	0.0	0.0
