17

C	-0.434753	-0.044551	-1.476651
C	0.0	0.0	0.0
F	-0.257058	1.219147	-2.030558
H	1.090606	0.0	0.0
C	0.432299	-1.031736	-2.236146
H	1.480135	-0.767937	-2.067789
H	0.187677	-0.985224	-3.299116
H	0.259155	-2.047399	-1.875544
C	-1.86641	-0.389744	-1.622344
N	-2.978851	-0.741043	-1.766561
N	-0.448161	-1.089923	0.799482
H	-1.348574	-1.467053	0.541634
H	0.267289	-1.797127	0.877649
N	-0.546176	1.280605	0.573125
O	0.222363	2.206386	0.796443
O	-1.764838	1.295862	0.76097
Cl	3.339132	0.0	0.0
