17

C	-0.494647	0.018143	-1.452644
C	0.0	0.0	0.0
F	-0.332267	1.287518	-1.992642
H	1.094335	0.0	0.0
C	0.312837	-0.969503	-2.269882
H	0.005745	-0.913383	-3.316383
H	0.157035	-1.977298	-1.887835
H	1.368778	-0.708652	-2.164704
C	-1.942051	-0.284598	-1.510555
N	-3.086901	-0.533999	-1.590765
N	-0.46086	-1.187377	0.641385
H	-1.396091	-1.054895	1.008389
H	0.173473	-1.429319	1.391943
N	-0.49375	1.269575	0.673619
O	-1.57663	1.195938	1.265894
O	0.184702	2.28222	0.56231
Cl	3.321821	0.0	0.0
