16

C	0.0	0.0	0.0
C	-0.38875	0.044758	-1.481944
Br	2.043606	0.0	0.0
H	-0.219113	1.082543	-1.828693
H	0.300623	-0.592849	-2.043138
N	-0.529753	1.108525	0.669455
H	-0.396302	1.09494	1.670441
H	-0.259229	1.995173	0.269149
C	-0.412	-1.288472	0.685286
H	-0.030271	-2.149522	0.137141
H	-1.502899	-1.333066	0.700336
H	-0.019488	-1.315989	1.706452
N	-1.728323	-0.478795	-1.639009
H	-2.429622	-0.011478	-1.061715
H	-2.028295	-0.414645	-2.603111
Br	-4.745854	0.0	0.0
