16

C	0.0	0.0	0.0
C	-0.395759	0.116163	-1.477618
Br	2.043667	0.0	0.0
H	-0.257025	1.176381	-1.765887
H	0.305598	-0.468827	-2.077457
N	-0.527306	1.071278	0.728147
H	-0.422369	0.98839	1.728716
H	-0.244247	1.979588	0.390775
C	-0.404291	-1.32074	0.626463
H	-1.494101	-1.364163	0.661084
H	-0.035512	-2.154141	0.027926
H	0.008989	-1.40055	1.636028
N	-1.720953	-0.431516	-1.652228
H	-2.433658	0.000418	-1.064238
H	-2.030327	-0.360959	-2.61023
Br	-4.749862	0.0	0.0
