16

C	0.0	0.0	0.0
C	-0.437772	0.112348	-1.450025
Br	2.065211	0.0	0.0
H	-0.151731	1.108964	-1.823043
H	-1.532556	0.074885	-1.386204
N	-0.463659	1.10284	0.713598
H	-0.18207	1.997384	0.341205
H	-0.331824	1.046563	1.711396
C	-0.437949	-1.295736	0.638408
H	-0.064027	-2.14038	0.063168
H	-1.533806	-1.289505	0.634422
H	-0.073261	-1.363503	1.667012
N	0.04902	-0.989602	-2.268769
H	0.999364	-0.80328	-2.564559
H	-0.535705	-1.071295	-3.09147
Br	-4.109674	0.0	0.0
