16

C	0.0	0.0	0.0
C	-0.279375	0.669693	-1.372631
Br	1.98417	0.0	0.0
H	0.139844	0.014093	-2.143307
H	0.301739	1.593104	-1.380362
N	-0.506953	0.838313	1.05507
H	-0.346269	0.385905	1.949436
H	-1.522715	0.861878	0.926137
C	-0.478365	-1.440527	0.075686
H	-0.193909	-1.88592	1.033384
H	-1.572645	-1.427085	0.020205
H	-0.070982	-2.053442	-0.732495
N	-1.639003	0.998091	-1.70985
H	-2.285694	0.227943	-1.589446
H	-1.999996	1.728537	-1.110389
Br	-4.276673	0.0	0.0
