16

C	0.0	0.0	0.0
C	-0.459301	0.075385	-1.445854
Br	2.050861	0.0	0.0
H	-1.553421	0.039492	-1.367038
H	-0.179025	1.06216	-1.849296
N	-0.460001	1.125101	0.691517
H	-0.172406	2.003972	0.287257
H	-0.285864	1.097451	1.684631
C	-0.437191	-1.277183	0.678942
H	-0.078872	-2.1376	0.117583
H	-0.056053	-1.322778	1.702666
H	-1.532963	-1.264311	0.691631
N	0.01676	-1.047876	-2.241395
H	-0.5975	-1.174	-3.035306
H	0.951034	-0.859992	-2.582407
Br	-4.148966	0.0	0.0
