16

C	0.0	0.0	0.0
C	-0.431612	-0.382192	-1.41393
Br	1.991869	0.0	0.0
H	-1.5267	-0.387079	-1.366208
H	-0.124629	0.43205	-2.091404
N	-0.463848	1.301191	0.393429
H	-0.345565	1.952317	-0.377265
H	-1.469391	1.207302	0.55693
C	-0.442805	-1.028433	1.019955
H	-0.101421	-0.732536	2.013568
H	-1.536596	-1.054114	1.001258
H	-0.054342	-2.011075	0.759815
N	0.03584	-1.7009	-1.826363
H	-0.558863	-2.04671	-2.568174
H	0.982523	-1.635024	-2.178649
Br	-3.921667	0.0	0.0
