16

C	0.0	0.0	0.0
C	-0.289173	0.100038	-1.52784
Br	1.969132	0.0	0.0
H	0.214411	-0.740121	-2.018368
H	0.21094	1.00973	-1.883146
N	-0.496306	1.098709	0.779288
H	-0.388566	1.967974	0.268001
H	-1.491587	0.944888	0.937368
C	-0.499585	-1.297765	0.602337
H	-1.594732	-1.294995	0.566084
H	-0.120134	-2.15601	0.044607
H	-0.183477	-1.375324	1.643713
N	-1.663597	0.132621	-1.960806
H	-2.178304	0.888552	-1.527025
H	-2.171411	-0.692783	-1.669488
Br	-4.321627	0.0	0.0
