16

C	0.0	0.0	0.0
C	-0.330892	-0.143939	-1.500264
Br	2.042503	0.0	0.0
H	0.217387	-1.008125	-1.886565
H	0.084344	0.737989	-2.005894
N	-0.508715	1.208803	0.491499
H	-0.167214	2.022009	-0.000476
H	-0.428031	1.321303	1.491405
C	-0.476831	-1.163672	0.839316
H	-0.103144	-2.107374	0.438779
H	-1.57122	-1.153665	0.827376
H	-0.132117	-1.066874	1.871938
N	-1.727068	-0.275241	-1.833811
H	-2.310465	0.396765	-1.342301
H	-2.096826	-1.173221	-1.549108
Br	-4.619116	0.0	0.0
