15

C	-0.265343	-0.081134	-1.476198
C	0.0	0.0	0.0
Br	-2.223207	-0.375321	-1.915226
H	1.106345	0.0	0.0
H	-0.103773	0.905731	-1.914512
N	0.504441	-1.158846	-2.02415
H	1.443758	-1.073949	-1.615696
H	0.574234	-1.070234	-3.029779
N	-0.473099	-1.196895	0.708748
H	0.275686	-1.462729	1.348192
H	-0.538881	-1.952378	0.029925
N	-0.495719	1.232883	0.573306
H	0.160033	1.523711	1.28948
H	-1.376161	1.016535	1.026541
H	2.874605	0.0	0.0
