15

C	-0.564129	0.001564	-1.412752
C	0.0	0.0	0.0
Br	-0.11867	1.640784	-2.385205
H	1.097876	0.0	0.0
H	-0.046461	-0.773743	-1.992714
N	-2.004593	-0.139253	-1.364485
H	-2.36903	-0.322166	-2.291662
H	-2.161061	-0.948909	-0.769777
N	-0.433341	-1.326166	0.564694
H	-0.354706	-1.223937	1.572079
H	0.310479	-1.978494	0.316081
N	-0.49757	1.110854	0.759009
H	-1.481878	1.004098	0.968707
H	0.047485	1.219126	1.604906
H	2.981508	0.0	0.0
