15

C	-0.629666	-0.153508	-1.372226
C	0.0	0.0	0.0
Br	0.232504	1.158752	-2.664336
H	1.089812	0.0	0.0
H	-0.3776	-1.11868	-1.806429
N	-2.0301	0.054055	-1.279052
H	-2.473404	0.058625	-2.187998
H	-2.1466	0.95906	-0.828995
N	-0.425252	-1.155396	0.763137
H	-1.404199	-1.086905	1.008935
H	0.155714	-1.232869	1.588847
N	-0.45156	1.301843	0.567908
H	0.3748	1.89701	0.584439
H	-0.698285	1.134362	1.536656
H	2.941689	0.0	0.0
