15

C	-0.538947	0.013475	-1.427055
C	0.0	0.0	0.0
Br	-0.075056	1.696634	-2.349107
H	1.098148	0.0	0.0
H	-0.008046	-0.739693	-2.0194
N	-1.976261	-0.114061	-1.406932
H	-2.145445	-0.891627	-0.771602
H	-2.326179	-0.346577	-2.329022
N	-0.462472	-1.297637	0.565846
H	-0.583464	-1.104277	1.554211
H	0.335675	-1.928181	0.497697
N	-0.49898	1.081749	0.825195
H	-1.337116	1.473922	0.413947
H	0.215233	1.79681	0.851602
H	2.95143	0.0	0.0
