15

C	-0.682422	-0.055837	-1.361921
C	0.0	0.0	0.0
Br	-0.10999	-1.686627	-2.364366
H	1.09354	0.0	0.0
H	-1.749455	-0.274143	-1.216266
N	-0.417912	1.109055	-2.139294
H	-1.206849	1.35375	-2.720718
H	-0.208051	1.854789	-1.484987
N	-0.398378	-1.151195	0.800134
H	0.391918	-1.402982	1.383718
H	-1.179094	-0.916414	1.4027
N	-0.299376	1.31988	0.587798
H	0.480899	1.544025	1.199148
H	-1.150896	1.292549	1.140358
H	2.863016	0.0	0.0
