15

C	-0.551098	-0.078278	-1.415659
C	0.0	0.0	0.0
Br	0.130539	1.50642	-2.500818
H	1.095239	0.0	0.0
H	-0.123338	-0.921938	-1.957792
N	-1.968282	-0.119137	-1.388079
H	-2.268389	0.657908	-0.806226
H	-2.370578	-0.043067	-2.31234
N	-0.392974	-1.198217	0.737398
H	-1.208024	-1.62556	0.315902
H	0.386515	-1.842465	0.693912
N	-0.586239	1.180149	0.656975
H	-0.669154	0.921617	1.633297
H	0.102588	1.925717	0.602005
H	2.954581	0.0	0.0
