15

C	-0.291036	-0.059983	-1.472278
C	0.0	0.0	0.0
Br	-2.258944	-0.216295	-1.877007
H	1.106308	0.0	0.0
H	-0.058809	0.915017	-1.907778
N	0.390984	-1.18921	-2.041137
H	1.355048	-1.138027	-1.692918
H	0.402168	-1.122179	-3.052598
N	-0.491724	-1.196594	0.695858
H	0.224447	-1.44328	1.375445
H	-0.505613	-1.956875	0.021345
N	-0.481604	1.233055	0.585353
H	-1.385319	1.033237	1.001917
H	0.156046	1.490512	1.331444
H	2.914896	0.0	0.0
