15

C	-0.631156	-0.072968	-1.375011
C	0.0	0.0	0.0
Br	0.082824	1.473159	-2.530041
H	1.096717	0.0	0.0
H	-0.265531	-0.941839	-1.916673
N	-2.038803	-0.035766	-1.281807
H	-2.482114	0.032216	-2.187493
H	-2.296599	0.750503	-0.695761
N	-0.381342	-1.21969	0.683831
H	0.308085	-1.406652	1.402882
H	-1.306332	-1.126793	1.084206
N	-0.526218	1.206574	0.68737
H	-0.167021	1.148839	1.634909
H	-0.043923	2.00189	0.27265
H	2.954012	0.0	0.0
