15

C	-0.692571	-0.022857	-1.352973
C	0.0	0.0	0.0
Br	0.179558	-1.276589	-2.579953
H	1.097698	0.0	0.0
H	-1.686443	-0.469314	-1.211716
N	-0.719916	1.287167	-1.980297
H	-1.142925	1.209568	-2.897854
H	-1.320799	1.863292	-1.39804
N	-0.42152	-1.165566	0.753932
H	0.347456	-1.449109	1.350612
H	-1.226585	-0.933477	1.326018
N	-0.446274	1.256099	0.670029
H	-0.097421	1.170504	1.621761
H	0.137578	1.986906	0.263993
H	2.960221	0.0	0.0
