12

C	-0.44834	0.010443	-1.463747
C	0.0	0.0	0.0
Cl	0.140268	-1.466291	-2.298987
H	1.093072	0.0	0.0
H	-0.310412	0.941146	0.467032
C	-1.908904	0.04506	-1.596092
N	-3.081372	0.080756	-1.681274
C	0.099567	1.191282	-2.146317
N	0.499779	2.119298	-2.743708
C	-0.557906	-1.123147	0.725572
N	-0.965584	-2.039405	1.338578
H	2.612716	0.0	0.0
