12

C	-0.428612	-0.002419	-1.45646
C	0.0	0.0	0.0
Cl	-2.241707	0.139959	-1.645123
H	1.094404	0.0	0.0
H	-0.322901	0.935926	0.464394
C	0.149711	1.150789	-2.156503
N	0.590941	2.06419	-2.748447
C	-0.032223	-1.238306	-2.137768
N	0.255967	-2.222953	-2.709966
C	-0.532509	-1.136856	0.720604
N	-0.923142	-2.065997	1.326497
H	2.600031	0.0	0.0
