12

C	-0.425426	-0.006073	-1.457386
C	0.0	0.0	0.0
Cl	-2.23647	-0.153684	-1.650595
H	1.094578	0.0	0.0
H	-0.323146	-0.933589	0.469056
C	-0.028876	1.226942	-2.144424
N	0.258911	2.20869	-2.722035
C	0.158045	-1.160913	-2.151262
N	0.602336	-2.075392	-2.739932
C	-0.534033	1.140074	0.71407
N	-0.926767	2.071741	1.314635
H	2.59998	0.0	0.0
