16

C	0.0	0.0	0.0
C	-0.381546	0.060203	-1.48563
F	1.377675	0.0	0.0
H	0.253832	-0.676822	-1.983915
H	-0.034069	1.047201	-1.811244
C	-0.595287	1.060444	0.869187
H	-0.338303	2.039503	0.459439
H	-1.683817	0.939166	0.859969
H	-0.227991	0.976851	1.890881
N	-0.318265	-1.37652	0.588845
O	-0.554569	-2.296701	-0.191411
O	-0.218696	-1.489197	1.808569
N	-1.743197	-0.130877	-1.900902
H	-2.395132	0.501639	-1.449688
H	-2.063308	-1.049424	-1.629543
Br	-4.487161	0.0	0.0
