16

C	0.0	0.0	0.0
C	-0.383761	0.249012	-1.466466
F	1.37982	0.0	0.0
H	-0.124044	1.299781	-1.645805
H	0.313798	-0.354278	-2.052213
C	-0.583436	0.9438	1.002632
H	-1.674015	0.849707	0.982623
H	-0.302891	1.961996	0.725417
H	-0.221265	0.720542	2.004564
N	-0.322126	-1.445379	0.38897
O	-0.482589	-1.694834	1.580486
O	-0.298347	-2.282133	-0.511873
N	-1.721654	-0.005939	-1.925069
H	-1.92365	-0.994951	-1.871066
H	-2.444757	0.440283	-1.366162
Br	-4.475992	0.0	0.0
