16

C	0.0	0.0	0.0
C	-0.54895	-0.195566	-1.397218
F	1.363892	0.0	0.0
H	-1.642383	-0.221815	-1.31015
H	-0.274836	0.714442	-1.940592
C	-0.542866	1.226797	0.679785
H	-0.255007	2.105236	0.09724
H	-0.124006	1.303723	1.682802
H	-1.6342	1.157536	0.721772
N	-0.336879	-1.21354	0.88052
O	-0.944321	-2.159375	0.388733
O	0.074918	-1.161624	2.037058
N	0.049595	-1.34134	-2.085959
H	-0.053399	-1.200344	-3.082927
H	-0.488056	-2.162068	-1.839876
Br	-4.06422	0.0	0.0
