16

C	0.0	0.0	0.0
C	-0.356883	0.040811	-1.49151
F	1.377776	0.0	0.0
H	0.267582	-0.722596	-1.960716
H	0.027246	1.011693	-1.827683
C	-0.602425	1.072812	0.848883
H	-1.691445	0.96251	0.824065
H	-0.326496	2.045091	0.435087
H	-0.254318	0.996295	1.877489
N	-0.323594	-1.372125	0.599646
O	-0.490253	-2.310768	-0.176283
O	-0.298628	-1.463953	1.824068
N	-1.713154	-0.120522	-1.933673
H	-2.063807	-1.032811	-1.673166
H	-2.360386	0.524802	-1.494004
Br	-4.425305	0.0	0.0
