16

C	0.0	0.0	0.0
C	-0.558328	0.093009	-1.400294
F	1.362007	0.0	0.0
H	-0.244649	1.0739	-1.769732
H	-1.649895	0.093757	-1.306514
C	-0.53579	1.06439	0.919893
H	-1.625469	0.976126	0.972628
H	-0.089172	0.95024	1.907103
H	-0.271087	2.043988	0.512554
N	-0.343098	-1.357776	0.620569
O	-1.066109	-2.133863	0.003823
O	0.155866	-1.577536	1.722768
N	-0.014682	-0.937024	-2.288491
H	-0.614289	-1.748253	-2.216024
H	-0.078827	-0.601587	-3.24127
Br	-4.075272	0.0	0.0
