19

C	-0.326797	-0.17138	-1.489182
C	0.0	0.0	0.0
F	-1.578024	-0.708366	-1.686931
H	1.089213	0.0	0.0
N	-0.408547	1.240055	-2.065036
O	0.658926	1.809353	-2.261939
O	-1.520977	1.719426	-2.262837
C	0.732245	-0.929878	-2.251092
H	1.701984	-0.622431	-1.84253
H	0.586988	-1.988579	-2.047596
H	0.650615	-0.741364	-3.324868
N	-0.43242	-1.236311	0.699645
O	-0.12374	-2.319454	0.202115
O	-1.047302	-1.130831	1.764424
C	-0.574444	1.227994	0.667631
H	-0.309173	1.214217	1.723286
H	-0.114102	2.112795	0.226494
H	-1.661978	1.294539	0.579977
F	2.578752	0.0	0.0
