19

C	-0.331249	-0.206565	-1.483328
C	0.0	0.0	0.0
F	-1.595545	-0.721739	-1.663922
H	1.089234	0.0	0.0
N	-0.383813	1.192677	-2.097256
O	0.694614	1.733952	-2.316344
O	-1.4882	1.69023	-2.301491
C	0.715201	-1.001909	-2.22566
H	0.637256	-0.831957	-3.301317
H	1.688365	-0.69775	-1.825795
H	0.556825	-2.056848	-2.003105
N	-0.440545	-1.212886	0.73472
O	-0.156574	-2.311973	0.257308
O	-1.040045	-1.074039	1.805986
C	-0.564126	1.251011	0.635115
H	-1.649786	1.328406	0.54125
H	-0.300956	1.260886	1.691382
H	-0.092129	2.118324	0.172424
F	2.575278	0.0	0.0
