19

C	-0.31887	-0.162219	-1.492084
C	0.0	0.0	0.0
F	-1.570734	-0.699691	-1.694396
H	1.089243	0.0	0.0
N	-0.394677	1.253346	-2.062027
O	-1.505922	1.740839	-2.248387
O	0.675058	1.81756	-2.265646
C	0.747646	-0.912075	-2.252976
H	0.614941	-1.973059	-2.052744
H	0.672501	-0.719859	-3.326453
H	1.710716	-0.591481	-1.839075
N	-0.437422	-1.236411	0.693705
O	-0.138237	-2.320999	0.194696
O	-1.041251	-1.126518	1.763998
C	-0.57319	1.226923	0.668803
H	-0.309966	1.209723	1.724613
H	-1.660073	1.297079	0.577202
H	-0.108634	2.110733	0.230887
F	2.580165	0.0	0.0
