19

C	-0.469293	0.012795	-1.450532
C	0.0	0.0	0.0
F	0.044774	1.143325	-2.030044
H	1.091675	0.0	0.0
N	0.151676	-1.160819	-2.204567
O	-0.457102	-2.22713	-2.112813
O	1.170307	-0.962729	-2.84673
C	-1.958829	-0.006598	-1.708476
H	-2.143408	-0.036663	-2.785126
H	-2.391626	0.908654	-1.30346
H	-2.426772	-0.866499	-1.236134
N	-0.48551	-1.243084	0.657812
O	0.22252	-2.244969	0.575292
O	-1.567161	-1.212009	1.263195
C	-0.489404	1.218075	0.754201
H	-0.097165	2.103831	0.253105
H	-0.056016	1.190957	1.756093
H	-1.575678	1.282879	0.845862
F	2.538302	0.0	0.0
