19

C	-0.488811	0.015845	-1.443612
C	0.0	0.0	0.0
F	0.00663	1.153362	-2.024543
H	1.091661	0.0	0.0
N	0.128899	-1.148789	-2.213516
O	1.11928	-0.93393	-2.895306
O	-0.454679	-2.226133	-2.094227
C	-1.981751	-0.016553	-1.681186
H	-2.17931	-0.028323	-2.75598
H	-2.433412	-0.890553	-1.21922
H	-2.420462	0.885293	-1.253295
N	-0.492761	-1.233632	0.669185
O	0.209043	-2.240627	0.600307
O	-1.57621	-1.189356	1.269463
C	-0.464149	1.227076	0.757335
H	-0.033816	1.184943	1.759974
H	-1.548366	1.321419	0.846325
H	-0.045383	2.10295	0.260835
F	2.539648	0.0	0.0
