15

C	0.0	0.0	0.0
C	-0.477044	-0.068105	-1.446686
F	1.395605	0.0	0.0
H	-1.546492	-0.32907	-1.444651
H	-0.347051	-0.901902	0.504938
N	-0.495329	1.169677	0.609472
H	-0.766562	1.055401	1.572056
H	0.119792	1.952671	0.453527
N	0.319317	-1.106014	-2.180723
O	0.246481	-2.233207	-1.705473
O	0.998552	-0.772791	-3.146382
N	-0.324108	1.203237	-2.210366
O	0.539684	2.004292	-1.855526
O	-1.062702	1.327704	-3.182722
Br	-3.690962	0.0	0.0
