15

C	0.0	0.0	0.0
C	-0.522991	0.120695	-1.423214
F	1.372501	0.0	0.0
H	-1.622873	0.137415	-1.395141
H	-0.320715	-0.971096	0.388772
N	-0.459208	1.14714	0.722347
H	-0.228036	1.018074	1.700781
H	-1.479948	1.161651	0.655232
N	-0.108162	-1.018981	-2.297936
O	-0.18598	-0.834367	-3.508493
O	0.205757	-2.072086	-1.751595
N	-0.028131	1.375622	-2.058472
O	1.153055	1.400964	-2.394773
O	-0.834182	2.293514	-2.168306
Br	-3.636747	0.0	0.0
