16

C	-0.242632	-0.069603	-1.519082
C	0.0	0.0	0.0
Cl	-0.054137	1.646953	-2.227951
H	1.097451	0.0	0.0
N	0.7011	-0.984239	-2.030844
H	1.622898	-0.77178	-1.61305
H	0.738364	-0.972274	-3.041638
C	-1.614744	-0.451354	-1.883921
N	-2.703652	-0.802415	-2.154237
C	-0.442335	-1.284759	0.70136
H	-0.087811	-1.257034	1.734653
H	-1.529654	-1.407079	0.7011
H	0.021379	-2.137305	0.204527
C	-0.575328	1.163287	0.641589
N	-1.052051	2.059749	1.235223
H	2.723491	0.0	0.0
