16

C	-0.483758	-0.01574	-1.451799
C	0.0	0.0	0.0
Cl	0.104402	-1.497561	-2.285195
H	1.095474	0.0	0.0
N	-1.933315	-0.032986	-1.531715
H	-2.286118	0.776188	-1.028644
H	-2.220402	0.044433	-2.502516
C	0.088937	1.124563	-2.199025
N	0.40011	2.059947	-2.839879
C	-0.439802	-1.217831	0.808957
H	-0.098505	-1.083578	1.838057
H	-1.520929	-1.368743	0.795991
H	0.060015	-2.102686	0.41298
C	-0.483654	1.229124	0.605828
N	-0.898943	2.216513	1.095207
H	2.669396	0.0	0.0
