16

C	-0.527562	-0.008158	-1.444155
C	0.0	0.0	0.0
Cl	0.119842	-1.460848	-2.287628
H	1.095587	0.0	0.0
N	-1.97668	-0.041908	-1.615416
H	-2.327347	-0.867518	-1.140589
H	-2.361671	0.773981	-1.145937
C	-0.02641	1.176064	-2.160592
N	0.358852	2.116605	-2.748891
C	-0.402291	-1.220528	0.826524
H	0.005796	-2.121511	0.367096
H	0.061192	-1.11962	1.810472
H	-1.483839	-1.328238	0.960826
C	-0.49342	1.215287	0.626034
N	-0.923104	2.188587	1.130852
H	2.666172	0.0	0.0
