18

C	0.0	0.0	0.0
C	-0.58838	0.252931	-1.38849
Cl	1.796143	0.0	0.0
H	-1.633125	0.548462	-1.193797
N	-0.348401	1.198805	0.906023
O	-0.619157	2.258043	0.354287
O	-0.270718	1.019155	2.114947
C	-0.502798	-1.261014	0.655819
H	-0.145776	-2.128026	0.099891
H	-1.596745	-1.22597	0.656659
H	-0.126582	-1.312046	1.675444
C	-0.61703	-1.012935	-2.249991
H	-0.950237	-0.751985	-3.256245
H	0.371397	-1.474925	-2.32148
H	-1.336014	-1.717174	-1.83203
C	0.102108	1.319808	-2.111727
N	0.652667	2.112762	-2.780994
Cl	-3.658544	0.0	0.0
