18

C	0.0	0.0	0.0
C	-0.586051	0.242145	-1.390245
Cl	1.798993	0.0	0.0
H	-1.631495	0.532432	-1.195664
N	-0.345334	1.206922	0.896914
O	-0.666364	2.248706	0.341143
O	-0.224234	1.046307	2.10467
C	-0.511739	-1.250316	0.665938
H	-0.158487	-2.126627	0.121828
H	-1.605535	-1.207597	0.661891
H	-0.139472	-1.293242	1.687545
C	-0.605266	-1.027684	-2.245191
H	0.383908	-1.488936	-2.30639
H	-0.930917	-0.772729	-3.255292
H	-1.326449	-1.729989	-1.82866
C	0.095312	1.313224	-2.115086
N	0.63174	2.116026	-2.784242
Cl	-3.672737	0.0	0.0
