18

C	0.0	0.0	0.0
C	-0.424706	0.365308	-1.439643
Cl	1.785122	0.0	0.0
H	0.225304	1.190754	-1.746446
N	-0.385154	1.191957	0.885033
O	-0.070673	2.301315	0.46757
O	-0.955798	0.950489	1.940681
C	-0.58618	-1.274571	0.540485
H	-0.274904	-2.104931	-0.093164
H	-1.678078	-1.199468	0.539313
H	-0.247758	-1.446603	1.560543
C	-1.886595	0.791008	-1.586533
H	-2.609912	0.111841	-1.131339
H	-2.040544	1.767492	-1.126393
H	-2.122495	0.877113	-2.649478
C	-0.102298	-0.774116	-2.302212
N	0.185361	-1.678524	-2.992921
Cl	-4.73943	0.0	0.0
