15

C	-0.463948	0.009998	-1.424958
C	0.0	0.0	0.0
Cl	-2.214384	-0.164998	-1.642279
H	1.095393	0.0	0.0
H	-0.339305	-0.950602	0.420345
N	-0.029485	1.255456	-2.181185
O	-0.366569	1.320015	-3.35892
O	0.663962	2.062096	-1.576993
N	0.25964	-1.140729	-2.12254
O	1.309786	-0.854711	-2.683842
O	-0.215173	-2.258459	-1.961613
N	-0.547325	1.142118	0.730255
H	-0.841244	0.832829	1.646852
H	0.217664	1.794013	0.861716
H	2.808803	0.0	0.0
