15

C	-0.472888	-0.020077	-1.422368
C	0.0	0.0	0.0
Cl	-2.22438	0.144785	-1.617692
H	1.095393	0.0	0.0
H	-0.338359	0.95323	0.41529
N	0.241711	1.133435	-2.126299
O	1.306082	0.856705	-2.664437
O	-0.251037	2.246024	-1.98574
N	-0.042947	-1.27094	-2.174428
O	0.666797	-2.066511	-1.575082
O	-0.411109	-1.356384	-3.341203
N	-0.541282	-1.135199	0.745739
H	-0.81962	-0.819296	1.665238
H	0.221384	-1.791299	0.872301
H	2.833906	0.0	0.0
