15

C	-0.525295	-0.024259	-1.40233
C	0.0	0.0	0.0
Cl	-2.276843	-0.294234	-1.51271
H	1.102302	0.0	0.0
H	-0.320381	-0.938857	0.459457
N	-0.191401	1.239436	-2.178762
O	-0.757545	1.397114	-3.255672
O	0.659237	1.968273	-1.687281
N	0.181863	-1.158911	-2.145134
O	-0.090346	-2.288034	-1.758255
O	1.004628	-0.849456	-2.996611
N	-0.512717	1.174683	0.702103
H	0.295437	1.746873	0.924542
H	-0.935934	0.887965	1.573941
H	2.781475	0.0	0.0
