15

C	-0.503752	-0.005978	-1.41669
C	0.0	0.0	0.0
Cl	-0.125653	-1.514731	-2.219317
H	1.096163	0.0	0.0
H	-0.3412	-0.941761	0.43647
N	-2.020544	0.206877	-1.427564
O	-2.687032	-0.710167	-0.966613
O	-2.439244	1.293289	-1.805936
N	0.047526	1.149905	-2.248552
O	-0.089793	1.074705	-3.463735
O	0.552209	2.075414	-1.627422
N	-0.573674	1.130607	0.733246
H	-0.735779	0.836988	1.687009
H	0.135697	1.853755	0.758022
H	2.826181	0.0	0.0
