15

C	-0.476179	0.184766	-1.414543
C	0.0	0.0	0.0
Cl	-0.167134	1.810916	-1.984623
H	1.107389	0.0	0.0
H	-0.34368	0.87701	0.551534
N	0.156109	-0.819627	-2.379864
O	0.180789	-0.527035	-3.568518
O	0.547643	-1.86424	-1.878619
N	-1.981417	-0.090121	-1.507995
O	-2.691311	0.66718	-0.861024
O	-2.352319	-1.058863	-2.158376
N	-0.576907	-1.218981	0.569986
H	0.144242	-1.930547	0.542647
H	-0.794427	-1.043926	1.540925
H	2.825199	0.0	0.0
