18
Coordinates from ORCA-job run
  C   0.67289902740549     -0.32124288700627      0.19317316968160
  C   -0.66920581278121      0.41760728214249      0.02412802907508
  Br  0.40032635679941     -2.15284468588268      0.84648246425589
  H   -0.40191462480045      1.46369802639053     -0.15409231078271
  N   1.37110865471784      0.38996414936104      1.25590300887677
  H   2.16216993389524     -0.15946481247792      1.57216389282128
  H   1.73100754749961      1.26247202293435      0.87767313555839
  C   1.45253918605899     -0.41690758648294     -1.11228638358475
  H   2.43292549957821     -0.85438973431830     -0.91601528110926
  H   0.94412881337030     -1.03240009146401     -1.85539399911988
  H   1.58648186544273      0.58686502696236     -1.52876640532201
  C   -1.63991053135200      0.29994374580274      1.17775072160891
  H   -2.46239603637632      1.00658798942007      1.04534179633034
  H   -1.11083152438835      0.53150473357746      2.10168607764075
  H   -2.04763417803801     -0.70704021935013      1.23470376771958
  N   -1.32044522889208      0.00199107695431     -1.26033202157971
  O   -1.96931295191279     -1.04100466687234     -1.26160833258837
  O   -1.13093599622663      0.72666063030924     -2.23851132948189
