18
Coordinates from ORCA-job run
  C   0.68652262682019     -0.47379381138544     -0.17650524509212
  C   -0.83733513493213     -0.25691246229517     -0.15695282649535
  Br  1.04161849694538     -1.16309132333098     -2.08416192696751
  H   -1.32148536223710     -1.18659406515541     -0.46001638404692
  N   1.03270542746906     -1.42552276504460      0.79772955081101
  H   2.02439542672141     -1.62150890626366      0.81756335044109
  H   0.50584674713242     -2.28720976808002      0.73067785673566
  C   1.52552422973846      0.77869927300293     -0.02866783118875
  H   2.58501006279015      0.51633862863506     -0.06503867678242
  H   1.30288135022796      1.23999739645913      0.93528463549875
  H   1.32996872897124      1.48937040377730     -0.82943377949390
  C   -1.35589995899589      0.92103853090940     -0.95540103087009
  H   -0.97424766874756      1.85874240996853     -0.55451133878247
  H   -1.06312572021973      0.82223650175960     -2.00025800276225
  H   -2.44647482813557      0.94568452328829     -0.90325302307267
  N   -1.24505012906101     -0.09020156221936      1.28553206103871
  O   -1.01098964381913      0.99015389816010      1.82116408013861
  O   -1.77886465066816     -1.05642690218569      1.82524853089062
