18
Coordinates from ORCA-job run
  C   0.78196053736632     -0.30009161936757      0.05496534206624
  C   -0.64312008830236      0.31183263973943      0.06923383407828
  Br  0.68637431953131     -2.22767647300713      0.43539629022605
  H   -0.48754979231664      1.38643717787480     -0.06600098235334
  N   1.62526539781213      0.27330170812921      1.07910410913159
  H   1.78550119748119      1.25693214459917      0.88829794856350
  H   1.22983388964468      0.16589777333931      2.00429039266578
  C   1.46570105134519     -0.11716690064935     -1.28926679289824
  H   1.47679364255913      0.94480524027266     -1.55632930452936
  H   0.95810512700580     -0.66048423509859     -2.08459053922368
  H   2.49040158656371     -0.47815620192968     -1.20516524278874
  C   -1.49010005301129      0.04208011019987      1.29497310845518
  H   -2.42879928705645      0.59558487697896      1.22269460074836
  H   -1.71655347267953     -1.01780061708060      1.38514338596287
  H   -0.97374830827533      0.37902583646286      2.19532557340007
  N   -1.40365680139864     -0.08623303097826     -1.16280167462568
  O   -1.31268313313850      0.66652748034947     -2.13371664271404
  O   -2.04272581313073     -1.13481590983454     -1.13055340616484
