18
Coordinates from ORCA-job run
  C   0.69817481499411     -0.53081725173593     -0.27930090117275
  C   -0.82479052319240     -0.25078568503002     -0.18384361596770
  Br  0.93917707177218     -1.22442989155382     -2.13347227043757
  H   -1.35281655524974     -1.16182810401811     -0.46966196895266
  N   1.15362052851817     -1.55026712364811      0.61419260794408
  H   1.37466035565253     -1.16909778140736      1.52563597145156
  H   0.49478462218413     -2.31291331833304      0.70857815211607
  C   1.57230062127489      0.70000153810970     -0.13232585942738
  H   1.36365403312574      1.43683434045352     -0.90596460730792
  H   2.61661933289749      0.39640685336590     -0.21087760666354
  H   1.39955837604123      1.16007306654955      0.84428617106005
  C   -1.34492017214047      0.95512453008678     -0.93881430782564
  H   -0.91759145350633      1.87551121017241     -0.54385898507935
  H   -2.43147667803396      1.01260062902599     -0.84265080471664
  H   -1.09807505395954      0.86278543822501     -1.99627828041447
  N   -1.14501732918032     -0.09777035832739      1.27792830668058
  O   -1.63455065934822     -1.07304039814170      1.84732250181169
  O   -0.86031133184949      0.96961230620663      1.82010549690160
