18
Coordinates from ORCA-job run
  C   0.66055003812134     -0.53485811992435     -0.24083093068790
  C   -0.85540200206239     -0.27559085977148     -0.18265318505472
  Br  0.96403751112635     -1.27146101460071     -2.05052609047922
  H   -1.35654524361800     -1.17822924238062     -0.53127530222793
  N   0.96300155537231     -1.61320586089314      0.68443586981276
  H   1.02110957597155     -1.22258091729768      1.62019109848355
  H   1.86423862160894     -2.01711563973573      0.45782731510204
  C   1.54612390440983      0.69734349985446     -0.11486329150939
  H   2.59197685742205      0.39538874012979     -0.19798217669658
  H   1.34410311715483      1.43362045508065     -0.89392151686837
  H   1.38527794540221      1.15467212868919      0.86277748684278
  C   -1.35117731276574      0.95954871100822     -0.91525147820933
  H   -1.03722283223214      0.92629873932809     -1.95885383188146
  H   -0.96173022240193      1.86850205498102     -0.45348508331641
  H   -2.44162382409844      0.98991241812844     -0.88215576532468
  N   -1.31734385972574     -0.14970473656852      1.24595111594311
  O   -2.44408143117286     -0.56732938554669      1.49034105088925
  O   -0.57529239851218      0.40478902951907      2.05827471518247
