14

C	0.0	0.0	0.0
C	-0.552796	-0.109443	-1.426869
Cl	1.782287	0.0	0.0
H	-1.633496	0.088214	-1.308262
H	-0.356878	-0.851249	0.58089
C	-0.408971	1.244342	0.657128
N	-0.601826	2.263392	1.20801
C	-0.381144	-1.518241	-1.990449
H	0.666657	-1.827783	-1.996304
H	-0.969184	-2.207253	-1.379855
H	-0.765123	-1.561204	-3.01113
C	0.034769	0.900078	-2.302128
N	0.510213	1.680133	-3.041119
Br	-3.583923	0.0	0.0
