14

C	0.0	0.0	0.0
C	-0.54361	-0.086169	-1.433701
Cl	1.782531	0.0	0.0
H	-1.61707	0.147313	-1.329014
H	-0.365663	-0.856493	0.567143
C	-0.4026	1.239721	0.671581
N	-0.593439	2.252069	1.234931
C	-0.418985	-1.502167	-1.991226
H	-1.059178	-2.158053	-1.397335
H	-0.768706	-1.53123	-3.024145
H	0.613015	-1.859624	-1.960575
C	0.08995	0.89638	-2.307208
N	0.599991	1.642725	-3.057125
Br	-3.558466	0.0	0.0
