14

C	0.0	0.0	0.0
C	-0.550832	-0.093543	-1.429901
Cl	1.782317	0.0	0.0
H	-1.624557	0.139176	-1.323691
H	-0.365447	-0.852072	0.573843
C	-0.403461	1.242282	0.665612
N	-0.590805	2.259338	1.222244
C	-0.426023	-1.511123	-1.983382
H	-0.77844	-1.54372	-3.015587
H	-1.06493	-2.166214	-1.387329
H	0.605765	-1.867957	-1.954611
C	0.07794	0.888036	-2.308837
N	0.587171	1.635961	-3.057915
Br	-3.571754	0.0	0.0
