14

C	0.0	0.0	0.0
C	-0.516764	-0.054252	-1.449733
Cl	1.782883	0.0	0.0
H	0.027787	0.71555	-2.008901
H	-0.337035	-0.87641	0.557109
C	-0.445982	1.218216	0.673555
N	-0.725395	2.235394	1.189832
C	-2.024283	0.195567	-1.539155
H	-2.619452	-0.439353	-0.881624
H	-2.257021	1.224426	-1.26317
H	-2.366633	0.030142	-2.561938
C	-0.144877	-1.348709	-2.028742
N	0.137264	-2.37525	-2.52416
Br	-5.152987	0.0	0.0
