15

C	0.0	0.0	0.0
C	-0.562538	-0.008153	-1.436028
Br	1.953656	0.0	0.0
H	-1.666266	-0.084345	-1.179829
C	-0.354103	1.298306	0.606373
N	-0.522917	2.361338	1.082086
N	-0.525139	-1.057429	0.813358
H	-1.559228	-0.881703	0.760247
H	-0.332221	-1.938474	0.34461
C	-0.136339	-1.206707	-2.13408
N	0.187217	-2.188776	-2.693273
N	-0.219497	1.20616	-2.179099
H	-0.897315	1.912235	-1.904319
H	-0.357239	1.03774	-3.168428
H	-2.899935	0.0	0.0
