15

C	0.0	0.0	0.0
C	-0.569197	-0.02397	-1.432734
Br	1.952962	0.0	0.0
H	-1.672777	-0.091927	-1.169604
C	-0.361291	1.304224	0.589771
N	-0.558735	2.373572	1.035478
N	-0.522938	-1.047544	0.82556
H	-1.555981	-0.878341	0.774094
H	-0.326602	-1.935981	0.370875
C	-0.156031	-1.236511	-2.116526
N	0.143386	-2.237148	-2.658348
N	-0.228684	1.179074	-2.193054
H	-0.313847	0.985416	-3.183394
H	-0.934282	1.874111	-1.96407
H	-2.915148	0.0	0.0
