13

C	0.0	0.0	0.0
C	-0.204924	0.138626	-1.558487
Br	1.956015	0.0	0.0
H	0.500809	-0.575252	-1.995136
H	-0.353955	-0.944816	0.392079
H	0.197143	1.128858	-1.804668
C	-0.500413	1.115332	0.786949
N	-0.628026	2.08429	1.443698
C	-1.531367	-0.049837	-2.281021
H	-1.948895	-1.035628	-2.088439
H	-2.274335	0.662084	-1.945249
H	-1.319247	0.054244	-3.357582
F	-2.381363	0.0	0.0
