13

C	0.0	0.0	0.0
C	-0.210069	0.282713	-1.53845
Br	1.956034	0.0	0.0
H	0.167493	1.302435	-1.690009
H	-0.349496	-0.979616	0.300569
H	0.512982	-0.367971	-2.041333
C	-0.503013	1.030236	0.894506
N	-0.617687	1.915931	1.66053
C	-1.53132	0.127004	-2.276717
H	-2.291165	0.789071	-1.88068
H	-1.322101	0.328023	-3.340045
H	-1.9264	-0.881968	-2.172315
F	-2.37843	0.0	0.0
