13

C	0.0	0.0	0.0
C	-0.227075	0.298232	-1.533171
Br	1.956169	0.0	0.0
H	0.567311	-0.248007	-2.049747
H	-0.34436	-0.983944	0.29403
H	0.02106	1.35991	-1.658712
C	-0.50336	1.022763	0.903157
N	-0.622147	1.9242	1.651544
C	-1.517234	-0.0155	-2.278957
H	-2.338544	0.597318	-1.931951
H	-1.819835	-1.049159	-2.115795
H	-1.313414	0.125317	-3.352224
F	-2.379814	0.0	0.0
