13

C	-0.31215	-0.06469	-1.502996
C	0.0	0.0	0.0
Br	-0.053872	1.871721	-2.191648
H	1.09421	0.0	0.0
H	-0.385092	0.909749	0.457493
N	0.544678	-0.992455	-2.097457
H	0.475728	-1.03168	-3.104537
H	1.509259	-0.862563	-1.784163
C	-1.717007	-0.325613	-1.821352
N	-2.84977	-0.534438	-2.058179
C	-0.510977	-1.17944	0.688446
N	-0.959959	-2.102304	1.258953
Br	3.444968	0.0	0.0
