13

C	-0.560308	0.014632	-1.421947
C	0.0	0.0	0.0
Br	0.247628	-1.583453	-2.354578
H	1.091691	0.0	0.0
H	-0.314235	-0.934216	0.478555
N	-1.982849	-0.024228	-1.418083
H	-2.309443	-0.831879	-0.901046
H	-2.356109	-0.054764	-2.359103
C	-0.121786	1.179478	-2.193662
N	0.147527	2.123438	-2.839503
C	-0.5179	1.130392	0.765546
N	-0.935224	2.028788	1.395783
Br	3.457177	0.0	0.0
