16
Coordinates from ORCA-job run
  C   -0.27828870257036      0.24212819264837     -0.28741599282224
  C   1.08053903537095     -0.34291858751969      0.08729014142905
  Cl  -0.56329068531251     -0.14193877060417     -2.04018853921060
  H   1.27587614888251     -0.05202040337818      1.12596003125810
  H   1.84205633428966      0.14290260113378     -0.54110325631706
  C   -0.25651045303082      1.75545593375424     -0.15821385532065
  H   -1.20551039424644      2.18326250690913     -0.48650698934380
  H   -0.09589803307241      2.03123936070211      0.88866263157578
  H   0.54305786481132      2.18993275726858     -0.76191343929193
  C   -1.40633483005599     -0.38042309583105      0.51349188835523
  H   -1.41211786505553     -1.46154096599120      0.39001958230967
  H   -2.36904882372959      0.02990222926765      0.20228929418680
  H   -1.25750329068908     -0.15742842327985      1.57495496125963
  N   1.08817031670652     -1.79812418457915      0.01696425154853
  H   1.94081459630193     -2.15439417899141      0.42969345210082
  H   1.07598878139984     -2.08603497150916     -0.95398416171733
