16
Coordinates from ORCA-job run
  C   -0.35475344659961      0.13254775491675     -0.27420445378639
  C   0.70768854461666     -0.87694173756543      0.15149941724369
  Cl  -0.29335838526387      0.24453087917353     -2.08656723579637
  H   0.45291138050509     -1.84656996129794     -0.30206646097402
  H   0.62173239237187     -0.98887552197873      1.23855908559701
  C   -0.08216960627805      1.51589937102836      0.28575686917849
  H   -0.83611617044037      2.22519148879183     -0.06137584733244
  H   -0.11878802905218      1.47336825022317      1.37911603193679
  H   0.90722504257565      1.85996990304151     -0.00887892335470
  C   -1.73975521708804     -0.36878129969823      0.09696913028662
  H   -1.82293904500915     -0.44209755272587      1.18578084677618
  H   -2.50705709026657      0.31922468128964     -0.26259920887392
  H   -1.93067034821881     -1.35281838233497     -0.33634134197294
  N   2.05553135230374     -0.41282001412046     -0.14936995696119
  H   2.21056025246956     -0.46145545706583     -1.14906217451614
  H   2.73195837337407     -1.02137240167733      0.29378422254932
