16
Coordinates from ORCA-job run
  C   -0.21717160222906      0.26239689348929     -0.28733186386166
  C   1.16289751157314     -0.34367095087946      0.01231606147212
  Cl  -0.57372309683072     -0.03857845851811     -2.03865847523184
  H   1.89401522565365      0.15240691726089     -0.63316172744836
  H   1.41325268588768     -0.07435593781500      1.04551471105150
  C   -0.18384988942475      1.76686511970178     -0.07989117029678
  H   0.01674708345862      1.98866042201392      0.97292663639667
  H   -1.13924174262083      2.21908460313579     -0.35277475507750
  H   0.59898454457600      2.22541340159421     -0.68763434962174
  C   -1.32241732864071     -0.38925367760863      0.52391865338499
  H   -2.28829753187593      0.06382364115167      0.29336836366747
  H   -1.12146183722582     -0.25486169887898      1.59186839860185
  H   -1.39373596827120     -1.45662109443812      0.31151138618349
  N   1.33099533937780     -1.77607730487793     -0.13275448266544
  H   1.06888256355139     -2.06552703162451     -1.06658182761039
  H   0.75512404304073     -2.27970484370677      0.52836444105561
