16
Coordinates from ORCA-job run
  C   -0.33352565962893      0.17479265785936     -0.48511817790675
  C   0.91987641424344     -0.71230590441333     -0.58435383980245
  Cl  -0.92111651881147      0.38113165754850     -2.18369834623477
  H   0.63811442588766     -1.64971528215054     -1.07310325570125
  H   1.63805207667490     -0.21762266302178     -1.24504689526895
  C   -0.01409583600640      1.55703292640984      0.05863800607815
  H   0.77082852418612      2.03477684377240     -0.53202868914637
  H   0.31897108348199      1.48558604141092      1.09783227782293
  H   -0.89898813403387      2.19563788221743      0.03208677888200
  C   -1.44594705744934     -0.49361054160128      0.30485374131590
  H   -1.68071165005727     -1.47627407530005     -0.11046734776003
  H   -2.35308981085439      0.11312501076145      0.28212497624079
  H   -1.14665383609866     -0.61345336522766      1.34985335913012
  N   1.59285921887386     -1.03249201648532      0.66261110188191
  H   0.99034175277342     -1.54356430626422      1.29295007021658
  H   1.92708500681893     -0.20204486551570      1.13186624025219
