17

C	0.0	0.0	0.0
C	-0.231606	0.064721	-1.523758
Cl	1.8067	0.0	0.0
H	0.223494	0.979247	-1.903621
H	0.248359	-0.800821	-1.980789
C	-0.529198	1.2238	0.71076
H	-1.626912	1.110361	0.625521
H	-0.172981	2.14233	0.234951
H	-0.210096	1.217269	1.75814
C	-0.527945	-1.28004	0.605001
H	-1.625572	-1.16151	0.530503
H	-0.208476	-1.359796	1.649231
H	-0.170967	-2.155064	0.054397
N	-1.618557	0.065744	-2.085829
O	-2.102037	1.159914	-2.354837
O	-2.082132	-1.023511	-2.405461
F	-2.917192	0.0	0.0
