17

C	0.0	0.0	0.0
C	-0.584355	-0.016131	-1.402785
Cl	1.800946	0.0	0.0
H	-0.309628	0.886238	-1.947315
H	-1.682534	-0.094447	-1.200204
C	-0.490951	1.294933	0.634731
H	-0.13458	2.167259	0.078443
H	-1.586859	1.216592	0.604658
H	-0.129584	1.365135	1.664237
C	-0.476917	-1.180614	0.833517
H	-0.114151	-1.06703	1.859297
H	-1.571816	-1.122548	0.793455
H	-0.119464	-2.128708	0.432942
N	-0.116708	-1.13824	-2.246355
O	-0.460073	-2.281913	-1.947548
O	0.589774	-0.866448	-3.222053
F	-2.98873	0.0	0.0
