17

C	0.0	0.0	0.0
C	-0.230245	0.044873	-1.525677
Cl	1.80659	0.0	0.0
H	0.245905	-0.827883	-1.972341
H	0.22663	0.953683	-1.917246
C	-0.530021	1.232625	0.694049
H	-0.170038	2.145306	0.210371
H	-0.216551	1.236031	1.742625
H	-1.627357	1.120383	0.607514
C	-0.528769	-1.271802	0.620532
H	-1.626213	-1.156121	0.542383
H	-0.213745	-1.336403	1.666694
H	-0.169318	-2.154389	0.083845
N	-1.619664	0.044881	-2.084895
O	-2.102845	1.1382	-2.358089
O	-2.085708	-1.045492	-2.397418
F	-2.921665	0.0	0.0
