17

C	0.0	0.0	0.0
C	-0.533978	0.131203	-1.441466
Br	1.955515	0.0	0.0
H	-1.611056	0.276608	-1.291838
N	-0.513019	1.087451	0.786461
H	-1.537638	1.017275	0.714727
H	-0.261662	0.952316	1.760193
C	-0.331059	-1.336278	0.535259
N	-0.566068	-2.406686	0.963424
N	-0.249402	-1.095427	-2.18743
H	-0.945868	-1.789913	-1.931669
H	-0.385703	-0.90087	-3.172987
C	0.041571	1.337819	-2.159253
H	-0.578362	1.566118	-3.032353
H	1.061729	1.134765	-2.496074
H	0.044629	2.206092	-1.499934
Cl	-3.619922	0.0	0.0
