17

C	0.0	0.0	0.0
C	-0.534902	0.078869	-1.442011
Br	1.955811	0.0	0.0
H	-1.612209	0.219622	-1.290722
N	-0.512257	1.113514	0.750246
H	-1.53616	1.037582	0.682253
H	-0.259076	1.010299	1.727091
C	-0.326667	-1.318802	0.583432
N	-0.551335	-2.371975	1.055871
N	-0.243063	-1.16763	-2.150187
H	-0.928242	-1.861168	-1.863806
H	-0.396084	-1.006825	-3.139703
C	0.029129	1.267072	-2.199541
H	-0.596349	1.465385	-3.075659
H	0.02985	2.154893	-1.567062
H	1.048275	1.059562	-2.534528
Cl	-3.6201	0.0	0.0
