17

C	0.0	0.0	0.0
C	-0.35352	0.157666	-1.538712
Br	1.956003	0.0	0.0
H	0.450322	-0.361709	-2.066236
N	-0.582682	1.044744	0.785515
H	-1.593475	1.017156	0.612558
H	-0.446884	0.852092	1.772352
C	-0.316062	-1.358918	0.473626
N	-0.553954	-2.439843	0.873386
N	-0.328236	1.544983	-1.964139
H	-1.147206	2.013517	-1.59201
H	0.483017	2.009668	-1.569914
C	-1.662714	-0.491031	-1.945041
H	-1.781621	-0.341883	-3.021009
H	-1.64814	-1.564058	-1.744628
H	-2.534975	-0.086131	-1.429742
Cl	-4.3551	0.0	0.0
