17

C	0.0	0.0	0.0
C	-0.513608	0.159498	-1.452728
Br	1.960522	0.0	0.0
H	-1.59579	0.269895	-1.300157
N	-0.50374	0.964129	0.939507
H	-1.523465	0.833679	0.951821
H	-0.312429	1.897077	0.589667
C	-0.353811	-1.345881	0.483057
N	-0.588911	-2.441861	0.835866
N	-0.182565	-1.030447	-2.240008
H	-0.823015	-1.772534	-1.97313
H	-0.375359	-0.824935	-3.214334
C	0.028648	1.393159	-2.151047
H	-0.04757	2.285489	-1.526775
H	-0.561093	1.580829	-3.053633
H	1.072785	1.24678	-2.436388
Cl	-3.604113	0.0	0.0
