17

C	0.0	0.0	0.0
C	-0.424589	-0.563042	-1.417221
Br	2.052052	0.0	0.0
H	0.464817	-0.521537	-2.049662
N	-0.488889	1.2847	0.276684
H	-1.127564	1.298057	1.06119
H	-0.946388	1.637321	-0.561022
C	-0.278734	-0.922863	1.102815
N	-0.469667	-1.673955	1.986441
N	-1.398589	0.353963	-1.989945
H	-1.496364	0.161213	-2.978434
H	-2.308594	0.211084	-1.534451
C	-0.904392	-2.009559	-1.319567
H	-0.153304	-2.663439	-0.867771
H	-1.11756	-2.377118	-2.328127
H	-1.826808	-2.053394	-0.736502
Cl	-3.901799	0.0	0.0
