17

C	0.0	0.0	0.0
C	-0.34617	0.179837	-1.501173
Br	2.074481	0.0	0.0
H	0.344022	-0.453702	-2.071424
N	-0.543996	0.973777	0.828989
H	-0.818622	1.77832	0.274827
H	-1.272269	0.643113	1.44605
C	-0.274496	-1.359111	0.459229
N	-0.470802	-2.468108	0.795419
N	-0.182258	1.60047	-1.793553
H	0.78909	1.814806	-1.981098
H	-0.74096	1.850314	-2.598952
C	-1.776971	-0.251124	-1.773554
H	-2.002647	-0.073501	-2.831008
H	-1.910976	-1.316781	-1.583395
H	-2.519608	0.265663	-1.163628
Cl	-4.72252	0.0	0.0
