17

C	0.0	0.0	0.0
C	-0.434191	0.067105	-1.499616
Br	1.954909	0.0	0.0
H	0.285942	0.743904	-1.985683
C	-0.337289	1.26687	0.659683
N	-0.527857	2.271227	1.238569
C	-0.591883	-1.170505	0.755078
H	-0.24356	-1.173072	1.790569
H	-0.320921	-2.096373	0.252105
H	-1.684481	-1.044457	0.731182
N	-1.728733	0.652956	-1.567576
H	-2.496139	0.296468	-0.916485
H	-2.078797	0.678769	-2.51738
N	-0.295548	-1.291151	-2.071879
H	0.593235	-1.377287	-2.549421
H	-1.038005	-1.416299	-2.743694
H	-3.696026	0.0	0.0
