17

C	0.0	0.0	0.0
C	-0.604851	0.00686	-1.392856
Br	1.980843	0.0	0.0
H	-1.694827	0.042373	-1.132609
C	-0.325151	1.259169	0.684208
N	-0.492609	2.237854	1.313054
C	-0.512154	-1.175103	0.80822
H	-1.611687	-1.068277	0.790308
H	-0.138517	-1.136927	1.833635
H	-0.217147	-2.104284	0.322882
N	-0.332532	-1.255099	-2.063517
H	-1.068453	-1.429727	-2.738116
H	0.552012	-1.200058	-2.559275
N	-0.256088	1.234207	-2.091325
H	0.657799	1.149341	-2.521493
H	-0.942775	1.413284	-2.812282
H	-3.254368	0.0	0.0
