17

C	0.0	0.0	0.0
C	-0.640234	-0.101137	-1.382076
Br	1.959555	0.0	0.0
H	-1.720107	-0.049415	-1.095365
C	-0.344669	1.298515	0.596599
N	-0.545068	2.358283	1.065356
C	-0.512287	-1.126986	0.878758
H	-0.114118	-1.045091	1.892408
H	-0.219525	-2.075002	0.428294
H	-1.610468	-1.025039	0.880795
N	-0.365549	-1.39121	-1.98634
H	-1.235975	-1.785583	-2.322568
H	0.255515	-1.234237	-2.771721
N	-0.232919	0.990801	-2.271284
H	-1.054122	1.264246	-2.802758
H	0.032464	1.805078	-1.727457
H	-3.301881	0.0	0.0
