17

C	0.0	0.0	0.0
C	-0.619148	0.06895	-1.392584
Br	1.967599	0.0	0.0
H	-1.680072	0.300032	-1.14399
C	-0.325378	1.247271	0.707668
N	-0.518114	2.23106	1.320721
C	-0.526308	-1.190359	0.777822
H	-0.185824	-2.112801	0.304958
H	-0.183479	-1.162199	1.813903
H	-1.626654	-1.09886	0.735392
N	-0.514384	-1.244095	-2.050528
H	-1.303904	-1.795659	-1.718309
H	-0.691008	-1.083499	-3.037098
N	-0.041537	1.145525	-2.156903
H	-0.667833	1.407667	-2.90745
H	0.848832	0.853972	-2.546141
H	-3.291012	0.0	0.0
