17

C	0.0	0.0	0.0
C	-0.418859	-0.279505	-1.493065
Br	1.976571	0.0	0.0
H	0.24158	0.366812	-2.093642
C	-0.338177	1.389102	0.312866
N	-0.561318	2.521917	0.53487
C	-0.590458	-0.964711	1.002116
H	-0.247935	-0.732946	2.01335
H	-0.316156	-1.981362	0.72454
H	-1.684857	-0.845996	0.943954
N	-1.774161	0.048913	-1.812201
H	-2.498854	-0.140321	-1.0578
H	-1.848529	1.045989	-1.980449
N	-0.196863	-1.700214	-1.759097
H	-0.778793	-1.909549	-2.561662
H	0.772094	-1.864546	-2.001757
H	-3.652424	0.0	0.0
