17

C	0.0	0.0	0.0
C	-0.533923	-0.04497	-1.472353
Br	1.962984	0.0	0.0
H	0.318283	0.143387	-2.131663
C	-0.305072	1.29379	0.631832
N	-0.455712	2.279359	1.255044
C	-0.51403	-1.113103	0.900398
H	-0.235398	-2.079513	0.483015
H	-0.104997	-0.997211	1.905967
H	-1.607281	-1.009147	0.925434
N	-1.488299	1.033185	-1.643906
H	-1.804073	1.015991	-2.60986
H	-2.315324	0.799041	-1.050419
N	-1.002195	-1.408226	-1.751979
H	-1.925813	-1.471438	-1.317993
H	-1.154636	-1.469568	-2.754145
H	-3.426856	0.0	0.0
