12
Coordinates from ORCA-job run
  C   -0.33649272295978      0.13625413831509     -0.70109820074116
  C   0.87730240546845     -0.71987578698134     -0.33580420411622
  Br  0.27173649962103      1.85685992775234     -1.39979646278676
  H   1.54975228816777     -0.81443223430147     -1.19184666795915
  H   -0.84773688066922     -0.34060743080119     -1.53976611424572
  H   0.52768009104262     -1.72600353244432     -0.07618223224165
  C   -1.28728262349928      0.35041266794565      0.46067093962526
  H   -1.62675220187261     -0.61909678916981      0.83947683630015
  H   -0.79501491483724      0.88851957082544      1.27241567918411
  H   -2.16012587216404      0.92294272493310      0.14551244197735
  C   1.62269766398210     -0.18159138320726      0.80086588670879
  N   2.20323626772020      0.24561812713377      1.72655209829501
