16
Coordinates from ORCA-job run
  C   -0.44770777542688     -0.59871822427579     -0.04028963124097
  C   1.03486006402110     -0.22174595251322     -0.14011730351012
  H   -0.57607467731756     -1.53399155325161     -0.59347466969255
  H   1.62594290366886     -0.89751334027590      0.48328701188445
  C   -1.38642684986300      0.47509874564886     -0.54189490531275
  H   -1.34095116739663      1.36409673821991      0.08693465311994
  H   -1.11698476985892      0.74379146653323     -1.56593349727436
  H   -2.41304340699281      0.11207458056703     -0.53516026060633
  N   -0.73725308758432     -0.99181278826504      1.39568177095797
  O   0.01188525959512     -1.83517091098985      1.87726349694591
  O   -1.70430440906743     -0.48202035526507      1.94689073282492
  N   1.21746509963040      1.16131801077100      0.44699288022055
  O   1.55900034011509      2.07284263031317     -0.29492093241293
  O   0.95611366175386      1.23729966443668      1.64245256915658
  C   1.48859686696471     -0.25745592394587     -1.52304017903769
  N   1.82788194775841     -0.34809278770753     -2.64367173602263
