16
Coordinates from ORCA-job run
  C   -0.33945921032778     -0.59757663653592     -0.08003519200407
  C   0.86160580657515      0.28551791883796     -0.38262422046635
  H   -0.03534739964996     -1.64176352741936     -0.16757566957345
  H   1.20797002235539      0.03932042383459     -1.39354150957884
  C   -1.53135334365269     -0.28956439245050     -0.97014505272745
  H   -2.34235696744133     -0.98019328510445     -0.74353062518970
  H   -1.25489137964386     -0.40951457294572     -2.01993863591524
  H   -1.88093046966719      0.73293944115057     -0.81466980911091
  N   -0.74677395755421     -0.43931249394080      1.36335990435334
  O   -1.66940707318029     -1.15468802247391      1.73464273281283
  O   -0.13579054145486      0.37612746396388      2.04953802204007
  N   2.04709147005653     -0.06588333957929      0.50485140360058
  O   2.17150117560581     -1.25653809873880      0.76197426724567
  O   2.80001339126400      0.84071136564921      0.82207413196470
  C   0.57028878697976      1.71158032013101     -0.31752983657836
  N   0.27583968973555      2.84783743562151     -0.34784991087278
