16
Coordinates from ORCA-job run
  C   -0.40797301635405     -0.59456172619067     -0.19281354701480
  C   1.03712181522740     -0.11526625455500     -0.10765965471124
  H   -0.40816175756383     -1.42963813116370     -0.90305573854668
  H   1.66495401666934     -0.90802958790414      0.30920798697847
  C   -1.41784892702175      0.45110720577978     -0.61382745967754
  H   -1.09257157959854      0.90720120369497     -1.55207089148642
  H   -1.52954513551092      1.22090235346022      0.14732077905581
  H   -2.38936200310254     -0.01241757072142     -0.77521502363709
  N   -0.77870020801676     -1.25478287470983      1.12220712326967
  O   -1.93122708094065     -1.12733978011752      1.50978819821492
  O   0.09663453209747     -1.91771671503646      1.66870486399430
  N   1.20831128138655      1.04249920268683      0.86244724820110
  O   0.37770804309825      1.12221106837619      1.76101902422227
  O   2.18363789698535      1.76138083116056      0.69304689102505
  C   1.52755789296015      0.28658695475916     -1.41904902229113
  N   1.86046422968452      0.56886382048103     -2.50905077759668
