14

C	-0.511068	0.003753	-1.421636
C	0.0	0.0	0.0
F	0.104334	-0.893229	-2.206817
H	1.088825	0.0	0.0
H	-0.363622	0.870503	0.541243
C	-1.972362	-0.142335	-1.536965
N	-3.141155	-0.21767	-1.627761
N	-0.206007	1.409272	-2.000452
O	-0.69786	2.341512	-1.37714
O	0.452225	1.457516	-3.023505
N	-0.465698	-1.199521	0.736312
O	-0.876841	-2.161191	0.085952
O	-0.373721	-1.15068	1.957815
Cl	3.196956	0.0	0.0
