14

C	-0.648206	0.074772	-1.358808
C	0.0	0.0	0.0
F	-2.007836	0.080376	-1.234652
H	1.089997	0.0	0.0
H	-0.34176	0.860193	0.576767
C	-0.235515	1.294097	-2.063828
N	0.054489	2.304999	-2.587038
N	-0.284776	-1.101919	-2.286043
O	0.904118	-1.197788	-2.535795
O	-1.207421	-1.780105	-2.70545
N	-0.468484	-1.200718	0.735056
O	-0.704316	-1.063673	1.931821
O	-0.548637	-2.253687	0.1055
Cl	3.208335	0.0	0.0
