14

C	-0.529365	0.025189	-1.411379
C	0.0	0.0	0.0
F	0.102424	-0.831103	-2.238749
H	1.088921	0.0	0.0
H	-0.357335	0.856017	0.565338
C	-1.98609	-0.186873	-1.489571
N	-3.155357	-0.297274	-1.500314
N	-0.306559	1.433379	-2.020729
O	-0.486428	1.493599	-3.228781
O	0.000458	2.348124	-1.270631
N	-0.457029	-1.218452	0.707566
O	-0.550217	-1.135935	1.928671
O	-0.671181	-2.230066	0.040759
Cl	3.186724	0.0	0.0
