14

C	-0.506628	-0.024636	-1.422381
C	0.0	0.0	0.0
F	-0.178813	1.098594	-2.090629
H	1.089033	0.0	0.0
H	-0.363685	-0.869264	0.547682
C	-0.002778	-1.204428	-2.139424
N	0.357135	-2.146752	-2.74109
N	-2.047141	-0.166081	-1.484925
O	-2.504354	-1.065072	-0.791867
O	-2.651861	0.578501	-2.234914
N	-0.498511	1.204131	0.717519
O	-1.583268	1.673441	0.366115
O	0.178436	1.604199	1.653777
Cl	3.237354	0.0	0.0
