14

C	-0.497455	0.01695	-1.418782
C	0.0	0.0	0.0
F	-0.188539	1.182399	-2.061378
H	1.09279	0.0	0.0
H	-0.346891	0.919873	0.477782
C	-0.042591	-1.130526	-2.21187
N	0.332963	-2.042553	-2.8492
N	-2.04219	-0.007025	-1.427386
O	-2.592148	-0.467671	-2.422694
O	-2.607035	0.517357	-0.473218
N	-0.510456	-1.222855	0.61123
H	-1.235109	-1.01525	1.284443
H	0.249979	-1.700986	1.076685
Cl	3.366843	0.0	0.0
