14

C	-0.527772	-0.020349	-1.412834
C	0.0	0.0	0.0
F	-0.062449	-1.098343	-2.10184
H	1.093042	0.0	0.0
H	-0.332704	-0.942471	0.44665
C	-2.000811	-0.024185	-1.465024
N	-3.173303	-0.076024	-1.476608
N	-0.077328	1.203735	-2.220752
O	0.626459	2.040768	-1.675928
O	-0.46568	1.215507	-3.386251
N	-0.597638	1.140199	0.694218
H	0.090824	1.881582	0.719478
H	-0.800805	0.885433	1.649342
Cl	3.425184	0.0	0.0
