14

C	-0.603327	0.05461	-1.387077
C	0.0	0.0	0.0
F	-1.947882	0.307424	-1.301854
H	1.090382	0.0	0.0
H	-0.317547	0.932451	0.485062
C	-0.009204	1.057817	-2.277708
N	0.39413	1.902581	-2.986468
N	-0.455598	-1.30794	-2.062843
O	-1.475509	-1.94158	-2.285245
O	0.696155	-1.634508	-2.305929
N	-0.487112	-1.20159	0.664925
H	0.290271	-1.640872	1.137956
H	-1.208278	-0.992642	1.337695
Cl	3.37918	0.0	0.0
