14

C	-0.514567	-0.000261	-1.414971
C	0.0	0.0	0.0
F	-0.225005	1.165793	-2.066433
H	1.093643	0.0	0.0
H	-0.348431	0.925327	0.463726
C	-0.055012	-1.145222	-2.208144
N	0.335589	-2.052139	-2.842828
N	-2.056092	-0.048346	-1.380589
O	-2.638042	-0.786571	-2.167152
O	-2.588501	0.719779	-0.587128
N	-0.52635	-1.205132	0.637541
H	0.247482	-1.746929	0.998055
H	-1.138357	-0.969681	1.40537
Cl	3.37802	0.0	0.0
