14

C	-0.445171	0.215813	-1.457293
C	0.0	0.0	0.0
F	-0.17	-0.88217	-2.203298
H	1.091412	0.0	0.0
H	-0.348327	-1.008876	0.243848
C	-1.881322	0.525825	-1.565399
N	-3.037319	0.736436	-1.586604
N	0.293642	1.398086	-2.082414
O	1.039452	1.175564	-3.018737
O	0.052313	2.481601	-1.558324
N	-0.480465	0.952357	0.97025
H	-1.473295	1.128853	0.882075
H	0.01799	1.82541	0.870162
Cl	3.377591	0.0	0.0
