14

C	-0.561565	-0.024451	-1.411948
C	0.0	0.0	0.0
F	-0.083778	-1.093454	-2.103641
H	1.091218	0.0	0.0
H	-0.319399	-0.94551	0.455264
C	-2.033556	-0.085143	-1.40244
N	-3.194321	-0.238012	-1.313147
N	-0.156075	1.229322	-2.180398
O	0.956816	1.208277	-2.682209
O	-0.968171	2.149091	-2.206086
N	-0.502854	1.179159	0.688195
H	0.276913	1.673643	1.098746
H	-1.156366	0.940857	1.418753
Cl	3.377221	0.0	0.0
