14

C	-0.502041	-0.000144	-1.417016
C	0.0	0.0	0.0
F	-0.204186	1.160945	-2.073619
H	1.092778	0.0	0.0
H	-0.346357	0.924733	0.467816
C	-0.04044	-1.151594	-2.198955
N	0.341545	-2.065647	-2.82736
N	-2.045589	-0.040691	-1.421951
O	-2.611902	0.522866	-0.491866
O	-2.594527	-0.553264	-2.391394
N	-0.51079	-1.214857	0.62727
H	-1.223455	-0.998762	1.309866
H	0.252543	-1.694272	1.085256
Cl	3.374004	0.0	0.0
