14

C	-0.604359	0.071573	-1.387384
C	0.0	0.0	0.0
F	-1.947225	0.337261	-1.300066
H	1.090378	0.0	0.0
H	-0.31798	0.928935	0.492575
C	0.003302	1.074094	-2.269311
N	0.434612	1.91554	-2.966609
N	-0.472468	-1.288289	-2.073814
O	-1.499843	-1.901185	-2.313605
O	0.67503	-1.631915	-2.307149
N	-0.489236	-1.206094	0.655581
H	-1.200373	-0.99751	1.339416
H	0.289905	-1.654266	1.116071
Cl	3.378675	0.0	0.0
