14

C	-0.598419	-0.005711	-1.388703
C	0.0	0.0	0.0
Cl	0.050579	-1.419862	-2.24756
H	1.089331	0.0	0.0
H	-0.318835	-0.902776	0.524631
C	-2.057235	-0.082336	-1.385856
N	-3.223297	-0.215958	-1.331646
N	-0.191198	1.223234	-2.218162
O	0.831429	1.794765	-1.887942
O	-0.917235	1.46993	-3.173917
N	-0.507371	1.144576	0.79646
O	-0.281006	1.115127	1.999879
O	-1.11259	2.04079	0.20158
Cl	3.229127	0.0	0.0
