14

C	-0.627579	0.047977	-1.380008
C	0.0	0.0	0.0
Cl	-2.399594	0.064274	-1.268189
H	1.090885	0.0	0.0
H	-0.343996	0.865373	0.565653
C	-0.193596	1.254441	-2.076168
N	0.148975	2.221827	-2.648472
N	-0.171725	-1.144148	-2.279524
O	1.033054	-1.169197	-2.454532
O	-1.019571	-1.89153	-2.731206
N	-0.452061	-1.196653	0.747037
O	-0.498905	-2.262166	0.134557
O	-0.70799	-1.043977	1.937902
Cl	3.211984	0.0	0.0
