12

C	0.0	0.0	0.0
C	-0.651198	-0.063514	-1.357114
Br	2.010706	0.0	0.0
H	-0.517647	0.87044	-1.913106
H	-0.271119	-0.883434	0.575018
H	-1.765427	-0.116273	-1.0148
N	-0.44235	1.16194	0.672856
H	0.065786	1.986788	0.398784
H	-0.471652	1.05562	1.67207
C	-0.258939	-1.199235	-2.168185
N	0.037638	-2.127872	-2.827195
H	-3.120457	0.0	0.0
