12

C	0.0	0.0	0.0
C	-0.598661	0.052571	-1.382724
Br	2.020842	0.0	0.0
H	-1.717858	0.012928	-1.107267
H	-0.287458	-0.931459	0.483854
H	-0.307355	-0.810059	-1.987028
N	-0.432032	1.096698	0.762693
H	-0.29736	0.981138	1.753111
H	-0.05209	1.974406	0.438321
C	-0.266856	1.283137	-2.076941
N	-0.005867	2.28864	-2.628453
H	-3.124515	0.0	0.0
