12

C	0.0	0.0	0.0
C	-0.509462	0.051356	-1.442871
Br	1.958499	0.0	0.0
H	-0.14464	-0.790716	-2.038394
H	-0.290609	-0.970353	0.405149
H	-1.614577	-0.026382	-1.288466
N	-0.533175	1.012028	0.853177
H	-0.390518	1.919641	0.417708
H	-1.55762	0.809521	0.814471
C	-0.186648	1.301428	-2.112085
N	0.073864	2.316357	-2.644335
H	-2.992647	0.0	0.0
