18

C	0.0	0.0	0.0
C	-0.492877	-0.062741	-1.471006
Cl	1.868583	0.0	0.0
H	-1.575129	-0.220793	-1.313989
C	-0.429064	1.323206	0.608257
H	-0.113456	1.325104	1.652434
H	-1.522771	1.318558	0.538482
H	0.018636	2.176678	0.098128
N	-0.500665	-1.052538	0.826482
H	-1.525854	-0.867304	0.759272
H	-0.3352	-1.940744	0.364653
N	0.080574	-1.273497	-2.1429
O	0.992121	-1.118693	-2.953355
O	-0.372402	-2.372886	-1.810228
N	-0.259495	1.0702	-2.314423
H	-0.919559	1.787833	-2.04909
H	0.684557	1.41816	-2.196514
F	-2.858156	0.0	0.0
