18

C	0.0	0.0	0.0
C	-0.58933	-0.078305	-1.40401
Cl	1.848733	0.0	0.0
H	-1.684215	0.010501	-1.162173
C	-0.528577	1.253492	0.657077
H	-0.13728	1.332585	1.675023
H	-1.624723	1.090473	0.633338
H	-0.238955	2.145426	0.099439
N	-0.43336	-1.15459	0.719368
H	-0.684708	-0.948991	1.673346
H	0.214843	-1.922556	0.636256
N	-0.449672	-1.454921	-2.010754
O	0.49254	-2.182849	-1.686833
O	-1.287779	-1.749826	-2.858087
N	-0.098298	0.856023	-2.377014
H	-0.689048	1.672949	-2.406929
H	0.85502	1.124194	-2.165612
F	-2.959012	0.0	0.0
