18

C	0.0	0.0	0.0
C	-0.337453	0.03884	-1.558612
Cl	1.791433	0.0	0.0
H	0.52999	-0.311978	-2.12258
C	-0.500596	1.229634	0.73615
H	-0.252432	1.108357	1.79228
H	-0.03562	2.141521	0.362329
H	-1.587831	1.238871	0.605312
N	-0.544632	-1.156891	0.643462
H	-1.561059	-0.957504	0.640126
H	-0.415222	-1.956736	0.03179
N	-0.379913	1.527303	-1.99857
O	0.703512	2.095932	-2.158883
O	-1.475511	2.054357	-2.174017
N	-1.495244	-0.68214	-1.881688
H	-1.726277	-0.558218	-2.858702
H	-2.288664	-0.397326	-1.242286
F	-3.058544	0.0	0.0
