16

C	0.0	0.0	0.0
C	-0.485369	-0.076893	-1.458479
F	1.404536	0.0	0.0
H	-0.240149	0.854827	-1.972442
C	-0.357106	1.285027	0.643696
N	-0.560021	2.311372	1.180584
N	-0.512042	-1.094283	0.739106
H	-0.3465	-1.91083	0.127798
H	-0.006689	-1.176974	1.61254
N	-1.932041	-0.341823	-1.471509
H	-2.295902	-0.026538	-2.369101
H	-1.932016	-1.37597	-1.489489
N	0.153492	-1.159697	-2.215387
O	-0.126487	-2.370282	-1.650627
O	1.298521	-0.878445	-2.769044
H	-2.861987	0.0	0.0
