16

C	0.0	0.0	0.0
C	-0.490425	0.133403	-1.449086
F	1.389559	0.0	0.0
H	-1.591218	0.120413	-1.349877
C	-0.385039	1.20023	0.785024
N	-0.521345	2.189002	1.403678
N	-0.536734	-1.154477	0.633791
H	-0.404918	-1.9413	0.004227
H	-1.569496	-0.937517	0.628652
N	0.008932	-0.88984	-2.320116
H	0.897568	-1.252133	-2.003634
H	-0.666258	-1.629275	-2.443655
N	-0.145517	1.458322	-2.085594
O	0.908735	2.013571	-1.775412
O	-0.935828	1.871582	-2.930801
H	-2.912704	0.0	0.0
