16

C	0.0	0.0	0.0
C	-0.565595	0.093118	-1.413545
F	1.366874	0.0	0.0
H	-1.65722	0.27812	-1.240418
C	-0.362617	1.204643	0.811562
N	-0.56124	2.085903	1.563112
N	-0.537898	-1.198612	0.564974
H	-0.301747	-1.223623	1.553763
H	-1.577436	-1.02844	0.498304
N	-0.267533	-1.101282	-2.167299
H	-1.04132	-1.288146	-2.794274
H	-0.224351	-1.859222	-1.494008
N	-0.037999	1.270567	-2.172386
O	0.538162	2.177811	-1.569505
O	-0.295067	1.28026	-3.377211
H	-2.951546	0.0	0.0
