17

C	0.0	0.0	0.0
C	-0.484055	-0.072026	-1.461564
F	1.382213	0.0	0.0
H	-1.547742	-0.313317	-1.415418
N	-0.590576	1.029034	0.682348
H	-1.648386	0.800466	0.501806
H	-0.354395	0.976801	1.668936
N	-0.279467	-1.399108	0.677222
O	-0.427175	-2.404809	-0.012403
O	-0.275171	-1.396345	1.903988
N	0.279634	-0.895471	-2.363097
H	1.265774	-0.755355	-2.172054
H	0.040997	-1.857354	-2.159763
N	-0.379883	1.323271	-2.016574
O	0.752525	1.801065	-2.093009
O	-1.4062	1.867127	-2.414526
F	-2.761282	0.0	0.0
