17

C	0.0	0.0	0.0
C	-0.288276	0.329552	-1.52321
F	1.366986	0.0	0.0
H	0.61465	0.872271	-1.824296
N	-0.5495	0.91153	0.909276
H	-1.577801	0.719062	0.816356
H	-0.385971	1.839534	0.534984
N	-0.424638	-1.401453	0.453072
O	-0.847539	-2.194357	-0.376469
O	-0.244656	-1.639306	1.640917
N	-1.44305	1.088597	-1.744391
H	-2.235956	0.656842	-1.199274
H	-1.62903	1.167888	-2.734202
N	-0.137282	-0.917837	-2.441478
O	-1.068385	-1.20232	-3.184901
O	0.955177	-1.478002	-2.429913
F	-2.853243	0.0	0.0
