17

C	0.0	0.0	0.0
C	-0.324509	0.044289	-1.533791
F	1.354505	0.0	0.0
H	0.550226	0.561862	-1.942324
N	-0.582648	1.051326	0.694327
H	-1.612545	0.898166	0.551085
H	-0.356486	0.941654	1.677913
N	-0.350056	-1.361908	0.677077
O	0.033756	-1.44173	1.844986
O	-0.986087	-2.215296	0.077668
N	-1.515504	0.642182	-1.925419
H	-2.305839	0.318306	-1.307778
H	-1.671908	0.504184	-2.912638
N	-0.076584	-1.380537	-2.167075
O	-0.917412	-1.799237	-2.953818
O	0.996532	-1.92861	-1.927748
F	-2.93429	0.0	0.0
