17

C	0.0	0.0	0.0
C	-0.299609	0.072776	-1.563975
F	1.368168	0.0	0.0
H	0.522081	0.711524	-1.905427
N	-0.581744	1.018752	0.761333
H	-1.61229	0.808547	0.660177
H	-0.384855	1.904308	0.307201
N	-0.395214	-1.327049	0.648856
O	-0.933159	-2.18278	-0.041766
O	-0.085517	-1.444022	1.829949
N	-1.533311	0.549123	-2.036699
H	-2.283148	0.294004	-1.343639
H	-1.488297	1.550862	-2.149126
N	0.050218	-1.267507	-2.252883
O	1.206536	-1.668095	-2.107439
O	-0.804922	-1.826554	-2.920199
F	-2.891498	0.0	0.0
