17

C	0.0	0.0	0.0
C	-0.447896	-0.211984	-1.501378
F	1.377269	0.0	0.0
H	-0.679051	0.799205	-1.835879
N	-0.560421	1.150298	0.520925
H	-0.363134	1.192066	1.514776
H	-1.593485	0.962862	0.386864
N	-0.274285	-1.252786	0.889169
O	-0.232333	-2.363591	0.370366
O	-0.416843	-1.040391	2.089698
N	-1.491476	-1.098721	-1.886097
H	-1.23679	-2.027634	-1.576982
H	-2.289378	-0.775561	-1.299951
N	0.79547	-0.587363	-2.282328
O	1.086548	-1.778252	-2.347232
O	1.429891	0.322661	-2.813811
F	-2.821288	0.0	0.0
