17

C	0.0	0.0	0.0
C	-0.275458	-0.144141	-1.544588
F	1.370246	0.0	0.0
H	0.194913	0.771301	-1.913766
N	-0.606401	1.144664	0.497158
H	-1.63327	0.936541	0.358976
H	-0.427328	1.189273	1.495602
N	-0.33677	-1.251273	0.845575
O	-0.354168	-1.069742	2.062689
O	-0.500252	-2.323643	0.279866
N	-1.560983	-0.381389	-2.02786
H	-1.816382	0.327756	-2.699346
H	-2.270503	-0.390624	-1.247167
N	0.723699	-1.194328	-2.15911
O	1.829905	-0.756286	-2.495961
O	0.339844	-2.337582	-2.364868
F	-2.940687	0.0	0.0
