14

C	0.0	0.0	0.0
C	-0.384397	0.038083	-1.516868
Br	1.949414	0.0	0.0
H	0.427128	0.51132	-2.07753
H	-0.2811	0.98078	0.385168
N	-0.599225	-0.998307	0.812819
H	-1.607955	-0.765365	0.825783
H	-0.504883	-1.908458	0.373641
N	-1.583301	0.832519	-1.682101
H	-2.341388	0.489225	-1.023178
H	-1.936187	0.718534	-2.628193
C	-0.450843	-1.357378	-2.017797
N	-0.50334	-2.451295	-2.446763
H	-3.329728	0.0	0.0
