14

C	0.0	0.0	0.0
C	-0.521555	0.070546	-1.443078
Br	1.945616	0.0	0.0
H	-1.623557	0.13314	-1.262971
H	-0.258828	0.938043	0.505866
N	-0.5666	-1.176644	0.588306
H	-1.59696	-0.965368	0.509783
H	-0.345923	-1.188304	1.579421
N	-0.231841	-1.092856	-2.271106
H	-0.623988	-1.887288	-1.774013
H	0.776494	-1.229343	-2.279137
C	-0.087852	1.293504	-2.11574
N	0.260769	2.278722	-2.653064
H	-2.977275	0.0	0.0
