14

C	0.0	0.0	0.0
C	-0.531915	0.069731	-1.438207
Br	1.945622	0.0	0.0
H	-1.631102	0.155472	-1.24688
H	-0.25254	0.943005	0.500675
N	-0.569153	-1.168264	0.600791
H	-1.598571	-0.957073	0.517602
H	-0.353672	-1.165564	1.59314
N	-0.282818	-1.106691	-2.258267
H	0.713378	-1.304672	-2.233785
H	-0.739992	-1.875466	-1.780829
C	-0.077328	1.275843	-2.127137
N	0.287135	2.245887	-2.681321
H	-2.983526	0.0	0.0
