18

C	-0.41347	-0.009963	-1.466225
C	0.0	0.0	0.0
Br	0.217462	1.772538	-2.304315
H	1.090711	0.0	0.0
N	0.26965	-1.092611	-2.064224
H	1.256918	-1.06351	-1.792299
H	0.186826	-1.071729	-3.072264
N	-1.831629	0.047465	-1.677193
H	-2.036573	-0.001119	-2.668242
H	-2.247417	-0.743958	-1.198498
N	-0.446202	-1.315448	0.571571
O	0.390061	-2.188199	0.773017
O	-1.653211	-1.443084	0.831191
C	-0.556423	1.107564	0.863356
H	-1.64445	1.151098	0.827508
H	-0.227439	0.94425	1.893769
H	-0.136491	2.054563	0.526627
H	2.811603	0.0	0.0
