18

C	-0.4529	0.191058	-1.426675
C	0.0	0.0	0.0
Br	0.387752	-1.507992	-2.585424
H	1.094977	0.0	0.0
N	-1.836834	0.155538	-1.652202
H	-2.179097	-0.736498	-1.314484
H	-2.046737	0.237589	-2.640236
N	0.195413	1.324946	-1.931339
H	0.083569	1.401717	-2.934227
H	1.187908	1.252755	-1.69816
N	-0.478161	-1.222914	0.649405
O	-0.064231	-1.421519	1.795477
O	-1.245731	-2.001518	0.059996
C	-0.369699	1.184751	0.889695
H	-0.043594	2.102379	0.402815
H	-1.446158	1.23875	1.074295
H	0.170177	1.076441	1.831293
H	2.602302	0.0	0.0
