18

C	-0.351771	-0.040984	-1.491037
C	0.0	0.0	0.0
Br	0.013278	-1.99552	-2.088505
H	1.095971	0.0	0.0
N	-1.674474	0.341113	-1.797456
H	-2.321622	-0.209669	-1.244749
H	-1.844865	0.204471	-2.78595
N	0.573839	0.732525	-2.261819
H	1.516781	0.562197	-1.892376
H	0.341192	1.708935	-2.117522
N	-0.59952	-1.115684	0.768818
O	0.113412	-1.773214	1.519902
O	-1.822811	-1.28638	0.642529
C	-0.44601	1.293161	0.665894
H	-1.529084	1.423963	0.647705
H	-0.083016	1.293189	1.697062
H	0.030857	2.133642	0.15874
H	2.822776	0.0	0.0
