18

C	-0.354676	0.043176	-1.487961
C	0.0	0.0	0.0
Br	0.045932	-1.858956	-2.205035
H	1.102548	0.0	0.0
N	-1.681964	0.426491	-1.773214
H	-1.836401	0.381563	-2.77314
H	-2.323901	-0.185108	-1.283914
N	0.559081	0.877949	-2.21114
H	0.325604	1.840331	-1.989177
H	1.506455	0.686957	-1.862845
N	-0.591851	-1.152614	0.71791
O	-1.788217	-1.398705	0.505095
O	0.100977	-1.759589	1.527947
C	-0.442234	1.253117	0.741575
H	0.008789	2.125367	0.266216
H	-1.527081	1.369865	0.757519
H	-0.051642	1.202953	1.761253
H	2.808038	0.0	0.0
