18

C	-0.354688	0.072576	-1.487327
C	0.0	0.0	0.0
Br	0.082133	-1.612477	-2.551443
H	1.094615	0.0	0.0
N	-1.775705	0.250357	-1.7106
H	-1.992845	1.201983	-1.423472
H	-1.972667	0.172796	-2.702705
N	0.466978	1.1277	-1.995611
H	0.467466	1.109107	-3.009366
H	1.427201	0.977926	-1.657189
N	-0.498859	-1.157785	0.762043
O	-0.714239	-0.973885	1.968545
O	-0.595124	-2.259945	0.224464
C	-0.421002	1.281148	0.712053
H	-0.145763	2.134128	0.09499
H	0.117916	1.346958	1.656383
H	-1.493368	1.297548	0.924846
H	2.661997	0.0	0.0
