13
Coordinates from ORCA-job run
  C   -0.41336926344464      0.02673799495835      0.34505399690327
  C   0.97407044591860     -0.59730306817885      0.39624831800403
  Br  -1.09659900124974      0.04313896863744      2.24315926806357
  H   0.87463844168102     -1.62849058743310      0.74705139446984
  H   1.59338350404214     -0.05825062836599      1.11212784980868
  N   -1.24871801940385     -0.57451316512933     -0.58817550734149
  H   -2.13415654047701     -0.09638415901152     -0.68938506901358
  H   -1.37057776666703     -1.56519268743447     -0.43078084228845
  N   -0.32025631845968      1.51273566327617     -0.00520761737815
  O   0.73466454456836      2.07732070089528      0.24906781938976
  O   -1.32673727933995      2.01574834178110     -0.48519419518329
  C   1.60678637485698     -0.58050685363197     -0.92193628153628
  N   2.12787087797480     -0.57504052036310     -1.97302913389789
