13
Coordinates from ORCA-job run
  C   -0.39240025639486      0.00496980221665      0.41857279276071
  C   0.66594156654947     -0.75656023307152     -0.39768386913639
  Br  -0.04143671456697     -0.20542108767909      2.29907761708905
  H   0.40703942281649     -0.65349113144553     -1.45567903690034
  H   0.61073326010685     -1.81395086461130     -0.12707636593739
  N   -1.75127655793674     -0.34504439891790      0.15363554177899
  H   -1.93577362884004     -0.33276303071042     -0.84250918944853
  H   -1.98624113378328     -1.24234563604806      0.55540262721296
  N   -0.26287515948579      1.48095485435132     -0.00172501790512
  O   -0.57283679079145      1.65438598745124     -1.17868668003284
  O   0.12359634438135      2.32506663020319      0.78651349394525
  C   2.02258741507617     -0.26186511240399     -0.18539949673312
  N   3.11194223286881      0.14506422066541     -0.02544241669323
