13
Coordinates from ORCA-job run
  C   -0.32780966137744     -0.10304330473348      0.40378295765023
  C   0.72667047336436     -0.80927024670174     -0.44216565094652
  Br  0.08819752560998     -0.27501958165054      2.27944283696788
  H   0.72752626712042     -1.85897215538418     -0.14189526645481
  H   0.44006105468218     -0.74726024303561     -1.49458968988440
  N   -1.60779745059639     -0.65696857768767      0.14692783044542
  H   -1.86256151074324     -0.54086699900205     -0.82815405449495
  H   -2.31922419297178     -0.25796030667878      0.74733631382026
  N   -0.31558696951462      1.41338097366015      0.03752477715109
  O   -0.66049241813305      2.22862588819037      0.87867973937304
  O   -0.08642029665016      1.63935788102060     -1.14904487998509
  C   2.06015694698073     -0.24063923296564     -0.28042197399491
  N   3.13728023222900      0.20763590496857     -0.15742293964725
