10
Coordinates from ORCA-job run
  C   -0.23113756486647      0.46003924707318     -0.03901730042739
  C   1.13111009953761     -0.19671022301096     -0.03504779939529
  Cl  -0.45156650924295      1.37848482710155     -1.57049788024540
  H   1.18780108966683     -0.91616356629450     -0.85226334905460
  H   -0.28603765654084      1.22975607006279      0.73942980573372
  H   1.28816805401301     -0.72081422030624      0.91273711177914
  H   1.92058715751318      0.54543629525061     -0.15234411988228
  N   -1.26887424168409     -0.53982461413548      0.03296525217351
  H   -2.17874796946203     -0.10599752067037      0.12623900001485
  H   -1.11030245893425     -1.13420629507059      0.83779927930375
