10
Coordinates from ORCA-job run
  C   -0.18976413330571      0.44339440871437      0.16875787393390
  C   1.13391386069978     -0.22094494814136     -0.13494108373380
  Cl  -0.61568011183850      1.52599562793962     -1.27297928860047
  H   1.43029217722206     -0.82694065976654      0.72324394430048
  H   -0.10149505344890      1.15083304485704      0.99231554478107
  H   1.04113937502248     -0.86724911180292     -1.01067116798976
  H   1.90469253312682      0.52078529691839     -0.34107365286928
  N   -1.19476088471713     -0.50606532961502      0.47566031137124
  H   -1.33054206749332     -1.15666442401099     -0.28765682453332
  H   -2.07879569526758     -0.06414390509258      0.68934434333995
