14

C	-0.37748	-0.019216	-1.446795
C	0.0	0.0	0.0
Cl	-2.158145	0.03753	-1.753389
H	1.092545	0.0	0.0
H	-0.37343	0.899219	0.481155
N	0.162735	1.301515	-2.047367
O	0.742681	1.235025	-3.121756
O	-0.075782	2.314966	-1.408456
C	0.182862	-1.119364	-2.221426
N	0.608161	-2.008431	-2.860736
N	-0.513254	-1.148419	0.734099
O	-0.717378	-2.204211	0.128753
O	-0.670828	-1.000853	1.946892
F	2.460173	0.0	0.0
