14

C	-0.382429	-0.014092	-1.44512
C	0.0	0.0	0.0
Cl	-2.163968	-0.063047	-1.746144
H	1.090505	0.0	0.0
H	-0.386758	0.880728	0.502532
N	0.054303	1.343874	-2.05005
O	-0.051245	2.321853	-1.325746
O	0.400478	1.339323	-3.223907
C	0.249692	-1.064653	-2.232655
N	0.729106	-1.887896	-2.919697
N	-0.481388	-1.176627	0.713923
O	-0.671556	-2.221495	0.087219
O	-0.62472	-1.061452	1.931587
F	2.463801	0.0	0.0
