14

C	-0.477908	0.0209	-1.436759
C	0.0	0.0	0.0
Cl	0.429375	1.130807	-2.449659
H	1.090939	0.0	0.0
H	-0.371587	-0.889088	0.504766
N	-0.25294	-1.437238	-1.94941
O	0.605652	-1.644582	-2.786578
O	-0.991868	-2.26743	-1.426742
C	-1.911252	0.260382	-1.609642
N	-3.067639	0.414216	-1.758163
N	-0.483142	1.154233	0.755767
O	-0.851821	2.16313	0.143062
O	-0.437093	1.058489	1.983337
F	2.475626	0.0	0.0
