14

C	-0.461513	0.071962	-1.422234
C	0.0	0.0	0.0
Cl	-0.096497	-1.49439	-2.195432
H	1.108236	0.0	0.0
H	-0.354128	-0.905534	0.4869
N	-1.998835	0.225545	-1.540737
O	-2.437914	0.906095	-2.458173
O	-2.654614	-0.392779	-0.714684
C	0.165089	1.129282	-2.209241
N	0.688268	1.931892	-2.888647
N	-0.50588	1.1366	0.759758
O	-0.948538	2.107029	0.132126
O	-0.439688	1.072812	1.985481
F	2.463531	0.0	0.0
