14

C	-0.531696	0.041345	-1.403335
C	0.0	0.0	0.0
Cl	-2.301355	-0.211817	-1.502794
H	1.108173	0.0	0.0
H	-0.303276	-0.9379	0.46575
N	-0.171122	1.374376	-2.131969
O	1.026278	1.605586	-2.14449
O	-1.064924	2.026158	-2.642107
C	0.118636	-1.0052	-2.190836
N	0.591735	-1.854281	-2.85274
N	-0.524725	1.07783	0.827538
O	-0.766091	2.164599	0.290948
O	-0.633884	0.8585	2.035024
F	2.456873	0.0	0.0
