16

C	0.0	0.0	0.0
C	-0.537872	-0.083921	-1.414117
F	1.369811	0.0	0.0
H	-0.242796	0.788602	-1.985954
H	-1.62753	-0.200189	-1.35986
N	-0.336902	1.402059	0.542437
O	-0.446462	2.315975	-0.269235
O	-0.355814	1.526381	1.760791
C	-0.502652	-1.050177	0.943836
H	-1.590181	-0.974092	1.00634
H	-0.229477	-2.029043	0.550758
H	-0.046538	-0.900128	1.920702
N	0.06792	-1.257108	-2.098474
O	-0.378753	-2.374095	-1.840622
O	0.989276	-1.031334	-2.886188
Cl	-3.675247	0.0	0.0
