16

C	0.0	0.0	0.0
C	-0.552014	0.101495	-1.406091
F	1.358996	0.0	0.0
H	-1.644259	0.011677	-1.350109
H	-0.237423	1.024987	-1.881487
N	-0.337692	1.32303	0.718602
O	0.100053	1.422427	1.860364
O	-0.937006	2.193865	0.102432
C	-0.536129	-1.132213	0.822466
H	-1.626239	-1.05051	0.84134
H	-0.252763	-2.078416	0.362313
H	-0.119447	-1.062904	1.826931
N	0.015339	-1.0023	-2.228296
O	0.92483	-0.706526	-3.005821
O	-0.445083	-2.13304	-2.084031
Cl	-3.743972	0.0	0.0
