16

C	0.0	0.0	0.0
C	-0.589981	0.179301	-1.373654
F	1.359875	0.0	0.0
H	-0.520864	-0.751295	-1.93534
H	-1.651097	0.447372	-1.266245
N	-0.353702	1.203683	0.893633
O	0.185253	1.192187	1.998138
O	-1.112221	2.062663	0.468739
C	-0.530531	-1.238993	0.66881
H	-0.212434	-2.114303	0.097513
H	-0.119128	-1.295133	1.676445
H	-1.623258	-1.186807	0.69748
N	0.103735	1.200326	-2.208217
O	0.716719	2.109181	-1.656154
O	-0.004771	1.058024	-3.425599
Cl	-3.768045	0.0	0.0
