16

C	0.0	0.0	0.0
C	-0.539444	-0.022238	-1.417312
F	1.359927	0.0	0.0
H	-1.624581	-0.176085	-1.369693
H	-0.276504	0.890834	-1.939607
N	-0.340425	1.380528	0.600789
O	-0.418016	2.332956	-0.170113
O	-0.389433	1.449555	1.823139
C	-0.505454	-1.086976	0.900513
H	-1.593179	-1.016408	0.963993
H	-0.052488	-0.975253	1.884121
H	-0.22726	-2.04774	0.467996
N	0.103261	-1.130267	-2.174131
O	-0.23849	-2.284302	-1.920093
O	0.944665	-0.817389	-3.018239
Cl	-3.670802	0.0	0.0
