16

C	0.0	0.0	0.0
C	-0.594679	0.173429	-1.387377
F	1.365603	0.0	0.0
H	-0.525011	-0.783081	-1.906309
H	-1.642816	0.465287	-1.280012
N	-0.320506	1.237804	0.841163
O	-0.408766	1.093352	2.055114
O	-0.348358	2.307082	0.238772
C	-0.52862	-1.235566	0.666249
H	-1.620547	-1.183261	0.684595
H	-0.199903	-2.103052	0.089703
H	-0.134887	-1.298978	1.678758
N	0.119282	1.142833	-2.266407
O	1.271729	0.848149	-2.589885
O	-0.493887	2.130461	-2.66081
Cl	-3.713262	0.0	0.0
