16

C	0.0	0.0	0.0
C	-0.197469	0.160142	-1.519159
F	1.36468	0.0	0.0
H	0.24869	1.109428	-1.801069
H	0.362347	-0.669423	-1.948727
N	-0.399765	1.261696	0.748642
O	-0.070808	2.328888	0.234198
O	-0.948052	1.123138	1.834886
C	-0.593745	-1.212048	0.631747
H	-0.259345	-1.291794	1.664949
H	-1.687318	-1.114163	0.60694
H	-0.282106	-2.097837	0.074283
N	-1.533037	0.096206	-2.164606
O	-2.069716	1.164697	-2.431918
O	-1.927795	-1.023589	-2.476586
Cl	-3.770424	0.0	0.0
