18

C	-0.447236	0.080058	-1.455798
C	0.0	0.0	0.0
Cl	-2.233191	0.201694	-1.620686
H	1.105565	0.0	0.0
N	0.152373	1.326523	-2.133411
O	-0.371892	2.401462	-1.877261
O	1.130749	1.133532	-2.841298
C	-0.032006	-1.082626	-2.237961
N	0.214268	-2.058883	-2.844018
C	-0.454669	-1.319943	0.618168
H	-1.544431	-1.3812	0.698925
H	-0.026347	-1.389455	1.620208
H	-0.089291	-2.178635	0.051549
C	-0.448651	1.188303	0.844112
H	-1.537558	1.282972	0.884364
H	-0.074081	1.027997	1.857825
H	-0.025907	2.126198	0.486261
Cl	3.341605	0.0	0.0
