17

C	0.0	0.0	0.0
C	-0.374666	0.250527	-1.497301
F	1.387235	0.0	0.0
H	0.445639	0.90065	-1.825953
C	-0.334373	1.215376	0.799039
N	-0.538865	2.179222	1.439531
N	-0.527453	-1.206919	0.531727
H	-1.531577	-1.22206	0.342367
H	-0.414201	-1.228085	1.538805
N	-1.60898	0.933282	-1.797705
H	-1.638676	1.840037	-1.34351
H	-2.42673	0.429738	-1.453211
C	-0.29789	-1.057743	-2.272816
H	-0.33616	-0.829917	-3.339964
H	-1.14962	-1.698174	-2.032566
H	0.619283	-1.603659	-2.040832
Br	-4.254637	0.0	0.0
