17

C	0.0	0.0	0.0
C	-0.37648	0.245546	-1.497561
F	1.387022	0.0	0.0
H	0.446009	0.89042	-1.830818
C	-0.334108	1.216208	0.797033
N	-0.535243	2.181444	1.436131
N	-0.530559	-1.20447	0.534699
H	-0.420534	-1.222698	1.542599
H	-1.534264	-1.212735	0.341517
N	-1.608099	0.933539	-1.796975
H	-1.627414	1.844198	-1.351714
H	-2.427095	0.439617	-1.442435
C	-0.310314	-1.06512	-2.270256
H	-0.352527	-0.836961	-3.337375
H	0.603256	-1.617906	-2.044928
H	-1.165482	-1.697807	-2.02406
Br	-4.254871	0.0	0.0
