17

C	0.0	0.0	0.0
C	-0.499056	0.182962	-1.433533
F	1.421945	0.0	0.0
H	-1.592485	0.161821	-1.343449
C	-0.31611	1.16443	0.864041
N	-0.420566	2.114301	1.544707
N	-0.507799	-1.182698	0.538044
H	-0.137205	-1.387111	1.454474
H	-0.379074	-1.939799	-0.121603
N	-0.073673	-1.002743	-2.179607
H	-0.745089	-1.198696	-2.909642
H	0.830321	-0.83662	-2.607946
C	-0.034114	1.501017	-2.03853
H	-0.422074	2.353014	-1.476392
H	-0.39805	1.578038	-3.066294
H	1.058746	1.557666	-2.046438
Br	-4.058075	0.0	0.0
