17

C	0.0	0.0	0.0
C	-0.456593	-0.03787	-1.462828
F	1.417187	0.0	0.0
H	-0.021084	-0.965265	-1.864104
C	-0.353677	1.286563	0.636637
N	-0.550048	2.342602	1.109727
N	-0.519218	-1.07272	0.742998
H	-0.385093	-1.958422	0.275647
H	-0.17823	-1.101491	1.693397
N	0.082148	1.067328	-2.244275
H	-0.435801	1.910364	-2.023475
H	1.053389	1.224121	-2.005558
C	-1.970364	-0.074286	-1.567633
H	-2.247928	0.022893	-2.619139
H	-2.40816	-0.984181	-1.161986
H	-2.448606	0.734378	-1.011431
Br	-5.285065	0.0	0.0
