17

C	0.0	0.0	0.0
C	-0.494773	-0.013102	-1.446828
Cl	1.798837	0.0	0.0
H	-1.583931	-0.043772	-1.281973
H	-0.256044	-0.971219	0.440966
N	-0.5757	1.11037	0.6979
H	-0.391007	0.989937	1.689801
H	-1.60103	0.888147	0.543464
C	-0.060729	-1.264854	-2.196709
H	-0.566777	-1.315485	-3.166814
H	-0.329405	-2.167031	-1.63713
H	1.019232	-1.283685	-2.37756
C	-0.117035	1.255973	-2.198705
H	-0.640063	1.291241	-3.160905
H	-0.400737	2.132641	-1.615399
H	0.95976	1.305562	-2.395541
F	-2.879031	0.0	0.0
