17

C	0.0	0.0	0.0
C	-0.410762	-0.133493	-1.506144
Cl	1.796008	0.0	0.0
H	0.514538	-0.196881	-2.088924
H	-0.233739	-0.948485	0.497496
N	-0.594202	1.12949	0.642258
H	-0.403333	1.054233	1.637965
H	-1.613344	0.894073	0.507653
C	-1.202916	1.061067	-2.02878
H	-2.163748	1.066629	-1.517006
H	-1.357343	0.942272	-3.109355
H	-0.670958	1.998133	-1.851306
C	-1.193316	-1.430415	-1.707677
H	-1.466344	-1.549739	-2.76287
H	-2.096634	-1.350042	-1.094721
H	-0.592081	-2.302777	-1.416642
F	-2.949513	0.0	0.0
