17

C	0.0	0.0	0.0
C	-0.37264	0.006894	-1.538991
Cl	1.806001	0.0	0.0
H	0.548891	0.089396	-2.120772
H	-0.271477	-0.971907	0.410038
N	-0.592134	0.984254	0.843646
H	-0.487915	1.894983	0.40664
H	-1.60694	0.717894	0.733169
C	-1.298679	1.151005	-1.951884
H	-2.207703	1.06875	-1.341308
H	-1.562854	1.024575	-3.008042
H	-0.816901	2.132431	-1.859915
C	-1.014301	-1.337672	-1.859001
H	-1.939613	-1.379788	-1.284199
H	-0.345118	-2.158269	-1.57978
H	-1.236231	-1.427405	-2.931257
F	-2.924477	0.0	0.0
