17

C	0.0	0.0	0.0
C	-0.477234	0.00345	-1.461944
Cl	1.798659	0.0	0.0
H	-1.566979	-0.030052	-1.297321
H	-0.29056	-0.962275	0.424778
N	-0.56669	1.010024	0.8415
H	-0.404678	1.915038	0.40961
H	-1.590712	0.77454	0.713392
C	-0.033311	-1.240962	-2.220508
H	-0.556964	-1.308065	-3.180481
H	-0.273079	-2.144616	-1.650744
H	1.043301	-1.240944	-2.419985
C	-0.107268	1.269354	-2.223128
H	-0.551615	1.244649	-3.223775
H	0.976621	1.379223	-2.336793
H	-0.494813	2.162135	-1.725216
F	-2.860631	0.0	0.0
