16

C	0.0	0.0	0.0
C	-0.607354	-0.046037	-1.41359
F	1.347199	0.0	0.0
H	-1.74238	0.026927	-1.085198
N	-0.331717	1.427176	0.56008
O	-0.969495	2.214491	-0.125072
O	0.134739	1.652228	1.66758
N	-0.498246	-0.909641	0.942894
H	-0.238396	-1.842376	0.651238
H	-1.526207	-0.805453	0.845022
N	-0.3638	-1.377711	-2.05407
O	-0.675076	-2.386107	-1.420583
O	0.089356	-1.398429	-3.20001
C	-0.111227	0.982491	-2.305143
N	0.279563	1.819586	-3.031421
F	-2.753682	0.0	0.0
