16

C	0.0	0.0	0.0
C	-0.587901	0.107483	-1.410277
F	1.342359	0.0	0.0
H	-1.690705	0.219858	-1.197885
N	-0.31896	1.349029	0.738461
O	-0.662971	2.329637	0.092036
O	-0.130042	1.318375	1.950278
N	-0.5465	-1.093799	0.65078
H	-1.585127	-0.915536	0.560216
H	-0.251519	-1.077074	1.619876
N	-0.364182	-1.230317	-2.073303
O	0.788573	-1.504299	-2.405095
O	-1.345248	-1.947718	-2.232658
C	0.027784	1.117751	-2.250318
N	0.508033	1.89318	-2.99129
F	-2.771888	0.0	0.0
