16

C	0.0	0.0	0.0
C	-0.423355	0.022334	-1.491881
F	1.37231	0.0	0.0
H	0.445342	-0.420764	-1.983568
N	-0.339163	1.272804	0.820486
O	-0.275728	1.118449	2.036097
O	-0.548287	2.331893	0.247179
N	-0.465461	-1.172532	0.582896
H	-0.120536	-1.21525	1.53426
H	-1.509089	-0.998844	0.554789
N	-0.489408	1.391857	-2.129027
O	0.603735	1.918903	-2.32674
O	-1.578514	1.853679	-2.43038
C	-1.589102	-0.769748	-1.88069
N	-2.250511	-1.504036	-2.519148
F	-2.548835	0.0	0.0
