16

C	0.0	0.0	0.0
C	-0.355288	0.059797	-1.525259
F	1.352994	0.0	0.0
H	0.256672	-0.760033	-1.920116
N	-0.419548	1.266418	0.743318
O	-0.657431	1.18192	1.935849
O	-0.359225	2.303094	0.088588
N	-0.501633	-1.114985	0.667924
H	-1.544583	-0.950474	0.584808
H	-0.205699	-1.951298	0.179229
N	0.210714	1.26131	-2.276563
O	1.429963	1.263486	-2.424796
O	-0.561935	2.10529	-2.70609
C	-1.726917	-0.177321	-1.987036
N	-2.52641	-0.461728	-2.806419
F	-2.602498	0.0	0.0
