11
Coordinates from ORCA-job run
  C   0.54909432926304     -0.21319290355256     -0.65636226209645
  C   -0.37022545377669     -0.14281221694301      0.34529292159404
  H   0.74315504054950     -1.18464939815038     -1.09889600045838
  N   1.21782629492162      0.83484667123838     -1.16027382412660
  H   1.12832459907324      1.75163170731869     -0.75062195396174
  H   1.94700257279048      0.69274334829800     -1.83456893851076
  N   -1.04753322151393     -1.34890293591456      0.78955149378766
  O   -1.85014841716369     -1.21639873393051      1.71050373129497
  O   -0.77627748100369     -2.40471660499810      0.22277348505087
  C   -0.68753883052926      1.07806266924109      0.99211440986397
  N   -0.85367943261061      2.15338839739295      1.44148693756242
