11
Coordinates from ORCA-job run
  C   0.80583634902050     -0.24730257541967     -0.26015183903446
  C   -0.45678214044376     -0.11788120881218      0.23155313541088
  H   1.32341159911240     -1.18519504849416     -0.08834673543171
  N   1.45165259125068      0.68719328288474     -0.97528252737256
  H   2.42326507160038      0.56722747201102     -1.19572149192208
  H   1.05580784801008      1.60694959663057     -1.09354814736856
  N   -1.06352476482936     -1.21763552405775      0.96230581429276
  O   -2.19956537344550     -1.02740112987150      1.39005812593438
  O   -0.40914793153534     -2.24801461508392      1.10147879735342
  C   -1.21075853754566      1.07137798220103      0.06744131866372
  N   -1.71919471119441      2.11268176801183     -0.13978645052581
