11
Coordinates from ORCA-job run
  C   0.88066821028876     -0.02612773873301     -0.04464099780479
  C   -0.44732813915280     -0.16840817860646      0.21902699240687
  H   1.57574311223177     -0.66324888054251      0.49203403826965
  N   1.40241323930043      0.86411063133112     -0.90202331999460
  H   0.80659815456005      1.43919960163823     -1.47707998487728
  H   2.38263709821591      0.84631291681358     -1.11521522518653
  N   -0.88884272209826     -1.15412064534893      1.19105661585147
  O   -2.10146437630355     -1.23862481934633      1.37049646247032
  O   -0.03228673670071     -1.82704497674423      1.75941141320336
  C   -1.43354977792433      0.61019396141258     -0.43742245415343
  N   -2.14358806241725      1.31775812812596     -1.05464354018505
