11
Coordinates from ORCA-job run
  C   0.85075088986315     -0.16693924167671     -0.16369134409006
  C   -0.45910624914733     -0.15053289826581      0.20751017005726
  H   1.42297526213747     -1.06710840367809      0.03362407691065
  N   1.50210146589025      0.86134420312951     -0.72790784789942
  H   1.01090984808013      1.69985451310096     -0.99726948851421
  H   2.44026397868358      0.74128121452426     -1.06263952131323
  N   -1.04616387505034     -1.32211045618533      0.83496889865018
  O   -2.23571144236113     -1.24336979979694      1.13295046791729
  O   -0.32354730181884     -2.29745435360696      1.02530567314694
  C   -1.29258046363114      0.97414203525688     -0.01812654991759
  N   -1.86989211264582      1.96989318719825     -0.26472453494780
