11
Coordinates from ORCA-job run
  C   0.42292995416250      0.53969744745092     -0.65574213487982
  C   -0.50482992814059      0.20641397151147      0.29694122454065
  H   0.30832301205358      1.52056629757311     -1.10894321688228
  N   1.44436615285673     -0.19071507566153     -1.10853045962050
  H   1.61887523915573     -1.09914895779302     -0.70786285463935
  H   2.07327922619401      0.19251620355597     -1.79042238605781
  N   -0.48810446971952     -1.05752464112967      0.99352946646661
  O   -1.36275660023537     -1.26452906898635      1.82844382182243
  O   0.41356731711645     -1.85608258652341      0.70273858788258
  C   -1.54325013389844      1.11136513614228      0.64818170365340
  N   -2.38139976954508      1.89644127386023      0.90066624771409
