11
Coordinates from ORCA-job run
  C   0.83670015838405     -0.20860567255483     -0.18582453865080
  C   -0.45622541737105     -0.12111226108781      0.23144141449150
  H   1.38567692203170     -1.11406201972331      0.05078515268618
  N   1.49750194369283      0.75368651005153     -0.84683081313740
  H   2.41823696720445      0.57954730605723     -1.20536317089462
  H   1.02385626012192      1.58952758675876     -1.15237945280868
  N   -1.05410749040305     -1.22319729538502      0.96565556739103
  O   -0.35619570594420     -2.20743141308068      1.19760676184252
  O   -2.22771894019506     -1.08250519395029      1.30128032163383
  C   -1.25822913464149      1.01728461125130     -0.03436763310566
  N   -1.80849556288009      2.01686784166311     -0.32400360944791
