11
Coordinates from ORCA-job run
  C   0.80899495666982     -0.23816208276680     -0.25733312388967
  C   -0.45224370819635     -0.11954536196258      0.24225873827362
  H   1.32809193759010     -1.17906506898957     -0.10701567444670
  N   1.46145386936169      0.72145992068849     -0.92826498573420
  H   1.03874839468586      1.62057007321550     -1.09811366913927
  H   2.39534663775481      0.56827315795574     -1.26034968604063
  N   -1.05565221824788     -1.23414764022341      0.95179916664523
  O   -2.19493216509911     -1.05806206775514      1.37713492212721
  O   -0.39592952508033     -2.26322402728796      1.07675777144852
  C   -1.20988524521568      1.06973565200625      0.09767789615064
  N   -1.72399293422294      2.11116744511949     -0.09455135539474
