11
Coordinates from ORCA-job run
  C   0.47996729449925      0.59048358422328     -0.56479835041790
  C   -0.52426150278382      0.18535949674218      0.27573024439414
  H   0.39729530942463      1.60418889012864     -0.94729769799314
  N   1.55764580859473     -0.09227427901783     -0.95876692475567
  H   1.66110608212676     -1.05455598183447     -0.67686955351501
  H   2.17833397915278      0.30264926414786     -1.64218353527598
  N   -0.56649696184536     -1.13090798620692      0.86547429533031
  O   -1.50785052240555     -1.39892511595308      1.60491945998308
  O   0.35657826710948     -1.90892934075432      0.58649680182975
  C   -1.58925405346381      1.06610503969518      0.60896187901217
  N   -2.44306370040908      1.83780642882949      0.85033338140824
