11
Coordinates from ORCA-job run
  C   0.38645599843578      0.53405789027841     -0.68167987191618
  C   -0.51075027186736      0.19150814568276      0.29670731654510
  H   0.21093037716700      1.48628650135480     -1.17457061884092
  N   1.44995887636177     -0.15102556359291     -1.10698974155223
  H   1.66665176140205     -1.04165128597346     -0.68749700810235
  H   2.02942043248539      0.22038927911587     -1.83755587832430
  N   -0.41783023977663     -1.03857396884992      1.04533946105974
  O   0.52255374918541     -1.79915924870726      0.77570455173295
  O   -1.27054402665273     -1.25670222326968      1.89990451196897
  C   -1.59474602932778      1.05207328057030      0.62093794907442
  N   -2.47210062741288      1.80079719339110      0.84969932835480
