11
Coordinates from ORCA-job run
  C   0.53230384351795      0.61580685443981     -0.48815586892425
  C   -0.46927192517987      0.20165448859797      0.35166079089492
  H   0.59831432939850      1.68799700897679     -0.65347328094218
  N   1.43914371055618     -0.12784902278249     -1.12448156267383
  H   2.10866492337727      0.30361532055812     -1.73507261288513
  H   1.41285443203765     -1.13056791473438     -1.02153876552303
  N   -0.69043775061082     -1.18533054652684      0.67983603940577
  O   -1.60773560020843     -1.45522159080444      1.44860431511709
  O   0.06204092619866     -2.02069505826755      0.15801497207894
  C   -1.34514436000033      1.14421837170628      0.95580406132057
  N   -2.04073252908676      1.96637208883674      1.42780191213113
