11
Coordinates from ORCA-job run
  C   0.51754481677120     -0.17376478123270     -0.69210807444677
  C   -0.39071839552857     -0.14495761332349      0.32215301750077
  H   0.50339294216693     -1.02733458000484     -1.36132698494321
  N   1.44426238048686      0.76777512645290     -0.92001518723177
  H   1.49000374294810      1.60219548018704     -0.35613011685192
  H   2.04772527141251      0.70542913473456     -1.71881393577446
  N   -1.34022245767099     -1.23429830653543      0.47144206621564
  O   -2.15208468434533     -1.12944953013571      1.38762320842141
  O   -1.26822195706262     -2.17393863019639     -0.31714055195549
  C   -0.45461925997088      0.92899824293259      1.24531700003879
  N   -0.39606239920720      1.87834545712149      1.93899955902701
