11
Coordinates from ORCA-job run
  C   0.83637348495135     -0.21006340892174     -0.18681254107213
  C   -0.45579305578837     -0.12079321779474      0.23230457881878
  H   1.42480781614961     -1.05347686736123      0.15865404896109
  N   1.43377410640520      0.65175887613803     -1.02403365010879
  H   0.96265743602712      1.49141038269993     -1.32331051749285
  H   2.41786865238296      0.57834996718434     -1.20515722926058
  N   -0.99725370491694     -1.13302150248291      1.12326103470593
  O   -2.15878365392938     -0.97160317828085      1.49063764962739
  O   -0.26833604366238     -2.06858639299469      1.44394471540928
  C   -1.30187774579128      0.94876125682276     -0.15531201336452
  N   -1.89243729182787      1.88626408499109     -0.55317607622361
