11
Coordinates from ORCA-job run
  C   0.86312281586535     -0.13987763506930     -0.11523245626602
  C   -0.45447997467020     -0.13544208312373      0.22849129490891
  H   1.49450980366366     -0.91600611292135      0.30410542750307
  N   1.44765943011652      0.75459922414482     -0.92501838438479
  H   0.91112065154374      1.47982653041206     -1.37475339279129
  H   2.41451127229354      0.66011761737925     -1.17491280687086
  N   -0.96868411282619     -1.15189769120618      1.12990626005294
  O   -0.18159949222260     -1.99015456706539      1.56299311676800
  O   -2.16766350781384     -1.09287742988664      1.39233258927602
  C   -1.35953331501978      0.83470558991868     -0.27080080494934
  N   -1.99796357093020      1.69600655741778     -0.75711084324664
