11
Coordinates from ORCA-job run
  C   0.87152229480785     -0.11011068497418     -0.07777547694920
  C   -0.46005830414920     -0.15507531300049      0.20465786462266
  H   1.51798300896838     -0.83501384804026      0.40582885984283
  N   1.44664758917702      0.75495796558658     -0.92543743755469
  H   0.90746773850489      1.47426126445204     -1.38108602368234
  H   2.44226518355861      0.76389480088697     -1.04695246669299
  N   -0.96783161635657     -1.15113519931215      1.13198460804572
  O   -0.16411210763878     -1.93099860690336      1.63772662370062
  O   -2.17858559760828     -1.13529482992012      1.34149790908444
  C   -1.38229901358035      0.75439024151830     -0.37100904423315
  N   -2.03199917568358      1.57012420970667     -0.91743541618390
