11
Coordinates from ORCA-job run
  C   0.47977513940827      0.56771842227352     -0.59040768924037
  C   -0.52590385515294      0.19642536438512      0.26368884790155
  H   0.39558149002299      1.56200230242589     -1.02041393547279
  N   1.56491040594755     -0.12506048846398     -0.94497823705740
  H   1.67530859627269     -1.07044274262485     -0.61299565698149
  H   2.19071657300843      0.24754300537957     -1.63569051864774
  N   -0.56357464822468     -1.09276775185358      0.91200082943747
  O   -1.51089952081839     -1.33572669460487      1.65269421463380
  O   0.36678601540061     -1.87625654645700      0.67498017702258
  C   -1.60224449415785      1.07998566062481      0.54877846887147
  N   -2.46945570170668      1.84757946891538      0.75234349953292
