11
Coordinates from ORCA-job run
  C   0.64276505666352      0.59055048864607     -0.37195068670343
  C   -0.55771801060317      0.21236793469282      0.17170332688257
  H   0.73768626347621      1.64205055826890     -0.62888896192273
  N   1.71120924524142     -0.16714043927174     -0.62788703888294
  H   1.68443960393121     -1.15100601897425     -0.40997007682041
  H   2.53485650419853      0.24224510292083     -1.02974401849787
  N   -0.84264872983147     -1.14636375130647      0.56550734697309
  O   0.05122941765380     -1.98762143452593      0.39554680596322
  O   -1.94695535030622     -1.38652823987178      1.04278746803592
  C   -1.59537130835586      1.16272934079152      0.37351665317770
  N   -2.41949269206798      1.98871645863002      0.51937918179489
