11
Coordinates from ORCA-job run
  C   0.70753236498176     -0.26239027187274     -0.45604855022392
  C   -0.40171264641870     -0.11604092946638      0.32006348104792
  H   1.12722528716214     -1.25777165328603     -0.55829686644342
  N   1.33331921764251      0.73554452806701     -1.09618425281816
  H   2.12121318195267      0.54714092738819     -1.68764414931925
  H   0.97756734622037      1.67824145411050     -1.06631936664210
  N   -0.98196717396038     -1.27510262032766      0.97554483477275
  O   -0.43904112875274     -2.36448541792480      0.80780506923998
  O   -1.98431384848248     -1.07213393842146      1.65669818141074
  C   -1.02361053170512      1.14299816023799      0.51408904369248
  N   -1.43621206864005      2.24299976149538      0.58929257528298
