11
Coordinates from ORCA-job run
  C   0.78686845504156     -0.24521360986182     -0.31366151495715
  C   -0.42400952616866     -0.10570526131372      0.29347858583539
  H   1.32843135410746     -1.17232272029956     -0.15841768876193
  N   1.36952295641372      0.68314188659217     -1.08556381977492
  H   0.90951033232476      1.55650953898251     -1.28953055406313
  H   2.24929890964119      0.49809970498736     -1.53041317097090
  N   -0.94656054046643     -1.18196686318286      1.11723026236415
  O   -0.26446020548086     -2.19652361718982      1.24130570499081
  O   -2.04584501010183     -0.99116283187696      1.63208498181873
  C   -1.20858649996908      1.06609106237022      0.14897824420381
  N   -1.75417022534183      2.08905271079248     -0.05549103068485
