11
Coordinates from ORCA-job run
  C   0.65778374550016      0.65211994689723     -0.20399037034045
  C   -0.56136635993636      0.17348030506273      0.20102423214095
  H   0.76803501572413      1.73302319298014     -0.20319465957525
  N   1.72849648375491     -0.03872661439000     -0.60128280121409
  H   2.56586638677662      0.44267058988045     -0.87427340433877
  H   1.68964384042309     -1.04581778652473     -0.62072059717906
  N   -0.86879493025234     -1.23548406363286      0.25368078143581
  O   -1.99212067481140     -1.56516755532798      0.62010316770755
  O   0.02655588547954     -2.02591291713311     -0.07678052043436
  C   -1.59684993882030      1.06458447295605      0.59395229311455
  N   -2.41724945383806      1.84523042923207      0.91048187868313
