11
Coordinates from ORCA-job run
  C   0.58828805194531      0.63343104543447     -0.39031278101643
  C   -0.46585828445951      0.18867869149870      0.36494235484029
  H   0.72948003567669      1.71025126994763     -0.42161338184791
  N   1.47040939399694     -0.08663995947091     -1.08687213643091
  H   1.38124037955848     -1.09045993421387     -1.11095207666646
  H   2.18347814175450      0.37296147969538     -1.62339309590835
  N   -0.79143853751881     -1.21043804861195      0.50342807228465
  O   -0.06737380433032     -2.02437107055297     -0.08710638402810
  O   -1.76073507209698     -1.50909950030565      1.19347847585001
  C   -1.30385738939269      1.10688428868284      1.05448263520686
  N   -1.96463291513359      1.90880173789632      1.60491831771634
