11
Coordinates from ORCA-job run
  C   0.55478749591452     -0.20028808332305     -0.65714738582002
  C   -0.41144256231342     -0.12960802280787      0.29948091085454
  H   0.58317242701924     -1.08569166357180     -1.28394194893347
  N   1.46890569027850      0.75108946407248     -0.89465563792948
  H   2.17568344512045      0.60903552506803     -1.59157076285081
  H   1.51481440319463      1.58462714745648     -0.33015947593438
  N   -1.35858837331988     -1.22014089859416      0.45462293615611
  O   -2.22362339556680     -1.07164763867686      1.31378060376640
  O   -1.23981118096960     -2.19583873199416     -0.28231180352764
  C   -0.53386244001649      0.98675133496059      1.16406949348049
  N   -0.52803550934115      1.97171156741032      1.80883307073826
