11
Coordinates from ORCA-job run
  C   0.65607075880734      0.63918276130974     -0.24453801221209
  C   -0.55042782350773      0.18409817466061      0.22103095987238
  H   0.77784236887581      1.71860246601394     -0.27204525152775
  N   1.70306186261543     -0.07272752786032     -0.66671129980543
  H   2.53223465046358      0.39244455528272     -0.98834454582650
  H   1.64988522503022     -1.07938377916338     -0.66795252646105
  N   -0.87062023817254     -1.21957147461888      0.31774405325374
  O   -0.00101028423407     -2.02718911979733     -0.03861408277120
  O   -1.97867638239001     -1.52804727903916      0.74431088413929
  C   -1.56000756400728      1.09640519452260      0.63277229587272
  N   -2.35835257348076      1.89518602868947      0.96034752546588
