11
Coordinates from ORCA-job run
  C   0.74944444147989     -0.23146501486990     -0.40151408797026
  C   -0.42581827977239     -0.13687276006338      0.27981307946869
  H   1.21674825305716     -1.20790876738080     -0.47531763405656
  N   1.37494789804863      0.79360418770388     -0.99704681796832
  H   1.00116842174266      1.72875459473965     -0.95687133737563
  H   2.25164495946533      0.65533001609835     -1.46408165542777
  N   -1.01114288196459     -1.32378273293167      0.87793966361457
  O   -0.41414500336906     -2.38973111157276      0.74732253931544
  O   -2.07264225609503     -1.16653004188954      1.47672872646327
  C   -1.10828820786094      1.09614246621181      0.43220411257037
  N   -1.56191734473166      2.18145916395436      0.48082341136620
