11
Coordinates from ORCA-job run
  C   0.66428710515825      0.65300450964294     -0.17777470085149
  C   -0.56541229362705      0.17215723007149      0.19077560711105
  H   0.77843323031219      1.73334141714726     -0.15446304358980
  N   1.73753998010886     -0.03351506250294     -0.57677970034511
  H   1.70195603017371     -1.04066207798111     -0.59687176277534
  H   2.59536828176652      0.44815585888596     -0.77643851641345
  N   -0.87718828725169     -1.23689103176725      0.21397356425397
  O   -2.00463634704041     -1.56982721213117      0.56472719837463
  O   0.01846807366264     -2.02350046651677     -0.12389020496606
  C   -1.60961245455829      1.05954110342328      0.56864711723250
  N   -2.43920331870472      1.83719573172830      0.86809444196910
