11
Coordinates from ORCA-job run
  C   0.51060767197182      0.54051751547325     -0.58832513420536
  C   -0.57787950253274      0.16621826660893      0.15646678635697
  H   0.40728439375935      1.46660579246693     -1.14723497036261
  N   1.68215084029799     -0.08589713718198     -0.71649026369652
  H   1.83887706402642     -0.95024993425045     -0.22202641559982
  H   2.40002701977062      0.30339863224160     -1.30000921635736
  N   -0.60126630357316     -1.03620336670833      0.95409620919295
  O   0.41676489833327     -1.74261347947065      0.94846829649394
  O   -1.62225884079623     -1.28619624120852      1.58655869627014
  C   -1.75431056295135      0.96382364941759      0.17495884937131
  N   -2.70199667830597      1.65959630261163      0.15453716253636
