11
Coordinates from ORCA-job run
  C   0.61390409378823      0.60582899107333     -0.39373100466897
  C   -0.55822046082085      0.19696522422405      0.18812784624325
  H   0.67167744902947      1.65836759308940     -0.65730001537250
  N   1.69557892092311     -0.12238427739984     -0.67880354437802
  H   1.70374232826586     -1.10608403790455     -0.45892780096607
  H   2.49303852683985      0.30840999700521     -1.11005715669502
  N   -0.79262881363062     -1.16721740449848      0.59575299578236
  O   0.11890989492314     -1.98385172748525      0.40177455951073
  O   -1.87474968732863     -1.43590977054072      1.10750007884336
  C   -1.61456097606653      1.11974714205214      0.41895742868062
  N   -2.45569127592302      1.92412827038470      0.58670661302025
