11
Coordinates from ORCA-job run
  C   0.61040090206330      0.62341582569325     -0.37161569342961
  C   -0.51879302383981      0.19755373638661      0.27884530750000
  H   0.71640048821849      1.69886712602402     -0.48479116950551
  N   1.59840534679348     -0.11274368665012     -0.88475800437578
  H   1.55809687590200     -1.11734659394222     -0.81187637755038
  H   2.37417205968231      0.33295002363116     -1.33970175417306
  N   -0.80691123386175     -1.19749152389676      0.50984596246013
  O   -1.84382507358382     -1.47946926044910      1.10167311288085
  O   0.01604373385278     -2.02505068587961      0.09354792004717
  C   -1.47367278721307      1.13232990519391      0.76360939212117
  N   -2.23031728801390      1.94798513388887      1.14422130402501
