11
Coordinates from ORCA-job run
  C   0.66481255644503      0.61348909794584     -0.28543021396921
  C   -0.56545560107711      0.20221470564440      0.15836381996365
  H   0.78126375461020      1.68278938894075     -0.43936214660254
  N   1.73835670608831     -0.13105422148947     -0.55867858983521
  H   1.69720549316907     -1.12906781079474     -0.42294900885708
  H   2.59009400818553      0.30513975760982     -0.86160633708792
  N   -0.87999713278756     -1.18281251718932      0.41380915424584
  O   0.01565003039102     -2.01582018113081      0.21521157677326
  O   -2.00951280958434     -1.45170432845046      0.80985249190034
  C   -1.60409501155586      1.14337276583880      0.39491977953645
  N   -2.42732199388428      1.96345334307521      0.57486947393242
