11
Coordinates from ORCA-job run
  C   0.69901094920231      0.59679718746659     -0.23674606749787
  C   -0.47247808891195      0.19515595732731      0.35154649802035
  H   0.97357739820361      1.63784385504204     -0.08978751830221
  N   1.54985208467513     -0.12841918126805     -0.96541748046777
  H   1.33547637100890     -1.09607066741446     -1.15207095538609
  H   2.36496386263778      0.29911897928123     -1.36593495403393
  N   -0.97960538231567     -1.15047011247640      0.24367564097878
  O   -2.03844279542676     -1.41360018776431      0.80466220436233
  O   -0.30904319304889     -1.95971960262649     -0.41339962976569
  C   -1.25601046349669      1.11014981821601      1.10680245465656
  N   -1.86830074252776      1.90821395421654      1.71566980743553
