11
Coordinates from ORCA-job run
  C   0.74230906465960     -0.22474282298330     -0.42016627099010
  C   -0.42447993744956     -0.14099641747384      0.27639678557163
  H   1.20488382764528     -1.20116899895434     -0.51931481326303
  N   1.35543959562439      0.80741088997167     -1.01821056132689
  H   1.00722596132203      1.74787468778876     -0.91554459922723
  H   2.25592853198982      0.68423249829982     -1.44304267727434
  N   -1.00579415025880     -1.33907901309263      0.85755755203955
  O   -0.41563215285154     -2.40419162999531      0.69347585266048
  O   -2.05696829710812     -1.19079800898796      1.47626983334140
  C   -1.10251732273769      1.08956222208921      0.46527723040169
  N   -1.55839512083541      2.17189659333792      0.54630166806684
