11
Coordinates from ORCA-job run
  C   0.82880802759214     -0.13909592652164     -0.26624223015717
  C   -0.41694020108354     -0.15184598417549      0.28337092519517
  H   1.51431978936132     -0.93269213278165      0.01211683149752
  N   1.27091964192379      0.77282165271026     -1.14418100088031
  H   0.69779468943690      1.55754329835046     -1.41228440324690
  H   2.22178530430921      0.75338099626899     -1.46308498310897
  N   -0.78480762055197     -1.20702465379519      1.21184897919471
  O   0.05380156368739     -2.06757548175417      1.46837490244378
  O   -1.92207351836137     -1.15502071593273      1.67431400496212
  C   -1.38168795774826      0.84299667458256     -0.01448859129452
  N   -2.08291971856562      1.72751227304861     -0.34874443460541
