11
Coordinates from ORCA-job run
  C   0.71313185830675      0.61471187690468     -0.10512319919553
  C   -0.54413316697572      0.18649790399877      0.23311590237660
  H   0.91008044667643      1.67273536978316      0.04464245246182
  N   1.73665934824581     -0.10385230378056     -0.57281856792397
  H   2.58757240425546      0.35566370808816     -0.84153461103573
  H   1.60046633420511     -1.08179634126114     -0.77596185447049
  N   -0.96805279570481     -1.18484906178792      0.08562888799319
  O   -0.14150615511980     -1.98980578910925     -0.36596222282148
  O   -2.11570597950571     -1.46958894265437      0.41244224886389
  C   -1.50974945741880      1.10019442945787      0.73721568065926
  N   -2.26876283696473      1.89908915036061      1.14735528309243
