11
Coordinates from ORCA-job run
  C   0.72707073463618     -0.26128543033863     -0.42554368662045
  C   -0.44887572546461     -0.12011130850297      0.24542365485076
  H   1.09033172205164     -1.26770003063099     -0.60529988423677
  N   1.45984401602247      0.75110988758491     -0.91539106324893
  H   1.21964754047146      1.70765829255255     -0.70532609539882
  H   2.37504759924627      0.57326564153798     -1.28660576034460
  N   -1.16877347188055     -1.29948143941031      0.69528691047146
  O   -0.68945518913655     -2.40091051326380      0.43721429943389
  O   -2.21465650094485     -1.09940916890168      1.30840182573352
  C   -1.00239662992563      1.15204961206569      0.53705763210812
  N   -1.34678409507584      2.26381445730723      0.71378216725181
