11
Coordinates from ORCA-job run
  C   0.62643492892671      0.61592666043104     -0.35784227789883
  C   -0.51991720902910      0.20442319653963      0.27173600930715
  H   0.73910110881008      1.68904731376885     -0.48573925325823
  N   1.63126466152866     -0.13101902708774     -0.82090515149605
  H   1.56670668829796     -1.13534545185764     -0.76415262244530
  H   2.39536952765298      0.29938629082501     -1.30895152978929
  N   -0.82363702799941     -1.18629868025859      0.50953651477304
  O   -1.87695607454757     -1.45519880217765      1.07766605089608
  O   0.00430305851684     -2.02352289938705      0.12360295620276
  C   -1.48776173397312      1.15014438431451      0.70767974655921
  N   -2.25590792818403      1.97345701488962      1.04636955714944
