11
Coordinates from ORCA-job run
  C   0.87135771062199     -0.11040121259182     -0.08072880861751
  C   -0.45848696137582     -0.15289101980041      0.20832883950313
  H   1.50742115719177     -0.88165101104443      0.34086751479205
  N   1.46442730226918      0.83236630888573     -0.82832256911176
  H   0.92027601835237      1.54008392591795     -1.29678286738160
  H   2.43430986701018      0.74986392849154     -1.07138177818851
  N   -0.97999483323886     -1.21182427795917      1.05508093446447
  O   -2.19019974738615     -1.19521536038845      1.26707006890941
  O   -0.18758338095076     -2.04109940245647      1.49546738117502
  C   -1.36996323545692      0.80637276120813     -0.30038720163402
  N   -2.01156389703698      1.66439535973738     -0.78821151391067
