11
Coordinates from ORCA-job run
  C   0.64678441212930      0.63042456372118     -0.29047382158268
  C   -0.56651319313760      0.18870560133374      0.17034319492329
  H   0.73568625592487      1.70274298736087     -0.44175874135570
  N   1.73541153927362     -0.08710672382936     -0.57624846569038
  H   2.56435370218149      0.36783112906321     -0.91276182903235
  H   1.71438134269403     -1.08805928628735     -0.45907616176134
  N   -0.84552336533826     -1.20469392400596      0.42237001821806
  O   0.06553656209856     -2.01588037941324      0.20481425473876
  O   -1.96199193563753     -1.50130862704972      0.83518928692998
  C   -1.62360734923840      1.10396810946224      0.42612389961736
  N   -2.46351797095008      1.90337654964440      0.62147836499500
