11
Coordinates from ORCA-job run
  C   0.83816039826659     -0.20621848866445     -0.18302295208667
  C   -0.45941008529487     -0.12675708767024      0.21997295689491
  H   1.36820418366658     -1.13583750923888     -0.00378454024949
  N   1.53039776758705      0.79432502705339     -0.75113888524345
  H   2.43705333330901      0.61517206318269     -1.14261389649262
  H   1.06497457053764      1.64603576818426     -1.02418792512273
  N   -1.08797689717684     -1.27126604612576      0.85818434432620
  O   -2.26336068861183     -1.13400321327262      1.18877483430988
  O   -0.41162159763684     -2.28366008576445      1.02209546683709
  C   -1.24092078720482      1.03944295497697      0.02225077649084
  N   -1.77550019744167      2.06276661733909     -0.20753017966396
