11
Coordinates from ORCA-job run
  C   0.80705256966197     -0.19883527892277     -0.29284884353809
  C   -0.43043541999734     -0.13666633658029      0.27219244989320
  H   1.37710239029228     -1.11348324796127     -0.16715096570937
  N   1.38342128715008      0.79164483933852     -0.98821295777232
  H   0.90147204214394      1.66045620179587     -1.15760360400069
  H   2.28775584716876      0.66493571853385     -1.40328957321938
  N   -0.94574726037387     -1.27733717543609      1.00906497175429
  O   -0.23062913931519     -2.27185533951741      1.10662280925585
  O   -2.07266056684392     -1.15696733473105      1.48379129055670
  C   -1.25281180230540      1.01226563038492      0.15667387500024
  N   -1.82651994758131      2.02484232309572     -0.02023945222044
