11
Coordinates from ORCA-job run
  C   0.75995656660293      0.55794525115033     -0.12143160209709
  C   -0.53485110544770      0.24204896292668      0.19748937055145
  H   1.04016080973239      1.60001825199562      0.00688961949585
  N   1.71807300488934     -0.24680978235924     -0.58817281440497
  H   1.53301172865605     -1.23428022923190     -0.67107211414099
  H   2.65145517868217      0.10620837877725     -0.70093479180420
  N   -1.06174362186730     -1.09685253745621      0.08440623287298
  O   -0.28795048144032     -1.98222510040872     -0.30547987092273
  O   -2.23691832765870     -1.27848411116674      0.38594357730992
  C   -1.43643495776286      1.23842187985941      0.66128154217843
  N   -2.14575879438600      2.09200903591352      1.05108085096136
