11
Coordinates from ORCA-job run
  C   0.48331325182303      0.60508949068906     -0.54801113896331
  C   -0.48296136165680      0.19881529998990      0.33545542759495
  H   0.46210496310959      1.65544745265933     -0.82553839831664
  N   1.45840891927686     -0.12063057677901     -1.10055544373312
  H   2.06856879834612      0.29479908659503     -1.78071291195830
  H   1.50164623723997     -1.11080093247291     -0.91691571799196
  N   -0.59251082626547     -1.16295259519376      0.80066510345319
  O   0.22590440874063     -1.98248711986125      0.36060873185455
  O   -1.48542754713753     -1.42629488824358      1.59947707120809
  C   -1.43707343027195      1.12229215649173      0.84328963495391
  N   -2.20197341320445      1.92672262612546      1.23123764189862
