11
Coordinates from ORCA-job run
  C   0.74084571418400      0.57726657504291     -0.14522065424534
  C   -0.54706469804550      0.23762856312382      0.17973336302246
  H   0.99919907110821      1.62686955471954     -0.03291123557153
  N   1.71253641495210     -0.20985620839982     -0.61456273027446
  H   2.64115159039694      0.15832676652903     -0.71385675009842
  H   1.55426751794539     -1.20362119146852     -0.67494511697617
  N   -1.02915673858712     -1.12240781886530      0.11295193188851
  O   -0.23864832092400     -1.98917118470941     -0.28592738577497
  O   -2.19204576497960     -1.33763814853955      0.44062272760775
  C   -1.46253711760764      1.20972863451583      0.66534288826080
  N   -2.17854766844278      2.04987445805147      1.06977296216137
