11
Coordinates from ORCA-job run
  C   0.69197189429067     -0.24042510818765     -0.49069804501660
  C   -0.40554773485167     -0.13325189151184      0.30814030585687
  H   1.06539220738102     -1.23563257236597     -0.70829384077074
  N   1.35470212123982      0.79377219468904     -1.02727425705176
  H   1.05124334358681      1.74334949185409     -0.87818869584493
  H   2.14257748534984      0.63899183891398     -1.62839341949033
  N   -1.03386916839225     -1.33160457934896      0.83607532279143
  O   -2.02281691100892     -1.16224191508963      1.54563747955300
  O   -0.54221768072540     -2.41841914870907      0.54118122252744
  C   -0.96882315979195      1.12194372004137      0.64986935970331
  N   -1.33161239707798      2.22351796971465      0.85194456774230
