15

C	0.0	0.0	0.0
C	-0.471809	0.184845	-1.443099
Cl	1.852044	0.0	0.0
H	-1.570043	0.109024	-1.407715
H	-0.057317	-0.60608	-2.074084
N	-0.503843	1.038361	0.796784
H	-0.227942	1.964719	0.508006
H	-0.391023	0.891534	1.786798
C	-0.447886	-1.347299	0.530317
H	-1.54244	-1.357214	0.526755
H	-0.049335	-2.153579	-0.088549
H	-0.076206	-1.487071	1.549255
C	-0.090185	1.48447	-1.988019
N	0.19481	2.541984	-2.410589
Br	-4.042302	0.0	0.0
