15

C	0.0	0.0	0.0
C	-0.474251	-0.20267	-1.44243
Cl	1.845149	0.0	0.0
H	-0.165583	0.650757	-2.055247
H	-1.574831	-0.220738	-1.391582
N	-0.504745	1.234106	0.452908
H	-0.145154	2.032176	-0.047485
H	-0.45069	1.354986	1.451544
C	-0.461045	-1.129494	0.898444
H	-0.042963	-2.080065	0.562488
H	-0.124306	-0.94899	1.922514
H	-1.555698	-1.15508	0.867588
C	0.032436	-1.428717	-2.051773
N	0.430509	-2.415113	-2.547799
Br	-4.047638	0.0	0.0
