15

C	0.0	0.0	0.0
C	-0.48894	0.115699	-1.447179
Cl	1.795394	0.0	0.0
H	-0.157929	1.077886	-1.845396
H	-1.588094	0.105849	-1.412108
N	-0.473016	1.182886	0.682011
H	-1.495633	1.155221	0.617569
H	-0.239105	1.103292	1.667086
C	-0.439329	-1.315599	0.630828
H	-1.532094	-1.339092	0.632458
H	-0.048315	-2.174415	0.080641
H	-0.073518	-1.365362	1.659962
C	-0.01967	-0.960219	-2.311173
N	0.35412	-1.820209	-3.017646
Br	-3.838311	0.0	0.0
