15

C	0.0	0.0	0.0
C	-0.492007	0.3603	-1.400337
Cl	1.85586	0.0	0.0
H	-0.19051	1.381328	-1.650549
H	-1.591527	0.326483	-1.332983
N	-0.484422	0.980424	0.891484
H	-0.079422	1.892152	0.733462
H	-0.390566	0.710019	1.859363
C	-0.465113	-1.37709	0.420011
H	-0.092173	-2.138221	-0.266112
H	-1.56015	-1.361579	0.418816
H	-0.097497	-1.604846	1.424128
C	-0.014637	-0.5459	-2.437862
N	0.355477	-1.274469	-3.280859
Br	-3.994007	0.0	0.0
