15

C	0.0	0.0	0.0
C	-0.459709	-0.168703	-1.462293
Cl	1.800767	0.0	0.0
H	-1.555818	-0.237694	-1.423916
H	-0.05379	-1.088167	-1.890901
N	-0.479616	1.195352	0.633042
H	-1.498325	1.107012	0.672039
H	-0.255457	2.005746	0.06369
C	-0.441388	-1.210597	0.807978
H	-0.079239	-1.10172	1.831248
H	-1.532825	-1.253379	0.804828
H	-0.031557	-2.126236	0.375769
C	-0.079351	0.963479	-2.298653
N	0.202159	1.888163	-2.965921
Br	-3.844491	0.0	0.0
