15

C	0.0	0.0	0.0
C	-0.489575	0.14899	-1.439608
Cl	1.852753	0.0	0.0
H	-1.589255	0.113512	-1.373347
H	-0.125022	-0.679234	-2.052177
N	-0.480922	1.081612	0.765138
H	-0.315625	0.963948	1.754057
H	-0.136956	1.978225	0.44923
C	-0.475081	-1.314029	0.580194
H	-0.118219	-1.422473	1.607721
H	-1.570046	-1.294774	0.567976
H	-0.096404	-2.154022	-0.00503
C	-0.076251	1.411273	-2.043915
N	0.251037	2.426995	-2.533173
Br	-3.986999	0.0	0.0
