16

C	-0.465056	0.10409	-1.401154
C	0.0	0.0	0.0
Cl	-2.231966	-0.086846	-1.636954
H	1.094356	0.0	0.0
H	-0.35032	-0.959735	0.386855
N	-0.028213	1.448251	-1.97982
O	1.162572	1.522918	-2.244751
O	-0.856261	2.349136	-2.043317
N	0.144066	-0.964171	-2.310748
O	0.456527	-2.018477	-1.779789
O	0.191662	-0.703916	-3.507537
C	-0.466501	1.166611	0.859898
H	-0.163327	0.969225	1.89036
H	-1.547542	1.341163	0.837801
H	0.043843	2.083645	0.556104
F	2.577038	0.0	0.0
