14

C	-0.405824	0.04564	-1.475542
C	0.0	0.0	0.0
Cl	0.125667	-1.428408	-2.348582
H	1.095721	0.0	0.0
H	0.123827	0.878034	-1.947864
C	-1.847436	0.197179	-1.672138
N	-3.00777	0.323924	-1.810252
C	-0.508872	-1.214143	0.764898
H	-0.058751	-2.116416	0.349097
H	-1.599513	-1.304325	0.74073
H	-0.183581	-1.133509	1.804173
C	-0.444993	1.242179	0.61301
N	-0.786036	2.250164	1.115189
H	2.686747	0.0	0.0
