14

C	-0.505074	-0.048162	-1.441003
C	0.0	0.0	0.0
Cl	0.049223	1.372795	-2.386993
H	1.095388	0.0	0.0
H	-1.599051	-0.008332	-1.475831
C	-0.083779	-1.271071	-2.127217
N	0.206162	-2.257664	-2.695154
C	-0.398277	-1.263228	0.766278
H	-1.479167	-1.445321	0.766747
H	0.11806	-2.121573	0.330339
H	-0.053878	-1.168031	1.797483
C	-0.516938	1.187914	0.654911
N	-0.929846	2.142333	1.20595
H	2.675645	0.0	0.0
