14

C	-0.50307	-0.064106	-1.440803
C	0.0	0.0	0.0
Cl	0.040441	1.358169	-2.392935
H	1.095498	0.0	0.0
H	-1.596271	-0.031218	-1.473556
C	-0.070853	-1.285776	-2.124221
N	0.19567	-2.269686	-2.708565
C	-0.402263	-1.258114	0.772382
H	0.111715	-2.120497	0.337961
H	-1.483638	-1.435428	0.77482
H	-0.056352	-1.157907	1.802131
C	-0.526996	1.188546	0.64701
N	-0.947605	2.131442	1.212062
H	2.677067	0.0	0.0
