14
Coordinates from ORCA-job run
  C   -0.36085426376178     -0.15963314948958      0.31808535561038
  C   0.90964200557755      0.52908349532815     -0.20208284740344
  Cl  0.12143516953991     -1.70877528225858      1.10847690241919
  H   0.59819990688818      1.49299932561489     -0.61702816003701
  H   1.56152442775632      0.73045329492497      0.65828547037097
  C   -0.96585588702821      0.68825647003000      1.34612197558691
  N   -1.44838583665491      1.41118421104369      2.13638794476602
  C   -1.35915243695292     -0.46199503401662     -0.78869581261661
  H   -1.68284780055647      0.47608728481649     -1.24749911136576
  H   -2.23088785425841     -0.97872264160374     -0.38650236291325
  H   -0.87287651400009     -1.07714809743605     -1.54305453598924
  N   1.52053193512888     -0.25964873635606     -1.25830368007905
  H   2.07624420586249     -1.00527274577410     -0.85956858558426
  H   2.13328294245948      0.32213160517654     -1.81362255276484
