14
Coordinates from ORCA-job run
  C   -0.34334462488192     -0.21455219725546      0.31077192715623
  C   0.90060888727255      0.54224114407370     -0.17885752220532
  Cl  0.18656114362325     -1.81863611619274      0.94540358812615
  H   1.57201018640743      0.67965718670398      0.67932537873074
  H   0.56065555839025      1.53278946283029     -0.49806184706358
  C   -0.93211251883060      0.52644702755900      1.42692728267167
  N   -1.40245309316939      1.16661684466014      2.29241172718659
  C   -1.36691732530060     -0.43561310879309     -0.79202467721460
  H   -0.89172142030414     -0.97248801511160     -1.61059476032814
  H   -1.71820532759693      0.53331198753759     -1.15685884139628
  H   -2.21872880354072     -1.00221607641279     -0.41503280459543
  N   1.49585925735003     -0.13777391880306     -1.31635856169284
  H   2.07967269533848      0.50382008131026     -1.83593159534730
  H   2.07811538524231     -0.90260430210621     -1.00011929402789
