14
Coordinates from ORCA-job run
  C   -0.38093051515497     -0.21987900305619      0.28275138383123
  C   0.92925732013771      0.47909776861488     -0.11075472228934
  Cl  0.01749246745816     -1.88666955496526      0.84852846851012
  H   1.56762335497531      0.52756307195672      0.78144885925980
  H   0.66718321649746      1.50482117308550     -0.38946406570028
  C   -0.97184077687275      0.49791305591351      1.41284195157555
  N   -1.43810010757415      1.12153910407476      2.29258062346567
  C   -1.36444333803712     -0.31487105473506     -0.87331104659714
  H   -1.63889158707428      0.69279197280253     -1.19678664096248
  H   -2.26565978017786     -0.84600088829725     -0.56628027956497
  H   -0.88514018325588     -0.83507920155436     -1.70020133556417
  N   1.53301359730481     -0.17773292882364     -1.25739845585347
  H   2.17885960507235      0.45104608919278     -1.71546206693744
  H   2.05157672670122     -0.99353960420891     -0.95849267317309
