14
Coordinates from ORCA-job run
  C   -0.39750231041583     -0.15118777294000      0.13119491167803
  C   0.86241458524442      0.06923947296210     -0.70774093699576
  Cl  0.04898747761535     -1.15443216301036      1.56295836236994
  H   1.19973968821978     -0.92273589662143     -1.04316541616464
  H   0.55880814384436      0.63777338071303     -1.59273340055658
  C   -0.90708621749326      1.12976225757195      0.62129580219560
  N   -1.38434012010809      2.14511236987213      0.96787256040759
  C   -1.47566734104989     -0.88851756208538     -0.65196893080278
  H   -2.34760563285555     -1.07265959034183     -0.02411530612883
  H   -1.78062879684065     -0.28609990439250     -1.51140551582939
  H   -1.08553419981308     -1.84588204652181     -1.00220812421687
  N   1.84655762948507      0.84216950582386      0.02372952613814
  H   2.33679039942354      0.25631904208083      0.68663290412695
  H   2.52606669474383      1.24113890688941     -0.60934643622139
