14
Coordinates from ORCA-job run
  C   -0.37999899144018     -0.15043357762700      0.08712287439091
  C   0.94905405691211     -0.06505156106240     -0.69709176660548
  Cl  -0.06241648534868     -0.98043554825801      1.65396916964859
  H   1.29257549654737     -1.09293241114110     -0.84740011804315
  H   0.70945933743352      0.35164232742891     -1.68140023733410
  C   -0.84523810750896      1.20335370993010      0.38666357258001
  N   -1.18649911061375      2.31316682737771      0.56688725911178
  C   -1.43625458436994     -0.93561670334841     -0.67661400377333
  H   -1.66163234411237     -0.42879245591273     -1.61824571171404
  H   -1.05869368467201     -1.93732145248946     -0.89040845759400
  H   -2.35354458241817     -1.02300200957952     -0.09383417376902
  N   2.01624820827959      0.70968141534039     -0.11532430084998
  H   2.26573305802040      0.35246295945600      0.79758266901630
  H   1.75220773329108      1.68227847988552     -0.01990677506447
