16

C	0.0	0.0	0.0
C	-0.33831	0.011424	-1.53215
Br	1.965666	0.0	0.0
H	-0.177259	1.057741	-1.79835
N	-0.527668	1.098485	0.647283
H	-0.280738	1.04686	1.628951
H	-1.591367	0.867099	0.507946
N	-0.347029	-1.370094	0.636154
O	-0.334214	-2.351174	-0.092828
O	-0.550877	-1.359199	1.842033
N	-1.748034	-0.276783	-2.075606
O	-2.299188	0.69352	-2.578391
O	-2.099639	-1.439472	-2.156671
C	0.525633	-0.824765	-2.368995
N	1.190489	-1.424203	-3.129236
F	-2.602872	0.0	0.0
