16

C	0.0	0.0	0.0
C	-0.328558	0.007507	-1.516681
Br	1.990641	0.0	0.0
H	0.230191	0.835001	-1.948459
N	-0.417595	1.230018	0.699066
H	-0.228652	2.054221	0.18509
H	-0.226002	1.208617	1.669489
N	-0.40557	-1.331997	0.817669
O	-1.496234	-1.866864	0.619629
O	0.397467	-1.734241	1.647258
N	-1.796772	0.337063	-1.926187
O	-2.685567	-0.501458	-1.853762
O	-1.915153	1.48417	-2.371067
C	0.033336	-1.198319	-2.250819
N	0.260558	-1.918191	-3.155361
F	-1.755597	0.0	0.0
