17

C	-0.418387	0.018237	-1.477316
C	0.0	0.0	0.0
F	-0.049738	1.262557	-1.993208
H	1.09556	0.0	0.0
C	0.33997	-1.023823	-2.273157
H	1.410276	-0.89793	-2.082488
H	0.124905	-0.897809	-3.339695
H	0.041341	-2.028941	-1.96598
N	-1.866202	-0.011788	-1.58794
H	-2.210558	-0.866141	-1.163057
H	-2.118847	-0.027423	-2.571659
C	-0.491778	-1.240881	0.599618
N	-0.917399	-2.248698	1.032131
N	-0.459798	1.157173	0.755584
H	-1.283704	1.534393	0.298568
H	0.285158	1.843424	0.694337
H	2.801792	0.0	0.0
