17

C	-0.303832	-0.04157	-1.489047
C	0.0	0.0	0.0
F	-1.685433	-0.226992	-1.715947
H	1.096319	0.0	0.0
C	0.074845	1.266473	-2.153514
H	-0.09906	1.181498	-3.23235
H	-0.514169	2.088064	-1.746777
H	1.135854	1.455075	-1.962537
N	0.382228	-1.197244	-2.002262
H	0.442406	-1.134124	-3.012292
H	1.335378	-1.17387	-1.629908
C	-0.477715	-1.211763	0.668711
N	-0.879697	-2.121655	1.296219
N	-0.448762	1.222279	0.658691
H	-1.356283	1.085696	1.086593
H	0.221163	1.434628	1.390061
H	2.762563	0.0	0.0
