17

C	-0.504615	0.069896	-1.449189
C	0.0	0.0	0.0
F	-0.089123	1.328403	-1.907063
H	1.09992	0.0	0.0
C	0.164143	-0.974279	-2.309299
H	-0.135114	-1.980226	-2.00421
H	1.245534	-0.878312	-2.185415
H	-0.121759	-0.812178	-3.350849
N	-1.94118	0.057172	-1.583919
H	-2.314518	0.596381	-0.80647
H	-2.267718	-0.896	-1.479623
C	-0.491016	-1.233261	0.603448
N	-0.888156	-2.233554	1.076809
N	-0.545411	1.159927	0.736994
H	-0.209805	1.081569	1.692631
H	-0.049011	1.957471	0.347074
H	2.836456	0.0	0.0
