17

C	-0.36802	0.058954	-1.48944
C	0.0	0.0	0.0
F	-0.213806	-1.277726	-1.979113
H	1.095973	0.0	0.0
C	-1.803065	0.43548	-1.775231
H	-2.477767	-0.309054	-1.345836
H	-2.001943	1.414683	-1.342195
H	-1.969526	0.471391	-2.856524
N	0.554088	0.934785	-2.108968
H	0.508582	0.836961	-3.115825
H	1.49757	0.726099	-1.772605
C	-0.525297	-1.197979	0.639713
N	-0.987346	-2.113406	1.216119
N	-0.39805	1.225468	0.704221
H	-1.093569	1.026513	1.411636
H	0.435075	1.578119	1.165683
H	2.778383	0.0	0.0
