17

C	-0.39155	0.043347	-1.486237
C	0.0	0.0	0.0
F	-0.115187	-1.223357	-2.005236
H	1.094894	0.0	0.0
C	-1.858807	0.318944	-1.727084
H	-2.464599	-0.463479	-1.263929
H	-2.041011	0.329748	-2.803368
H	-2.133934	1.286839	-1.303505
N	0.441042	0.981097	-2.196151
H	1.403192	0.75993	-1.925863
H	0.250785	1.89047	-1.784763
C	-0.544365	-1.155435	0.698394
N	-1.029541	-2.047111	1.293741
N	-0.350378	1.278305	0.636661
H	0.432897	1.534454	1.230279
H	-1.17513	1.187364	1.216472
H	2.765266	0.0	0.0
