17

C	-0.40883	-0.029538	-1.47841
C	0.0	0.0	0.0
F	-0.062438	1.249131	-1.997398
H	1.095743	0.0	0.0
C	0.398733	-1.043889	-2.251818
H	1.458351	-0.848622	-2.073381
H	0.153485	-2.048721	-1.906062
H	0.168807	-0.964748	-3.319506
N	-1.815484	-0.235998	-1.647258
H	-2.34583	0.376382	-1.039731
H	-2.072281	-0.043516	-2.60802
C	-0.492743	-1.196642	0.67867
N	-0.854875	-2.166125	1.237787
N	-0.402711	1.215548	0.721684
H	-1.053821	1.755144	0.165007
H	0.445711	1.772974	0.782381
H	2.781287	0.0	0.0
