17

C	-0.417821	0.081374	-1.469967
C	0.0	0.0	0.0
F	-1.793034	0.547207	-1.506206
H	1.094379	0.0	0.0
C	0.404277	1.11634	-2.202121
H	1.462222	0.881881	-2.05336
H	0.19946	2.108688	-1.797446
H	0.148274	1.118638	-3.266214
N	-0.32605	-1.179468	-2.104108
H	-0.875248	-1.875968	-1.614802
H	-0.640378	-1.110941	-3.062809
C	-0.539333	-1.209525	0.61978
N	-0.986736	-2.197905	1.073701
N	-0.371989	1.174001	0.784332
H	0.434359	1.78675	0.806491
H	-1.156304	1.646971	0.357171
H	2.758055	0.0	0.0
