17

C	-0.284033	0.016201	-1.515633
C	0.0	0.0	0.0
F	0.003705	-1.300477	-1.976128
H	1.098101	0.0	0.0
C	-1.721737	0.258971	-1.927043
H	-1.804507	0.17727	-3.015023
H	-2.370976	-0.493142	-1.475235
H	-2.048525	1.256841	-1.63368
N	0.605957	0.964736	-2.079293
H	1.550256	0.779808	-1.719191
H	0.599911	0.893141	-3.090181
C	-0.568426	-1.185489	0.628534
N	-1.055906	-2.128466	1.133257
N	-0.38547	1.201329	0.729933
H	0.316443	1.903772	0.528431
H	-1.284098	1.547777	0.417513
H	2.79367	0.0	0.0
