17

C	-0.306329	-0.037604	-1.489176
C	0.0	0.0	0.0
F	-1.690858	-0.214673	-1.712264
H	1.096368	0.0	0.0
C	0.075871	1.270107	-2.150473
H	-0.107066	1.190553	-3.227403
H	1.13908	1.449799	-1.967328
H	-0.50472	2.094748	-1.737366
N	0.372535	-1.195786	-2.007385
H	0.44182	-1.125531	-3.015744
H	1.322427	-1.186694	-1.627928
C	-0.477332	-1.212501	0.667578
N	-0.873522	-2.124971	1.295005
N	-0.446341	1.220996	0.661386
H	0.227405	1.437222	1.388143
H	-1.351706	1.083216	1.092173
H	2.761889	0.0	0.0
