17

C	-0.316578	0.007503	-1.493202
C	0.0	0.0	0.0
F	-1.706871	-0.122265	-1.67741
H	1.099951	0.0	0.0
C	0.134624	1.302117	-2.121665
H	1.203739	1.431226	-1.930128
H	-0.053221	1.250453	-3.195794
H	-0.406369	2.133887	-1.673948
N	0.302548	-1.111607	-2.167048
H	-0.015799	-1.967272	-1.72059
H	1.302959	-1.039033	-1.970419
C	-0.461574	-1.249843	0.608948
N	-0.856147	-2.234371	1.118446
N	-0.447911	1.188156	0.71643
H	0.229999	1.381721	1.445869
H	-1.353208	1.037371	1.142335
H	2.759446	0.0	0.0
