17

C	-0.504555	0.057049	-1.450208
C	0.0	0.0	0.0
F	-0.082451	1.308333	-1.920826
H	1.096245	0.0	0.0
C	0.157978	-1.000201	-2.299798
H	1.23975	-0.9125	-2.17361
H	-0.12298	-0.84378	-3.343486
H	-0.151522	-2.001195	-1.988183
N	-1.940877	0.0519	-1.584611
H	-2.308697	0.610118	-0.81761
H	-2.275612	-0.896489	-1.46015
C	-0.494473	-1.2254	0.615689
N	-0.899616	-2.222206	1.090134
N	-0.540657	1.170959	0.72546
H	-0.22297	1.088469	1.687617
H	-0.021989	1.958022	0.342864
H	2.83804	0.0	0.0
