16

C	0.0	0.0	0.0
C	-0.472708	-0.060206	-1.440849
F	1.450915	0.0	0.0
H	-1.566385	-0.274043	-1.331653
N	-0.467697	1.173953	0.630807
H	-0.993899	0.926045	1.458152
H	-1.135206	1.620682	0.013421
C	-0.311763	-1.211181	0.78894
N	-0.399417	-2.111213	1.538979
N	0.202314	-1.227443	-2.142904
O	-0.027383	-2.353076	-1.707841
O	0.907852	-0.983276	-3.125722
N	-0.23852	1.181487	-2.08775
H	-0.65205	1.179642	-3.009055
H	0.756014	1.346039	-2.175368
H	-2.954748	0.0	0.0
