16

C	0.0	0.0	0.0
C	-0.36767	-0.197823	-1.49536
F	1.410292	0.0	0.0
H	0.496142	-0.688472	-1.953567
N	-0.563843	1.178386	0.542797
H	-1.590015	1.060832	0.416338
H	-0.390744	1.197499	1.543965
C	-0.318727	-1.244593	0.757416
N	-0.439075	-2.155349	1.491378
N	-0.274228	1.220179	-2.150434
O	0.847318	1.717232	-2.224592
O	-1.303452	1.717788	-2.595681
N	-1.564952	-0.880603	-1.687799
H	-2.343712	-0.511264	-1.057699
H	-1.84138	-0.886861	-2.661198
H	-3.198311	0.0	0.0
