14

C	0.0	0.0	0.0
C	-0.548633	0.025209	-1.413214
Br	1.943114	0.0	0.0
H	-0.189393	0.896269	-1.959662
H	-1.65629	0.104708	-1.231041
N	-0.278204	1.444142	0.610702
O	-0.416073	1.484967	1.827209
O	-0.291259	2.410922	-0.141562
N	-0.610758	-0.995234	0.732942
H	-1.660366	-0.792549	0.58111
H	-0.388078	-0.899551	1.718079
C	-0.243014	-1.196062	-2.133987
N	-0.035708	-2.167781	-2.760327
H	-2.91648	0.0	0.0
