14

C	0.0	0.0	0.0
C	-0.51889	0.12799	-1.413669
Br	2.008759	0.0	0.0
H	-1.626868	0.210018	-1.241467
H	-0.143144	1.025787	-1.900443
N	-0.253905	1.39977	0.710358
O	-0.362698	1.35923	1.930038
O	-0.307896	2.41267	0.023005
N	-0.62865	-1.025773	0.651807
H	-1.697902	-0.773444	0.483414
H	-0.432906	-0.983005	1.647517
C	-0.229663	-1.051886	-2.206695
N	-0.04769	-1.980356	-2.903571
H	-2.858084	0.0	0.0
