14

C	0.0	0.0	0.0
C	-0.53895	0.076246	-1.408171
Br	2.00948	0.0	0.0
H	-0.178774	0.963537	-1.926163
H	-1.648719	0.154662	-1.215326
N	-0.23505	1.429719	0.655912
O	-0.272375	2.415985	-0.069905
O	-0.339944	1.437594	1.876381
N	-0.619388	-0.997308	0.70486
H	-0.414475	-0.908158	1.695488
H	-1.68082	-0.771828	0.540469
C	-0.252705	-1.12207	-2.173338
N	-0.083206	-2.059958	-2.860401
H	-2.877956	0.0	0.0
