14

C	0.0	0.0	0.0
C	-0.525049	-0.007912	-1.436954
Br	1.938989	0.0	0.0
H	-1.632986	0.087838	-1.258605
H	-0.14207	0.824377	-2.027545
N	-0.352629	1.395636	0.586699
O	-0.499018	1.478201	1.794027
O	-0.384261	2.330906	-0.206969
N	-0.57046	-0.959961	0.848461
H	-0.382169	-1.883124	0.466938
H	-1.612778	-0.756089	0.74
C	-0.236195	-1.276039	-2.079781
N	-0.007849	-2.310851	-2.588703
H	-2.914227	0.0	0.0
