15

C	0.0	0.0	0.0
C	-0.494278	0.175778	-1.449321
Br	1.971503	0.0	0.0
H	-1.575366	0.002583	-1.408029
H	-0.029585	-0.619896	-2.042044
C	-0.366616	1.156341	0.817347
N	-0.577581	2.115741	1.462634
C	-0.492503	-1.304993	0.60153
H	-1.586776	-1.260815	0.61816
H	-0.105681	-1.444362	1.612781
H	-0.162356	-2.137346	-0.025343
N	-0.254817	1.461513	-2.070572
H	0.700892	1.760868	-1.915983
H	-0.874859	2.146414	-1.655112
Br	-3.854404	0.0	0.0
