13
Coordinates from ORCA-job run
  C   -0.12168800893167      0.24414229086253      0.34321295518593
  C   1.15814791457666      0.01103842878583     -0.48131467494912
  Cl  0.02033520341585     -0.66116401205753      1.88536592793947
  H   1.12615189242736      0.65175604701595     -1.36869273353964
  H   2.03140687096731      0.29748166056437      0.10974140210799
  C   -1.37817013783478     -0.20819445251717     -0.38973493653323
  H   -2.26025029165993     -0.00597536037662      0.21802917945272
  H   -1.46796430696554      0.33155512624782     -1.33607378938478
  H   -1.32257264029125     -1.27928095518140     -0.58884968494235
  C   -0.19738539704122      1.67218303273736      0.65906170463313
  N   -0.25621436971176      2.82593586827017      0.87266055053624
  C   1.28705425039935     -1.38139780617220     -0.90163338965631
  N   1.38114902064963     -2.49707986817911     -1.25277251085006
