13
Coordinates from ORCA-job run
  C   -0.17803519849739      0.16066474381369      0.42836317309894
  C   1.04974772042133     -0.64800224320020     -0.02881429013526
  Cl  -0.46916486126613     -0.27357074227100      2.14685792624301
  H   1.90896485778738     -0.40197261058087      0.60021082483960
  H   0.83169816050072     -1.71180745104492      0.10202713141744
  C   -1.42122829073716     -0.16694048565783     -0.38796481177735
  H   -1.26293573073364      0.10732988736582     -1.43326555758567
  H   -1.62904231744361     -1.23674265640191     -0.32181552150810
  H   -2.27961007530871      0.38356068473208     -0.00243727416657
  C   0.11892909046967      1.59258046048598      0.36643657949880
  N   0.35782995766256      2.74020498085968      0.28622174690009
  C   1.36956728986047     -0.38206610015003     -1.42924489021934
  N   1.60427939728450     -0.16523846795048     -2.55857503660560
