17

C	-0.218418	0.129372	-1.517419
C	0.0	0.0	0.0
Br	-0.177118	-1.880721	-2.264661
H	1.087287	0.0	0.0
N	-1.51755	0.545263	-1.960979
H	-1.607566	0.399151	-2.957029
H	-1.607639	1.532536	-1.740815
N	0.889032	0.823662	-1.964122
H	0.96341	0.899685	-2.968489
H	1.763348	0.557847	-1.457746
N	-0.656766	-1.154678	0.648899
O	0.054206	-2.071757	1.047202
O	-1.883189	-1.097948	0.748428
N	-0.456	1.197928	0.760332
O	-0.417324	1.088741	1.982195
O	-0.775249	2.222261	0.160882
F	2.581883	0.0	0.0
