17

C	-0.416891	-0.005761	-1.466035
C	0.0	0.0	0.0
Br	0.251761	1.694654	-2.384065
H	1.087287	0.0	0.0
N	0.297149	-1.119584	-1.986776
H	1.278104	-1.023173	-1.704513
H	0.218577	-1.166002	-2.996011
N	-1.833059	0.045773	-1.676222
H	-2.047729	0.097609	-2.662886
H	-2.232034	-0.788713	-1.262615
N	-0.446059	-1.250851	0.699803
O	-1.452806	-1.858446	0.324192
O	0.241256	-1.581535	1.662369
N	-0.565996	1.112611	0.803241
O	-1.442457	0.848664	1.630436
O	-0.102452	2.226676	0.605172
F	2.508883	0.0	0.0
