17

C	-0.163193	-0.06712	-1.521342
C	0.0	0.0	0.0
Br	-2.031665	-1.007156	-2.019929
H	1.090424	0.0	0.0
N	-0.187871	1.225736	-2.093544
H	-0.063122	1.158367	-3.094304
H	-1.043792	1.720183	-1.878643
N	0.854493	-0.910749	-1.984952
H	1.715635	-0.726354	-1.43153
H	0.99136	-0.831419	-2.983622
N	-0.503418	-1.201877	0.708571
O	-1.478805	-1.068199	1.448711
O	0.10228	-2.245945	0.504558
N	-0.576394	1.176278	0.680013
O	-0.068896	1.452776	1.76395
O	-1.526188	1.778921	0.176678
F	2.553614	0.0	0.0
