17

C	-0.230635	-0.097696	-1.526795
C	0.0	0.0	0.0
Br	-0.232411	1.976514	-2.158448
H	1.096824	0.0	0.0
N	0.858609	-0.769253	-2.010054
H	0.893941	-0.830382	-3.015903
H	1.738359	-0.537221	-1.510327
N	-1.460162	-0.557953	-2.086287
H	-1.569213	-1.520064	-1.783514
H	-2.221046	-0.000209	-1.720827
N	-0.451441	-1.217357	0.731164
O	-0.524047	-1.111154	1.954344
O	-0.661664	-2.256485	0.10685
N	-0.694189	1.118806	0.666671
O	-1.926433	1.10477	0.581795
O	-0.030021	1.959176	1.259911
F	2.560568	0.0	0.0
