17

C	-0.26704	-0.143551	-1.499793
C	0.0	0.0	0.0
Br	0.450212	1.494596	-2.493148
H	1.1038	0.0	0.0
N	0.55259	-1.264595	-1.825959
H	0.606018	-1.392493	-2.828874
H	1.491031	-1.087897	-1.440628
N	-1.643154	-0.201791	-1.887182
H	-2.077367	-0.970816	-1.389538
H	-1.716317	-0.34324	-2.887211
N	-0.45891	-1.255277	0.68348
O	0.375898	-1.912165	1.291351
O	-1.657126	-1.546521	0.601493
N	-0.619046	1.109505	0.747403
O	-0.849633	2.164233	0.168534
O	-0.803009	0.910156	1.950509
F	2.519321	0.0	0.0
