17

C	-0.467941	0.01996	-1.466457
C	0.0	0.0	0.0
Br	0.240375	-1.606907	-2.287139
H	1.090785	0.0	0.0
N	-1.911786	-0.071227	-1.568656
H	-2.17332	-0.076361	-2.54887
H	-2.30862	0.76112	-1.139241
N	0.182905	1.114292	-2.174803
H	-0.307284	1.974048	-1.946462
H	0.102829	0.959913	-3.174365
N	-0.488059	-1.127061	0.831002
O	0.363841	-1.716195	1.572538
O	-1.733708	-1.284343	1.006166
N	-0.355068	1.202438	0.811665
O	-0.571593	1.069462	2.051993
O	-0.147447	2.346736	0.29768
F	2.487604	0.0	0.0
