16

C	0.0	0.0	0.0
C	-0.454627	-0.143814	-1.466417
Cl	1.821234	0.0	0.0
H	-1.54676	-0.031428	-1.360477
N	-0.473738	1.280003	0.452604
H	-1.500358	1.13134	0.424937
H	-0.18597	1.413999	1.41748
N	-0.479731	-1.173728	0.696952
H	-0.203296	-1.096135	1.670854
H	-1.507483	-1.015231	0.631213
N	-0.061161	-1.438282	-2.037765
H	-0.858715	-1.795975	-2.54942
H	0.060598	-2.051339	-1.23689
C	0.070623	0.950137	-2.291646
N	0.458065	1.795946	-3.008576
F	-2.819322	0.0	0.0
