16

C	0.0	0.0	0.0
C	-0.410001	-0.061262	-1.47722
Cl	1.862377	0.0	0.0
H	0.071742	-0.971737	-1.860722
N	-0.368332	1.252509	0.583997
H	0.258829	1.496294	1.338202
H	-0.337167	1.964281	-0.136628
N	-0.463736	-1.165261	0.672652
H	-0.18114	-1.096007	1.645972
H	-1.492212	-0.964217	0.622999
N	0.047147	1.15342	-2.17231
H	-0.446104	1.19896	-3.055518
H	1.038976	1.067263	-2.361088
C	-1.862635	-0.214684	-1.791328
N	-2.581334	-0.410536	-2.716799
F	-2.710633	0.0	0.0
