16

C	0.0	0.0	0.0
C	-0.232202	0.035332	-1.572047
Cl	1.835285	0.0	0.0
H	0.558491	0.658563	-2.002007
N	-0.623742	1.071046	0.68641
H	-0.496015	1.918915	0.144202
H	-1.643853	0.814729	0.594708
N	-0.477212	-1.224494	0.5411
H	0.208033	-1.962397	0.507079
H	-0.844691	-1.08229	1.469713
N	-1.515902	0.597759	-1.923274
H	-2.257546	0.259478	-1.24736
H	-1.746785	0.326539	-2.871453
C	0.013907	-1.324116	-2.102922
N	0.190305	-2.379811	-2.589109
F	-3.057373	0.0	0.0
