16

C	0.0	0.0	0.0
C	-0.285441	0.287706	-1.528607
Cl	1.82284	0.0	0.0
H	0.563818	0.876784	-1.886759
N	-0.440453	1.138602	0.768666
H	-0.219728	0.942717	1.742499
H	-1.464677	1.078556	0.667848
N	-0.506044	-1.291789	0.366109
H	-0.281993	-1.446708	1.345301
H	-1.530271	-1.130166	0.300243
N	-1.478456	1.07136	-1.804899
H	-1.641834	1.046225	-2.805614
H	-2.267036	0.639342	-1.289065
C	-0.235024	-0.987948	-2.28525
N	-0.257851	-1.891787	-3.039521
F	-2.902883	0.0	0.0
