17

C	-0.487827	0.003785	-1.437806
C	0.0	0.0	0.0
Cl	-2.216891	-0.257769	-1.598583
H	1.09399	0.0	0.0
N	-0.095215	1.342268	-2.071463
O	-0.957889	2.202704	-2.175934
O	1.090495	1.434235	-2.351233
N	0.195583	-1.060621	-2.299294
O	0.085593	-0.904888	-3.508559
O	0.738242	-1.981266	-1.710205
C	-0.483154	-1.193437	0.685554
N	-0.903216	-2.100485	1.302595
C	-0.451796	1.258064	0.751259
H	-0.136174	1.161403	1.790541
H	-1.534395	1.396813	0.71488
H	0.04622	2.136183	0.338518
Cl	3.230237	0.0	0.0
