17

C	-0.416203	0.005164	-1.460035
C	0.0	0.0	0.0
Cl	0.309681	-1.311258	-2.330263
H	1.096567	0.0	0.0
N	-1.9355	-0.057083	-1.695861
O	-2.660065	-0.1622	-0.715513
O	-2.290898	0.008949	-2.863449
N	-0.040856	1.352632	-2.099143
O	-0.825224	2.260458	-1.83973
O	0.975339	1.418882	-2.763931
C	-0.439788	-1.249073	0.615121
N	-0.762808	-2.242086	1.152734
C	-0.415074	1.212745	0.839984
H	0.089337	2.106519	0.475105
H	-1.491955	1.371684	0.854587
H	-0.060458	1.033456	1.856211
Cl	3.205081	0.0	0.0
