17

C	-0.423996	0.001044	-1.462811
C	0.0	0.0	0.0
Cl	0.220353	-1.375236	-2.308447
H	1.094716	0.0	0.0
N	-1.954656	0.039032	-1.566881
O	-2.444651	1.14679	-1.367374
O	-2.556621	-1.006154	-1.756482
N	0.01351	1.252669	-2.22981
O	0.762076	2.036624	-1.668231
O	-0.430802	1.336316	-3.368373
C	-0.453908	-1.25836	0.591134
N	-0.838339	-2.23009	1.128427
C	-0.498931	1.163293	0.864823
H	-0.213703	2.116815	0.428743
H	-0.001445	1.072929	1.832167
H	-1.579073	1.13429	1.017336
Cl	3.221427	0.0	0.0
