13

C	-0.621004	0.112723	-1.588977
C	0.111187	0.069485	-0.230722
Br	0.069488	-1.261125	-2.781588
H	1.198399	0.111973	-0.399663
H	-0.43646	1.064831	-2.092291
C	-2.057777	-0.072923	-1.422603
N	-3.215315	-0.200107	-1.266441
N	-0.160179	-1.156317	0.479401
H	0.714302	-1.407065	0.946766
H	-0.890914	-1.029639	1.167547
C	-0.280999	1.294999	0.491647
N	-0.657602	2.257702	1.051382
Cl	2.965167	-0.82752	1.120535
