13

C	-0.638078	0.010593	-1.568235
C	0.061969	0.091612	-0.194478
Br	0.080087	-1.465234	-2.614333
H	1.145648	0.122523	-0.341278
H	-0.440584	0.912996	-2.151762
C	-2.078288	-0.162342	-1.419635
N	-3.23775	-0.281746	-1.271486
N	-0.225885	-1.065619	0.616839
H	0.635471	-1.265976	1.13086
H	-0.976975	-0.880548	1.269023
C	-0.349807	1.376118	0.404753
N	-0.750664	2.379714	0.867417
Cl	2.875616	-0.652491	1.322399
