13

C	-0.718007	-0.058945	-1.470867
C	0.060377	0.076289	-0.148184
Br	-0.577276	1.554798	-2.574871
H	1.125607	0.232318	-0.342957
H	-1.781852	-0.179237	-1.255069
C	-0.258429	-1.202755	-2.247749
N	0.071508	-2.101176	-2.928458
N	-0.084592	-1.175887	0.56737
H	0.837297	-1.364792	0.97984
H	-0.764458	-1.09047	1.312324
C	-0.45579	1.240948	0.588549
N	-0.934275	2.122268	1.200939
Cl	2.947561	-0.721603	1.301664
