13

C	-0.739601	-0.024532	-1.467737
C	0.088606	0.062813	-0.171799
Br	-0.609945	1.614595	-2.534836
H	1.154697	0.204229	-0.402911
H	-1.79688	-0.132253	-1.215882
C	-0.329371	-1.155588	-2.289652
N	-0.04007	-2.041674	-3.004173
N	-0.053608	-1.203683	0.518165
H	-0.705661	-1.124558	1.288316
H	0.878476	-1.417554	0.893737
C	-0.377833	1.217414	0.612329
N	-0.825417	2.082466	1.269617
Cl	3.010625	-0.817966	1.153477
