13

C	-0.716557	-0.093459	-1.469363
C	0.061467	0.074359	-0.150175
Br	-0.581373	1.495065	-2.609666
H	1.126206	0.228975	-0.348702
H	-1.779909	-0.212961	-1.250752
C	-0.253247	-1.253413	-2.219759
N	0.075387	-2.167404	-2.880074
N	-0.080049	-1.161602	0.59381
H	0.842153	-1.338121	1.01109
H	-0.760529	-1.061299	1.336359
C	-0.458366	1.253785	0.560011
N	-0.941415	2.146341	1.152215
Cl	2.950437	-0.681678	1.319474
