13

C	-0.097681	0.203179	-1.435389
C	-0.006645	0.227438	0.111074
Br	-1.849712	-0.437492	-2.03247
H	1.02765	0.557076	0.309185
H	0.65136	-0.52844	-1.766983
C	0.14754	1.508695	-2.024554
N	0.358234	2.575535	-2.471401
N	-0.171825	-1.047811	0.766681
H	0.61853	-1.61979	0.462791
H	-1.031367	-1.482443	0.449804
C	-0.937834	1.222125	0.666725
N	-1.6912	2.005183	1.111701
Cl	2.50089	-1.723908	-0.951911
