13

C	-0.629772	0.083687	-1.588871
C	0.114099	0.059576	-0.236559
Br	0.048618	-1.30935	-2.766364
H	1.196224	0.098045	-0.415356
H	-0.447904	1.027764	-2.108045
C	-2.065418	-0.09692	-1.408386
N	-3.222674	-0.216426	-1.244338
N	-0.153044	-1.154756	0.494573
H	-0.878365	-1.01687	1.186254
H	0.725034	-1.398595	0.958975
C	-0.270567	1.29646	0.470664
N	-0.64564	2.266366	1.018869
Cl	2.975189	-0.81718	1.110497
