16

C	0.0	0.0	0.0
C	-0.695657	0.264209	-1.320253
Br	1.930247	0.0	0.0
H	-1.691728	0.611712	-0.972207
H	-0.328522	-0.947307	0.416498
N	-0.363669	1.030398	1.046269
O	-0.467374	2.198336	0.685597
O	-0.471455	0.627983	2.199636
N	-0.870527	-1.05227	-1.946642
H	-1.77838	-1.369658	-1.590756
H	-0.982582	-0.917199	-2.946268
C	-0.03871	1.261691	-2.248725
H	0.162581	2.198798	-1.72952
H	-0.728517	1.47241	-3.072853
H	0.894833	0.871983	-2.667099
H	-3.1621	0.0	0.0
