16

C	0.0	0.0	0.0
C	-0.612212	0.224709	-1.387308
Br	1.941327	0.0	0.0
H	-1.588105	0.657195	-1.117273
H	-0.351654	-0.917952	0.459773
N	-0.360099	1.089374	0.986878
O	-0.472572	2.232199	0.556461
O	-0.430002	0.75845	2.165992
N	-0.950498	-1.04213	-2.019019
H	-0.205569	-1.72055	-1.89347
H	-1.781577	-1.361666	-1.512606
C	0.160183	1.128543	-2.329273
H	-0.488655	1.33881	-3.181765
H	1.068755	0.650447	-2.707925
H	0.428924	2.068821	-1.845414
H	-2.962208	0.0	0.0
