18
Coordinates from ORCA-job run
  C   -0.77127815796563      0.17996168113067     -0.12581790264363
  C   0.66691497817430     -0.21875976180477      0.25635903330859
  Br  -1.19202910255754      1.95093114679230      0.55304292431881
  H   0.76738544116881     -1.24268282541718     -0.12002401398645
  N   -0.81739509419779      0.19483062013790     -1.65278780236097
  O   -0.99851069864686      1.23618330881844     -2.26651890532610
  O   -0.62164102211471     -0.91051029024670     -2.15617078894345
  C   -1.81299738458603     -0.80218004641416      0.37083764506610
  H   -1.77110741999765     -0.83025346449755      1.45750015050841
  H   -2.81025771625409     -0.50054916842966      0.04553223617242
  H   -1.58833898290463     -1.79367431684483     -0.02546141063030
  N   0.74655339703486     -0.28716716863662      1.70989956200547
  H   0.89657512639719      0.64054249957616      2.09030026483801
  H   1.53686513912745     -0.86129281125102      1.97637025859271
  C   1.73160765332337      0.65008161889290     -0.40861738350558
  H   1.68187393017581      0.61075617908804     -1.49935719827995
  H   1.63663206755077      1.69202446204956     -0.09513111581907
  H   2.71914784627239      0.29075833705652     -0.10895555331504
