18
Coordinates from ORCA-job run
  C   -0.88190575155120      0.06986327523183      0.12962447275911
  C   0.54435973583701     -0.02745367627854      0.70154047860082
  Br  -2.12078325258449      0.68975021203958      1.50060157531475
  H   0.47020295798099     -0.85439816054811      1.41781045550060
  N   -0.95639194298334      1.11540256300470     -0.98041952773192
  O   -1.79354602716587      0.94512416946512     -1.85954020352292
  O   -0.18581980930157      2.07020783807394     -0.91372153078590
  C   -1.39389378355340     -1.24883392112031     -0.41766380817186
  H   -2.43964073131878     -1.16562307970458     -0.70271749966330
  H   -1.29471530323086     -2.01377499651226      0.35420315610611
  H   -0.82402853965260     -1.54654521318529     -1.29916571880140
  N   0.92802038760444      1.14065619664699      1.47426409938436
  H   1.72979547131715      0.91263292913518      2.04789694971392
  H   1.17206964488653      1.90395399321237      0.85808463922903
  C   1.55547815862571     -0.42758390810311     -0.38340533846085
  H   1.65290509508543      0.35833906828485     -1.13507859463624
  H   1.30654475519521     -1.36701799133670     -0.88081305886841
  H   2.53234893480965     -0.55669929830566      0.08849945403411
