18
Coordinates from ORCA-job run
  C   -0.70164326602770      0.21219264998637     -0.10771706524452
  C   0.75355295556451     -0.23968870131684      0.20620644664350
  Br  -1.02884118204760      2.00921302270711      0.54843359193207
  H   0.80257551332414     -1.25878540483698     -0.19434417921996
  N   -0.83407852890707      0.18864979487939     -1.62653304286474
  O   -0.76350280233086     -0.94448381588948     -2.10217963533125
  O   -0.94235488163267      1.22595816113169     -2.26421813669509
  C   -1.75644323979236     -0.71875015321536      0.46195517766567
  H   -1.55777742850958     -1.74066506104458      0.13532581018031
  H   -1.74240819862198     -0.67007648743629      1.55036277135699
  H   -2.75093683109353     -0.42314700882941      0.12322363884798
  N   1.06493244270368     -0.31515819910547      1.61770225150027
  H   0.47436394477563     -0.97858500014692      2.10152249284581
  H   0.96625360763405      0.59226568850487      2.05700685910818
  C   1.79916108372720      0.60952372130696     -0.50116795099936
  H   1.65820547692669      0.62494644367967     -1.58317489352494
  H   1.77874785246146      1.63932756685381     -0.13813750468656
  H   2.78119348184598      0.18826278277147     -0.28426663151434
