18
Coordinates from ORCA-job run
  C   -0.77326840111378      0.15520552364300     -0.14432454838727
  C   0.66681715533622     -0.20144631873399      0.27150476957766
  Br  -1.27873224273542      1.89177353204157      0.56498651173057
  H   0.81478254746700     -1.21170894250436     -0.12554557183339
  N   -0.77476383738936      0.20826248458982     -1.67160073294860
  O   -0.97816749615262      1.25763466414307     -2.26420353473190
  O   -0.52251015402613     -0.87559958464165     -2.19605990430399
  C   -1.79208003005734     -0.87660843393557      0.29579059465491
  H   -1.77674629962104     -0.93468005462030      1.38201962530865
  H   -1.52203944530332     -1.84762412407275     -0.12227757193665
  H   -2.79093797922583     -0.60067421941938     -0.04687872115311
  N   0.70644267356009     -0.30307454626467      1.72470526539090
  H   0.80500445895485      0.62036523729792      2.13149058346691
  H   1.51310188482857     -0.84920558790057      2.00101808801733
  C   1.71785986908936      0.72094199309350     -0.34083844193750
  H   1.70309596018288      0.70414479895323     -1.43319944655225
  H   2.70882565307518      0.39197763033415     -0.01839307344711
  H   1.57431568313070      1.75131594799703     -0.00819389091516
