18
Coordinates from ORCA-job run
  C   -0.70654760041121      0.18542408756995     -0.12472029157029
  C   0.75483099511617     -0.21575666960412      0.22717907731098
  Br  -1.13084919313851      1.94804450940382      0.56944581410535
  H   0.85861715007585     -1.22193363666037     -0.19519959488843
  N   -0.78634045045099      0.20103759324861     -1.64685809996940
  O   -0.65492949920727     -0.91392120303717     -2.15184999536451
  O   -0.91371929079725      1.25194443611218     -2.25855215111761
  C   -1.74036940620192     -0.80358430769093      0.38224167767978
  H   -2.73511437679032     -0.53603390940383      0.02171363304942
  H   -1.49079955706733     -1.80601645737431      0.03123243652383
  H   -1.76172977915004     -0.78889414966529      1.47156560730615
  N   1.02432296120386     -0.31210778805129      1.64583040005193
  H   0.43839143256632     -1.00110850079115      2.09857795998091
  H   0.88581406778775      0.58309725688643      2.09926187205335
  C   1.78703920445815      0.69095791854172     -0.42664237293010
  H   2.77835850008333      0.31291422973231     -0.17502185124565
  H   1.68957859273759      0.71283920145870     -1.51330265388503
  H   1.70344624918582      1.71409738932470     -0.05390146709064
