18
Coordinates from ORCA-job run
  C   -0.81164814988468     -0.14970931947297      0.13031637008847
  C   0.61585814410752      0.05778139826913      0.69695862559866
  Br  -1.76550971490933     -1.49386330746558      1.17790958883548
  H   0.49725194463805      0.16831953523729      1.77746060291885
  N   -1.55043302117640      1.16228801889707      0.37727061248046
  O   -2.05611246279185      1.72328734014783     -0.59088679589634
  O   -1.53404681355661      1.59545551974882      1.52421691805585
  C   -0.88162515277022     -0.51912799144927     -1.33191557327256
  H   -0.34531549568958      0.21558503072711     -1.93580368287192
  H   -1.91437841211962     -0.54646890706302     -1.67469554490018
  H   -0.43665572892928     -1.50302260065661     -1.47680957277440
  N   1.25153628962053      1.27074912802605      0.21713559728400
  H   0.77426267708002      2.10691608887787      0.52647935622134
  H   1.35052532602435      1.28579424264504     -0.78954693856739
  C   1.52027760521185     -1.12861366881341      0.39810420692144
  H   2.45590636995701     -0.99161844496149      0.94100024830310
  H   1.76039249182864     -1.17733437583669     -0.66741654882324
  H   1.07071410335959     -2.07541768685718      0.69922253039837
