18
Coordinates from ORCA-job run
  C   -0.82422483708064      0.05380585268234      0.18180832096701
  C   0.66072865639503     -0.10033605967971      0.63897316822376
  Br  -1.91942672121980      0.76765501948387      1.62914514350411
  H   0.64560366165168     -0.98208082752896      1.29071671645383
  N   -0.84040283288272      1.07738182153385     -0.93905959747107
  O   -0.50619546055791      2.22504366575796     -0.65880096066633
  O   -1.09038584582165      0.66512961789981     -2.06918808671213
  C   -1.45357851209201     -1.24360264715900     -0.28044974218969
  H   -2.47727747280125     -1.07896295215236     -0.61538456840732
  H   -1.46708509852490     -1.94083923001011      0.55875974635118
  H   -0.89101733140003     -1.67949975616559     -1.10424181862254
  N   1.25081508431247      0.98099715649919      1.39417276161405
  H   1.21184506685898      1.84042489791465      0.85875051028664
  H   0.74138610042924      1.13548374799120      2.25482139843704
  C   1.55726733149847     -0.38550266158466     -0.56579793844175
  H   2.55138045830854     -0.63084482504700     -0.19237033981556
  H   1.20127270056241     -1.20883650132481     -1.18490154518233
  H   1.65029505236412      0.50358368088929     -1.19595316832887
