16

C	0.0	0.0	0.0
C	-0.374646	-0.371739	-1.546484
Br	1.966716	0.0	0.0
H	0.57714	-0.678328	-1.987358
C	-0.436881	1.310368	0.462344
N	-0.629378	2.422205	0.793902
C	-0.416796	-1.063456	0.905955
N	-0.559693	-1.991627	1.613672
C	-0.882718	0.876452	-2.246049
H	-0.172316	1.705074	-2.175547
H	-1.047894	0.635047	-3.298461
H	-1.824385	1.151177	-1.771368
N	-1.304853	-1.453475	-1.708739
H	-2.096588	-1.163011	-1.108765
H	-0.903617	-2.303751	-1.32901
F	-2.463464	0.0	0.0
