16

C	0.0	0.0	0.0
C	-0.393663	-0.127651	-1.53779
Br	1.952012	0.0	0.0
H	0.545687	-0.290242	-2.07269
C	-0.433911	1.244233	0.633702
N	-0.591844	2.292515	1.142354
C	-0.415506	-1.146995	0.809809
N	-0.561537	-2.064522	1.529965
C	-1.020829	1.167041	-2.053209
H	-0.364388	2.033414	-1.915982
H	-1.957912	1.303941	-1.514627
H	-1.208671	1.053695	-3.126973
N	-1.197223	-1.326116	-1.71189
H	-1.420677	-1.408036	-2.69872
H	-2.048906	-1.097503	-1.171954
F	-2.503959	0.0	0.0
