16

C	0.0	0.0	0.0
C	-0.366534	-0.314058	-1.561071
Br	1.968044	0.0	0.0
H	0.582745	-0.626302	-2.0029
C	-0.452375	1.284757	0.518045
N	-0.598848	2.375918	0.933464
C	-0.415124	-1.104704	0.857429
N	-0.57641	-2.057518	1.527158
C	-0.831941	0.97328	-2.216758
H	-1.77305	1.254927	-1.747407
H	-0.098428	1.777653	-2.100566
H	-0.982177	0.785548	-3.282702
N	-1.319522	-1.366302	-1.780914
H	-2.107341	-1.090775	-1.168028
H	-0.935492	-2.240696	-1.439256
F	-2.455055	0.0	0.0
