16

C	0.0	0.0	0.0
C	-0.401876	0.14006	-1.53513
Br	1.962051	0.0	0.0
H	-1.490878	0.12529	-1.430695
C	-0.449627	1.166875	0.751175
N	-0.581384	2.185871	1.325261
C	-0.454631	-1.254511	0.587492
N	-0.586419	-2.332325	1.041825
C	0.079768	-1.035596	-2.365019
H	-0.393014	-0.959033	-3.346781
H	1.16385	-1.033765	-2.510389
H	-0.212251	-1.985742	-1.911643
N	0.012121	1.392933	-2.128748
H	-0.462984	2.158381	-1.66375
H	1.011827	1.531453	-2.022908
F	-2.427977	0.0	0.0
