16

C	0.0	0.0	0.0
C	-0.385134	-0.239941	-1.525384
Br	1.967835	0.0	0.0
H	0.555557	-0.447855	-2.041474
C	-0.426854	1.288285	0.542068
N	-0.584153	2.3692	0.977278
C	-0.40911	-1.086483	0.890909
N	-0.550092	-1.966926	1.656939
C	-1.000703	1.018263	-2.137036
H	-1.941613	1.197409	-1.616893
H	-0.34155	1.890177	-2.057161
H	-1.181155	0.828207	-3.201438
N	-1.197551	-1.441053	-1.6181
H	-1.407184	-1.595353	-2.599266
H	-2.05082	-1.169294	-1.102179
F	-2.493586	0.0	0.0
