16

C	0.0	0.0	0.0
C	-0.387901	-0.057518	-1.543247
Br	1.962763	0.0	0.0
H	0.553234	-0.198296	-2.080861
C	-0.43215	1.212651	0.692339
N	-0.589373	2.235089	1.251319
C	-0.4067	-1.185343	0.756119
N	-0.546853	-2.134131	1.43522
C	-1.006044	1.262051	-1.999575
H	-0.343605	2.114083	-1.813646
H	-1.946979	1.380185	-1.462503
H	-1.184079	1.205749	-3.080265
N	-1.196659	-1.243284	-1.774897
H	-1.432726	-1.26266	-2.762183
H	-2.041929	-1.038139	-1.214928
F	-2.500066	0.0	0.0
