14

C	-0.367312	-0.002992	-1.484628
C	0.0	0.0	0.0
Cl	0.329961	1.417961	-2.328984
H	1.095726	0.0	0.0
H	0.094133	-0.877218	-1.948302
C	-1.810332	-0.014451	-1.734915
N	-2.974269	-0.024347	-1.897705
C	-0.483848	-1.24359	0.571572
N	-0.870855	-2.252007	1.039419
C	-0.514501	1.210927	0.766898
H	-1.604915	1.316132	0.730889
H	-0.204259	1.122644	1.809984
H	-0.049266	2.110878	0.363256
F	2.533255	0.0	0.0
