14

C	-0.476776	0.044643	-1.448522
C	0.0	0.0	0.0
Cl	0.075784	-1.393334	-2.369697
H	1.095488	0.0	0.0
H	-1.570482	0.032463	-1.52113
C	-0.003387	1.250679	-2.130675
N	0.309024	2.237566	-2.685977
C	-0.563272	-1.163313	0.655721
N	-1.027574	-2.081816	1.226479
C	-0.387122	1.281501	0.741703
H	-1.459801	1.509648	0.704727
H	0.180152	2.113614	0.321529
H	-0.087525	1.181089	1.786666
F	2.525021	0.0	0.0
