14

C	-0.366793	-0.002522	-1.484726
C	0.0	0.0	0.0
Cl	0.329446	1.419645	-2.327972
H	1.095736	0.0	0.0
H	0.095743	-0.876032	-1.948744
C	-1.809695	-0.015621	-1.735812
N	-2.973463	-0.029584	-1.899715
C	-0.483698	-1.243915	0.570993
N	-0.870602	-2.2524	1.038791
C	-0.515098	1.210474	0.767189
H	-0.049044	2.110683	0.364799
H	-0.206371	1.121246	1.810657
H	-1.605488	1.316051	0.729714
F	2.533241	0.0	0.0
