14

C	-0.227888	0.068611	-1.490783
C	0.0	0.0	0.0
Cl	-1.939248	0.448736	-1.997633
H	1.097459	0.0	0.0
H	0.379583	0.892825	-1.869958
C	0.173444	-1.157823	-2.177226
N	0.458272	-2.148971	-2.739135
C	-0.591754	-1.172443	0.603687
N	-1.075489	-2.106867	1.13013
C	-0.389561	1.286858	0.717415
H	0.151892	2.11832	0.255973
H	-0.058345	1.221902	1.756055
H	-1.464245	1.493617	0.693113
F	2.512784	0.0	0.0
