14

C	-0.374449	0.004534	-1.482539
C	0.0	0.0	0.0
Cl	0.328124	1.422842	-2.326658
H	1.09583	0.0	0.0
H	0.077683	-0.871264	-1.952127
C	-1.818813	0.003795	-1.724945
N	-2.98351	-0.000147	-1.881962
C	-0.483746	-1.245112	0.568353
N	-0.871338	-2.254591	1.033421
C	-0.508816	1.207995	0.775459
H	-0.048476	2.109915	0.369815
H	-0.187452	1.116799	1.815077
H	-1.599727	1.312065	0.750477
F	2.533046	0.0	0.0
