18

C	-0.273961	0.051179	-1.506146
C	0.0	0.0	0.0
Br	-0.198657	-1.809127	-2.360654
H	1.104831	0.0	0.0
N	-1.709151	0.466738	-1.827562
O	-1.864676	1.338842	-2.677759
O	-2.604749	-0.1097	-1.228472
N	0.614134	0.948089	-2.077625
H	1.574609	0.746594	-1.794092
H	0.508389	1.064694	-3.074562
C	-0.554298	-1.150006	0.807588
H	-0.188995	-1.047301	1.834272
H	-0.198041	-2.106141	0.428683
H	-1.644505	-1.137465	0.810419
N	-0.519081	1.28083	0.514869
H	0.093726	2.01217	0.169318
H	-0.409754	1.26603	1.523338
Br	3.562224	0.0	0.0
