18

C	-0.323392	-0.084575	-1.502019
C	0.0	0.0	0.0
Br	-2.075774	-0.870617	-1.87325
H	1.09996	0.0	0.0
N	-0.328624	1.360162	-2.04033
O	-1.288532	1.820776	-2.638567
O	0.727498	1.94251	-1.821576
N	0.667159	-0.767849	-2.287857
H	0.523898	-1.766963	-2.227727
H	1.588683	-0.549084	-1.895206
C	-0.404393	-1.25205	0.759391
H	-1.484086	-1.28566	0.924661
H	-0.101768	-2.155612	0.227359
H	0.113694	-1.250071	1.722482
N	-0.596734	1.188961	0.597349
H	0.091749	1.932634	0.576264
H	-0.809249	1.00351	1.569474
Br	3.568942	0.0	0.0
