18

C	-0.323049	0.003168	-1.485049
C	0.0	0.0	0.0
Br	-0.044165	-1.736672	-2.338603
H	1.094942	0.0	0.0
N	-1.850192	0.248621	-1.75859
O	-2.138045	0.788124	-2.825005
O	-2.652875	-0.015162	-0.867682
N	0.453034	0.963668	-2.16064
H	0.155499	1.082884	-3.119616
H	0.369279	1.831337	-1.638866
C	-0.471177	-1.17372	0.842126
H	-1.557184	-1.282622	0.845159
H	-0.021371	-2.112133	0.510825
H	-0.135736	-0.998348	1.870407
N	-0.434506	1.314363	0.473549
H	-1.386732	1.263101	0.822328
H	0.167226	1.613645	1.234905
Br	2.758333	0.0	0.0
