14

C	0.0	0.0	0.0
C	-0.461246	0.103585	-1.455934
Cl	1.830813	0.0	0.0
H	-1.562007	0.09826	-1.360998
H	-0.120746	-0.780662	-1.997309
N	-0.46209	1.178206	0.69021
H	-1.489007	1.045154	0.617281
H	-0.201732	1.096848	1.669104
N	-0.466762	-1.279594	0.482701
H	-1.493295	-1.129608	0.431024
H	-0.215202	-1.346576	1.465092
C	0.000191	1.304362	-2.137457
N	0.360991	2.238817	-2.750382
F	-2.816408	0.0	0.0
