14

C	0.0	0.0	0.0
C	-0.457782	-0.213892	-1.444622
Cl	1.830807	0.0	0.0
H	-1.558129	-0.202572	-1.351819
H	-0.117198	0.627209	-2.051269
N	-0.46854	1.313916	0.384807
H	-1.496296	1.154822	0.349814
H	-0.213854	1.456018	1.360263
N	-0.465894	-1.120322	0.774284
H	-0.193121	-0.979415	1.744358
H	-1.491917	-0.991259	0.694956
C	0.013951	-1.461995	-2.034459
N	0.408285	-2.415077	-2.59516
F	-2.816404	0.0	0.0
