14

C	0.0	0.0	0.0
C	-0.477248	-0.225616	-1.439729
Cl	1.790564	0.0	0.0
H	-0.140553	0.611418	-2.054156
H	-1.577088	-0.210816	-1.338195
N	-0.477354	1.318229	0.369702
H	-0.218106	1.477234	1.339611
H	-1.502978	1.159599	0.338634
N	-0.475333	-1.112594	0.788709
H	-1.500997	-0.980606	0.704994
H	-0.212981	-0.950198	1.756903
C	-0.022394	-1.479738	-2.023409
N	0.313132	-2.473671	-2.550675
F	-2.831222	0.0	0.0
