14

C	0.0	0.0	0.0
C	-0.559442	0.106257	-1.412338
Cl	1.837986	0.0	0.0
H	-1.666148	0.117656	-1.168663
H	-0.276637	-0.782683	-1.980362
N	-0.356866	1.206044	0.717638
H	-0.067001	1.108606	1.683852
H	0.127682	2.006821	0.323831
N	-0.550919	-1.178687	0.568878
H	-0.27844	-1.229366	1.544909
H	-1.580102	-0.92778	0.508858
C	-0.156373	1.312778	-2.110446
N	0.169294	2.297196	-2.66396
F	-2.869353	0.0	0.0
