14

C	0.0	0.0	0.0
C	-0.415157	-0.188904	-1.466984
Cl	1.848351	0.0	0.0
H	-1.524534	-0.12566	-1.361539
H	-0.117817	-1.17661	-1.833136
N	-0.368828	1.345256	0.388221
H	0.426393	1.866066	0.785442
H	-1.16429	1.294016	1.039852
N	-0.533936	-0.960073	0.871996
H	-1.573116	-0.774459	0.72736
H	-0.335447	-1.87866	0.522856
C	0.079788	0.83386	-2.370967
N	0.478601	1.636648	-3.129246
F	-2.785403	0.0	0.0
