14

C	0.0	0.0	0.0
C	-0.442197	0.236382	-1.453657
Cl	1.848352	0.0	0.0
H	-1.54286	0.232262	-1.359142
H	-0.094512	1.217705	-1.7883
N	-0.464383	1.035176	0.885751
H	-0.201844	1.945544	0.519464
H	-1.491236	0.917927	0.788594
N	-0.479574	-1.286032	0.396271
H	-0.271603	-1.382282	1.385993
H	-1.506045	-1.146483	0.311081
C	0.011391	-0.775866	-2.399056
N	0.374504	-1.544982	-3.208936
F	-2.816894	0.0	0.0
