14
Coordinates from ORCA-job run
  C   -0.17423976207991     -0.45904174572529     -0.37032314085051
  C   0.70716173351803      0.50965180136716      0.47105252517159
  Br  -0.11801495587597     -2.23632764631848      0.44143988534706
  H   0.67763618743657      1.48394211517042     -0.03739001697729
  C   0.40349420705206     -0.54835187991090     -1.70830546205633
  N   0.84784656586226     -0.57246272062568     -2.79682717695698
  C   -1.61827502409455      0.02884975393658     -0.43336600869296
  H   -2.20943875789150     -0.64528731886411     -1.05330652982377
  H   -2.04980963891346      0.05669017911636      0.56816568804973
  H   -1.64963020165835      1.03008579786735     -0.87333821529624
  C   2.10496908077496      0.07428457597229      0.52991356786823
  N   3.23148028047724     -0.25596512545040      0.56131272227142
  C   0.15607485703547      0.68464237103945      1.81778843984880
  N   -0.31025457164285      0.84728984242524      2.88318372209725
