14
Coordinates from ORCA-job run
  C   -0.07473822086456     -0.47161999018629     -0.55939303960573
  C   1.01073584987796      0.06947205460318      0.42030521146756
  Br  0.18458020441318     -2.40828983688607     -0.69774773589606
  H   1.99585159800885     -0.22095672689667      0.03619298502954
  C   0.17326417683686      0.10565460442683     -1.87730155485490
  N   0.36320472445551      0.59705046873706     -2.92868636763464
  C   -1.48951119145038     -0.17252955516581     -0.08003192804362
  H   -1.63022826239490      0.90890645047244     -0.00171967037257
  H   -1.65948625687957     -0.63474061470519      0.89378051207678
  H   -2.21301681590017     -0.57094451367074     -0.79154545891801
  C   0.84092575284442     -0.49918147307344      1.76073696171048
  N   0.69507494632750     -0.94636757331669      2.83676553388911
  C   0.93945803538399      1.53431345062058      0.48017667652111
  N   0.86388545934132      2.70623325504082      0.50846787463095
