14
Coordinates from ORCA-job run
  C   -0.04798156389311     -0.47602551964262     -0.55918242691241
  C   0.99645098130576      0.09043598920150      0.45029365621371
  Br  0.24735229934770     -2.40907032937625     -0.67399562591254
  H   1.99837190507913     -0.18261348021740      0.09853409827849
  C   0.23229353038506      0.09528707790787     -1.87327527103243
  N   0.45056341922326      0.58000833408235     -2.92224796758877
  C   -1.48214304201378     -0.19689296142014     -0.12748769771196
  H   -1.67565730859661     -0.65364362764982      0.84469134354646
  H   -1.64324519976111      0.88274252484738     -0.06339058073859
  H   -2.17583213675786     -0.61343347224260     -0.85818890453255
  C   0.79538710327561     -0.47506961060730      1.78789823045929
  N   0.62563714689769     -0.91761183312524      2.86229632925135
  C   0.89295727643502      1.55370381108852      0.50254549742532
  N   0.78684558907326      2.72318309715374      0.53050931925463
