14
Coordinates from ORCA-job run
  C   -0.18963393462019     -0.44667408963909     -0.37904390087818
  C   0.72359206304809      0.47943165261724      0.47614958507511
  Br  -0.17703542744553     -2.24169695709441      0.39483988373748
  H   0.71740155502059      1.46474154295402     -0.01145839304025
  C   0.37763028682895     -0.52316144149129     -1.72227975126601
  N   0.81826332058199     -0.53420044093681     -2.81239818933382
  C   -1.61997755453784      0.08197871089561     -0.42145409607304
  H   -2.04368555622008      0.10083527132389      0.58362014626607
  H   -2.23392494697329     -0.56243971636770     -1.05077644157859
  H   -1.62654701648267      1.09269527555337     -0.84031158516257
  C   2.10961098637545      0.00585095722466      0.51614169019900
  N   3.22841486347500     -0.35064058566944      0.53484187752453
  C   0.18641655611242      0.64076079632531      1.83019591945257
  N   -0.26852519516290      0.79351902430466      2.90193325507770
