14
Coordinates from ORCA-job run
  C   -0.16708055838717     -0.44699048573323     -0.38716264937103
  C   0.69102578049524      0.46423014085883      0.53806208930024
  Br  -0.30220555784346     -2.22292120756439      0.41875800154360
  H   0.77306796983631      1.43736750434912      0.03310758196802
  C   0.52757198463726     -0.57714598018378     -1.66488225797485
  N   1.07001129258516     -0.63928454787206     -2.70637649650021
  C   -1.56452302701667      0.13233272853132     -0.58407482666199
  H   -2.13559847311556     -0.50206750080421     -1.26210363847163
  H   -2.08679266227164      0.18685702299381      0.37210861676461
  H   -1.49015447986891      1.13396659140018     -1.01797861253250
  C   2.04599313240751     -0.06011264018483      0.72767999304425
  N   3.14152628038827     -0.46053566601954      0.86437840519442
  C   0.02600787286147      0.67818871024706      1.82645785154791
  N   -0.53084955470782      0.87711532998173      2.84102594214916
