14
Coordinates from ORCA-job run
  C   -0.20188834170575     -0.51652319965801     -0.36757374487987
  C   0.53674050531238      0.03431680472476      0.88631286231651
  Br  -0.19458409887257     -2.47016159890854     -0.22257186719000
  H   -0.00023166930886     -0.34124475469044      1.76651611605587
  C   0.52851140010394     -0.14370513855238     -1.57441036968206
  N   1.09753166356090      0.19326690481246     -2.54688762804632
  C   -1.64343826133560     -0.02048979026088     -0.41921129217351
  H   -1.65995707305260      1.06662856061630     -0.52740414212316
  H   -2.16671498901443     -0.30498474301735      0.49623989735914
  H   -2.15751951144004     -0.46700750337267     -1.27047895162302
  C   0.48370632302664      1.50104649127821      0.89565863362063
  N   0.40684737453889      2.67320857427560      0.89466553509747
  C   1.92691556675480     -0.42352816158259      0.95929223083810
  N   3.04308111143228     -0.78182244566445      1.03085272043022
