16

C	-0.103338	0.039285	0.010704
C	-0.594094	0.15581	-1.442554
Cl	1.705693	0.293084	0.068888
H	-1.679167	0.234379	-1.258798
N	-0.660123	1.144667	0.904439
O	-0.572333	0.951512	2.105581
O	-1.014751	2.18232	0.363658
C	-0.378229	-1.251731	0.627167
N	-0.304046	-2.333012	1.086726
C	-0.337352	-1.104847	-2.135021
N	-0.121953	-2.06693	-2.774659
C	-0.013329	1.299919	-2.277632
H	1.037721	1.131431	-2.515975
H	-0.120726	2.243754	-1.749903
H	-0.573188	1.355647	-3.214612
F	-2.405977	-0.25292	0.307567
