15

C	-0.446126	0.0067	-1.46573
C	0.0	0.0	0.0
Cl	-0.211836	-1.7217	-2.09258
H	1.087095	0.0	0.0
H	-0.374457	0.921098	0.454805
N	-1.779564	0.46578	-1.622088
H	-2.050039	0.375643	-2.593466
H	-2.398175	-0.074641	-1.030124
N	0.41834	0.824206	-2.271045
H	0.293552	1.785023	-1.969655
H	1.387874	0.563861	-2.09552
N	-0.589953	-1.107063	0.791284
O	-1.827998	-1.162987	0.812493
O	0.151487	-1.885269	1.379531
Cl	3.396993	0.0	0.0
