15

C	-0.425207	0.070754	-1.459997
C	0.0	0.0	0.0
Cl	-0.210893	-1.752842	-2.149056
H	1.086572	0.0	0.0
H	-0.380415	0.897814	0.49159
N	-1.773829	0.449671	-1.657229
H	-2.024577	0.368827	-2.635203
H	-2.366153	-0.164344	-1.111691
N	0.484421	0.919273	-2.103381
H	0.3456	0.953229	-3.103844
H	1.44747	0.670408	-1.882336
N	-0.586224	-1.148643	0.726656
O	0.15571	-1.922784	1.314904
O	-1.821037	-1.228253	0.717148
Cl	3.375349	0.0	0.0
