15

C	-0.420035	-0.076415	-1.46149
C	0.0	0.0	0.0
Cl	-0.204322	1.749583	-2.152926
H	1.086576	0.0	0.0
H	-0.380552	-0.89694	0.493059
N	0.493571	-0.923694	-2.100022
H	1.455545	-0.671557	-1.877261
H	0.356435	-0.9627	-3.100985
N	-1.766417	-0.456382	-1.664029
H	-2.012837	-0.38066	-2.643255
H	-2.362007	0.158825	-1.123797
N	-0.588085	1.149573	0.722306
O	-1.822484	1.233481	0.703256
O	0.151822	1.919727	1.31818
Cl	3.376341	0.0	0.0
