15

C	-0.421968	0.093343	-1.459762
C	0.0	0.0	0.0
Cl	-0.206745	-1.723365	-2.172822
H	1.086578	0.0	0.0
H	-0.38023	0.891138	0.503741
N	-1.768864	0.475746	-1.655082
H	-2.363151	-0.143932	-1.118199
H	-2.018718	0.40853	-2.63423
N	0.490628	0.948682	-2.088973
H	0.352212	0.999259	-3.089105
H	1.453032	0.693544	-1.870581
N	-0.587634	-1.158027	0.708862
O	0.153008	-1.938491	1.290362
O	-1.822429	-1.238928	0.693937
Cl	3.376192	0.0	0.0
