15

C	-0.36881	-0.06645	-1.482302
C	0.0	0.0	0.0
Cl	-2.162099	-0.634977	-1.605869
H	1.0913	0.0	0.0
H	-0.415771	0.870443	0.5025
N	-0.201122	1.222968	-2.025631
H	-0.816104	1.905048	-1.605297
H	-0.330977	1.184588	-3.027962
N	0.399268	-0.981399	-2.275793
H	1.375404	-0.719079	-2.125268
H	0.28788	-1.90859	-1.882586
N	-0.44442	-1.181058	0.768739
O	-0.180567	-2.294131	0.316012
O	-1.033681	-0.981458	1.830951
Cl	3.318101	0.0	0.0
