17
Coordinates from ORCA-job run
  C   -0.64738899950148      0.19920615765026      0.39739900869328
  C   0.80490559399363     -0.29317426112064      0.40320793146960
  H   -0.72703652420220      1.02566898336841      1.11355005575855
  H   1.03290848437045     -0.64133781805622      1.41324741568397
  N   -1.54093709666423     -0.87684144751838      0.99538232092492
  O   -1.03860664091656     -1.62963450525861      1.82546627404603
  O   -2.71752861000811     -0.88680421878273      0.64958212862356
  C   -1.17224622266751      0.61509686581935     -0.96138610702177
  H   -2.20233294362301      0.95639495307610     -0.88480070242508
  H   -0.56735303386673      1.43204802864052     -1.35751208607409
  H   -1.13696921738677     -0.22207202389945     -1.66127364673338
  C   1.78726193035392      0.81888314181839      0.01875011211616
  H   1.66918975032423      1.11940068229402     -1.02244081065700
  H   2.81257244940210      0.47147436282414      0.15427601809879
  H   1.63472394481299      1.69183092411133      0.65818231660851
  C   0.94664432368203     -1.44172144282555     -0.49569450217449
  N   1.06319281189725     -2.33841838214094     -1.24493572693758
