17
Coordinates from ORCA-job run
  C   -0.68907669234371      0.07292685160931      0.51896026209300
  C   0.85079740347627      0.06237361429488      0.42228065185606
  H   -0.99205350347964     -0.13562930874483      1.54902546601443
  H   1.17224748503326      1.05327726355440      0.76669400780387
  N   -1.21016692739120     -1.10130074881803     -0.27027078241539
  O   -1.88139703726753     -0.88023143150119     -1.27491218556845
  O   -0.86647451950176     -2.21048107065012      0.12999328335864
  C   -1.29590820650076      1.37447847525518      0.03492015882281
  H   -2.38279099951812      1.31054719589821      0.00761699614628
  H   -1.01164351965213      2.17258331360245      0.72461315880856
  H   -0.94986394959754      1.63390184264657     -0.96576709749846
  C   1.36868522989845     -0.15143125483727     -1.00519797337523
  H   0.93603097045363      0.58013602901830     -1.68978217707983
  H   2.45379787730146     -0.04077070595227     -1.02511236590419
  H   1.12384375463925     -1.15406911331678     -1.35795457009608
  C   1.45083694235440     -0.90865047554068      1.34191718247807
  N   1.92313569209566     -1.67766047651815      2.09297598455591
