13
Coordinates from ORCA-job run
  C   -0.63010561166329     -0.25679558556366      0.32683721702570
  C   0.72353429745530     -0.31413961301303     -0.39046161706949
  F   -0.51812057673645     -0.97456936928789      1.49567808129942
  H   0.63003811021602      0.05462582288332     -1.40971113964190
  H   1.07249229642307     -1.34953686880173     -0.37977127529326
  N   -1.69492865004206     -0.82867468643803     -0.43637003743438
  H   -2.08115286832410     -0.18895832401400     -1.11609380040821
  H   -1.41929660581130     -1.69711637964017     -0.87708412980212
  C   -0.97754715881988      1.14161030486928      0.65278607938143
  N   -1.24194238963916      2.26557839168544      0.86310813349164
  N   1.78132366311100      0.51410269227404      0.26513945601950
  O   1.91955171851403      0.38566563508200      1.47683640962440
  O   2.43615377531683      1.24820797996445     -0.47089337719273
