13
Coordinates from ORCA-job run
  C   -0.59777750416127      0.24771961848437      0.21318073547647
  C   0.68992302372129      0.27978719002692     -0.61111040564699
  F   -0.24760588641644      0.73233291457175      1.48927382555139
  H   0.53981284883210     -0.22284677810997     -1.56680198094689
  H   1.02766316062586      1.30381958613039     -0.74927039956899
  N   -1.20653816174674     -1.01837859799359      0.23680010176754
  H   -0.55907852306397     -1.72946688577438      0.55099383402300
  H   -2.05134391554918     -1.01667112103556      0.79283105825257
  C   -1.53760087475561      1.23411506838505     -0.35827936279367
  N   -2.26882695788237      2.02291359122093     -0.82796098331279
  N   1.79296480204788     -0.42955031293909      0.10498096652854
  O   2.83956477530259      0.18556567743200      0.26798621786199
  O   1.57784321304587     -1.58833995039882      0.45737639280783
