13
Coordinates from ORCA-job run
  C   -0.63732712166793      0.17600688708284      0.24721886564253
  C   0.76352488788698      0.51564493704090     -0.27079237506883
  F   -0.55555464798325      0.33060922060589      1.65068567179388
  H   0.79408238653371      0.45209712125354     -1.35763962085391
  H   1.06301645009384      1.49597049794264      0.09084103435896
  N   -1.08294578634362     -1.07340646670625     -0.14125246790842
  H   -0.42301842966606     -1.79723616281625     -0.35905140448521
  H   -2.06358403909300     -1.26091637573616     -0.22411544999367
  C   -1.56686014063036      1.22720501908562     -0.21770594195357
  N   -2.29301588190124      2.05820766462484     -0.61806969258051
  N   1.75395557244613     -0.46070727518262      0.26922546137394
  O   2.53656338938080     -0.06206055808432      1.12319087904456
  O   1.70916336094399     -1.60241450911066     -0.19253495936975
