13
Coordinates from ORCA-job run
  C   -0.54907738577096     -0.22793421333763      0.18117665581869
  C   0.69900505548235      0.12283901233357     -0.61943037521782
  F   -0.15251528497528     -1.16058772715104      1.15173811423199
  H   0.52296895538356      1.00562835403615     -1.23362324863378
  H   0.99373949617066     -0.72700271572739     -1.23350404855134
  N   -1.52132947505436     -0.73641340017699     -0.71019967091450
  H   -1.20411656346349     -1.59320430478236     -1.14652992175266
  H   -2.40958097219091     -0.89125040367777     -0.25124505797184
  C   -1.12496432386515      0.92284175477676      0.90192610408876
  N   -1.65745120485150      1.80982290065503      1.45579362528260
  N   1.85027653463105      0.41494243893995      0.28147408059899
  O   1.68542723136160      1.30899700565035      1.10540862858405
  O   2.86961793714243     -0.24867870153863      0.11901511443684
