15

C	-0.437629	-0.120543	-1.443406
C	0.0	0.0	0.0
F	-1.665762	-0.74303	-1.605359
H	1.098546	0.0	0.0
H	0.301867	-0.666384	-2.031075
N	-0.564172	1.237368	-2.073401
O	-1.686415	1.700519	-2.239197
O	0.493655	1.785762	-2.357471
N	-0.345872	-1.227994	0.72599
H	0.506251	-1.769178	0.810304
H	-1.049801	-1.778082	0.251672
N	-0.524615	1.211554	0.611975
H	0.207014	1.562499	1.217536
H	-1.313306	0.964238	1.196484
F	2.636231	0.0	0.0
