15

C	-0.533531	0.011833	-1.404885
C	0.0	0.0	0.0
F	-1.889489	0.294089	-1.46043
H	1.099106	0.0	0.0
H	-0.353477	-0.927912	-1.918993
N	0.122878	1.072746	-2.251578
O	-0.183832	2.240663	-2.028368
O	0.913793	0.697004	-3.110823
N	-0.458954	-1.269025	0.603601
H	-0.948531	-1.010066	1.451161
H	0.389918	-1.743133	0.897541
N	-0.443025	1.158118	0.772364
H	0.355075	1.771658	0.861685
H	-1.174946	1.665489	0.296748
F	2.636441	0.0	0.0
