15

C	-0.607902	0.006349	-1.368511
C	0.0	0.0	0.0
F	-0.167675	1.044712	-2.155342
H	1.096998	0.0	0.0
H	-1.702203	0.045162	-1.332971
N	-0.314967	-1.248258	-2.163112
O	-1.017469	-1.406479	-3.164834
O	0.587943	-1.99337	-1.807866
N	-0.579837	-1.17994	0.670532
H	0.190975	-1.823551	0.814362
H	-0.870747	-0.851202	1.582278
N	-0.386022	1.228913	0.700894
H	0.444879	1.804199	0.732922
H	-1.104035	1.747824	0.209732
F	2.648594	0.0	0.0
