15

C	-0.485041	0.023122	-1.422969
C	0.0	0.0	0.0
F	-0.00119	-1.035469	-2.141855
H	1.100641	0.0	0.0
H	-0.230759	0.961571	-1.910219
N	-1.997133	-0.087598	-1.487683
O	-2.626544	0.959236	-1.359644
O	-2.494166	-1.203351	-1.604666
N	-0.526807	-1.19637	0.686075
H	-0.547805	-1.96742	0.027315
H	0.191358	-1.445557	1.361131
N	-0.413152	1.22705	0.662101
H	0.338687	1.485107	1.288326
H	-1.245662	1.043968	1.206826
F	2.646065	0.0	0.0
