14

C	0.0	0.0	0.0
C	-0.49907	-0.136493	-1.438285
Br	2.026303	0.0	0.0
H	-0.147546	-1.071816	-1.881613
H	-1.596961	-0.153044	-1.313608
N	-0.467698	1.203273	0.545497
H	-0.449087	1.239325	1.552797
H	-0.045418	2.020303	0.131943
N	-0.457305	-1.107915	0.737407
H	-0.25062	-1.039938	1.723671
H	-0.108575	-1.979109	0.366955
C	-0.085379	0.983027	-2.272674
N	0.262543	1.897401	-2.921036
Cl	-3.86102	0.0	0.0
