14

C	0.0	0.0	0.0
C	-0.213544	-0.000976	-1.543642
Br	1.964331	0.0	0.0
H	0.313194	0.879898	-1.916555
H	0.312242	-0.882948	-1.915317
N	-0.456812	1.244353	0.558477
H	-1.478313	1.213379	0.451667
H	-0.263261	1.247169	1.55533
N	-0.456855	-1.243603	0.5601
H	-0.263457	-1.245042	1.556987
H	-1.478346	-1.212788	0.453126
C	-1.515204	-0.000555	-2.224498
N	-2.302595	-0.000158	-3.097737
Cl	-3.48966	0.0	0.0
