14

C	0.0	0.0	0.0
C	-0.441726	0.160284	-1.462196
Br	2.038749	0.0	0.0
H	-0.074878	-0.68127	-2.054621
H	-1.542355	0.133863	-1.406721
N	-0.459138	1.08063	0.754978
H	-0.16293	1.984441	0.419324
H	-0.282627	0.955234	1.740341
N	-0.459571	-1.19738	0.623406
H	-1.484591	-1.113851	0.632608
H	-0.187603	-2.006733	0.07869
C	-0.007757	1.411634	-2.070762
N	0.330927	2.431992	-2.543611
Cl	-3.625655	0.0	0.0
