14

C	0.0	0.0	0.0
C	-0.545055	-0.08321	-1.403471
Cl	1.767405	0.0	0.0
H	-1.592933	-0.374398	-1.306462
H	-0.355687	0.86157	0.559464
H	0.002828	-0.85709	-1.944984
N	-0.378495	-1.202997	0.834519
O	-0.524594	-2.269467	0.251937
O	-0.433777	-1.024706	2.045488
C	-0.465536	1.269324	-2.100205
H	0.546099	1.684514	-2.096878
H	-0.787461	1.1737	-3.139433
H	-1.144779	1.968851	-1.609645
Cl	-3.57341	0.0	0.0
