11
Coordinates from ORCA-job run
  C   -0.36837313111257      0.02820425913298      0.32322578147311
  C   1.15046597804090     -0.15481397635465      0.22817402307375
  H   -0.69969062996082     -0.25997589669967      1.32667666984212
  H   1.67385767567455      0.44389341313223      0.97718190124368
  H   1.40184515853253     -1.20643228948950      0.38534729357147
  H   1.50443481220991      0.14366238004232     -0.76132484573302
  N   -1.16029577939868     -0.74976102988382     -0.62689912048012
  H   -1.01245589577918     -1.73704869709003     -0.45321016719520
  H   -0.85164444443446     -0.55286021297912     -1.57246346391924
  C   -0.70651178005037      1.45149481270119      0.16019364478894
  N   -0.93163196372182      2.59363723748807      0.01309828333450
