11
Coordinates from ORCA-job run
  C   -0.37192723247685      0.03395236493219      0.31623167338282
  C   1.14851837549859     -0.15093384554418      0.25764899367260
  H   -0.72518538947174     -0.23831939721463      1.31666131129378
  H   1.65607346778830      0.46052361321911      1.00742203670615
  H   1.39566580855352     -1.19985998254043      0.43884597485834
  H   1.52432069931374      0.12981748817821     -0.72909154894286
  N   -1.14335500494088     -0.75794954073715     -0.63900688128800
  H   -0.99761385238829     -1.74242594611799     -0.44882381888217
  H   -0.81583700577892     -0.57311505234758     -1.58044693443561
  C   -0.70823330313597      1.45391497112703      0.12327343131885
  N   -0.96142656296150      2.58439532704543     -0.06271423768390
