11
Coordinates from ORCA-job run
  C   -0.28552470845425     -0.06764642067173      0.32941392317605
  C   1.23862291699695     -0.10414859249145      0.28049042965862
  H   -0.61520959456938     -0.36726615808174      1.32900152633696
  H   1.57092328522335     -1.12361631035432      0.47820639528646
  H   1.67254623660294      0.57199518654762      1.01881473262722
  H   1.59378175216071      0.19544410764096     -0.70855426182177
  N   -0.83623793443296     -1.03201814474136     -0.61737277944612
  H   -0.58951304307996     -0.75860063900368     -1.56202781116483
  H   -1.84787973416518     -1.04239250249940     -0.56020355046571
  C   -0.76666744724813      1.31556188220310      0.10991136254131
  N   -1.13484172903408      2.41168759145199     -0.09667996672818
