17

C	0.0	0.0	0.0
C	-0.46703	-0.351262	-1.397292
F	1.360965	0.0	0.0
H	0.064429	0.411662	-1.98562
H	-0.355091	0.978391	0.328519
N	-0.402047	-0.943276	1.112139
O	-0.12049	-0.547309	2.241422
O	-0.921887	-2.019143	0.835266
C	-1.960731	-0.151692	-1.609265
H	-2.175431	-0.17363	-2.68153
H	-2.318425	0.804324	-1.224336
H	-2.571766	-0.907134	-1.119372
C	0.0238	-1.717314	-1.88437
H	1.045632	-1.924481	-1.55688
H	0.012475	-1.734504	-2.977503
H	-0.626021	-2.512265	-1.523836
Cl	-4.992541	0.0	0.0
