10
Coordinates from ORCA-job run
  C   -0.00425003547048      0.61261233079109     -0.03898656953897
  C   -0.99783754228717     -0.49252700852000     -0.27395493398531
  F   -0.40327612105132      1.41865264392938      0.97707037413510
  H   -1.96143978546672     -0.05846384706934     -0.54178861463802
  H   0.19961891292957      1.22062667238883     -0.92071508929020
  H   -1.11397066950631     -1.07240893562477      0.64318136300266
  H   -0.65714075001760     -1.14254432926927     -1.07883217147152
  N   1.32912570521883     -0.00086068813559      0.33365194254650
  O   1.91563050667619     -0.54115184922493     -0.59902129598348
  O   1.69153977897501      0.05706501073461      1.49939499522323
