18

C	0.0	0.0	0.0
C	-0.282062	-5e-06	-1.519289
Br	1.983143	0.0	0.0
H	0.228413	-0.875125	-1.939515
H	0.228456	0.875083	-1.939531
C	-0.524266	1.246995	0.681034
H	-1.621691	1.196622	0.64976
H	-0.18166	2.151966	0.171707
H	-0.204427	1.288288	1.725957
C	-0.52427	-1.246987	0.681044
H	-0.181665	-2.151963	0.171726
H	-0.204434	-1.288272	1.725969
H	-1.621695	-1.196611	0.649767
C	-1.739366	3.1e-05	-1.963195
H	-1.759399	-8e-06	-3.061019
H	-2.304787	-0.853235	-1.594431
H	-2.304712	0.853378	-1.594505
H	-3.984499	0.0	0.0
