12
Coordinates from ORCA-job run
  C   1.07516235560577     -0.71619520346357     -0.22105763354461
  C   -0.22998454493731      0.02041374006899     -0.34535015519783
  Br  2.39914975696943      0.14828547053864     -1.33786317128234
  H   -0.60694455263629      0.10151144010198     -1.36345242956866
  H   0.96214999688458     -1.74222547105956     -0.56367342383124
  H   1.42423449167904     -0.69837711739617      0.80828249226539
  N   -0.11926253974714      1.41634000131472      0.19830724889200
  O   -0.44283650802771      2.33182447338628     -0.54791748796775
  O   0.28480064251603      1.50181731510575      1.35347886705829
  N   -1.31569609931651     -0.63490400573037      0.47797985173777
  O   -1.01455834378786     -1.62755626094608      1.13173248897813
  O   -2.41521465520205     -0.09893438192062      0.41053335246083
