12
Coordinates from ORCA-job run
  C   1.09457789812365     -0.63627980535007     -0.40225974967050
  C   -0.21630492096703      0.11066378256473     -0.37566399807594
  Br  1.92469630911984     -0.80540030223673      1.33348788662484
  H   -0.53146091649925      0.37877467583269     -1.38559618315806
  H   0.93312596628673     -1.63834357787540     -0.79574047448481
  H   1.78630524433580     -0.08696244198309     -1.03919361672743
  N   -0.06954765115382      1.41352918590180      0.36738888358617
  O   0.61531999036331      2.24016564594855     -0.22327301798640
  O   -0.58172982858612      1.51824650925732      1.47101727110318
  N   -1.36434120376584     -0.65241254300965      0.21764256397470
  O   -1.13656962109537     -1.74327621755435      0.72749551961946
  O   -2.45307126616192     -0.09970491149579      0.10569491519479
