12
Coordinates from ORCA-job run
  C   1.01059722598151     -0.61015959227933     -0.60873628131901
  C   -0.24500515432093      0.17877030113641     -0.32910067192575
  Br  1.76314525526581     -1.44985105629241      0.95944507021824
  H   -0.75509145037420      0.43990568942875     -1.25797351336638
  H   0.76404131328337     -1.40354863177813     -1.31280949837277
  H   1.76671439561081      0.04878143593689     -1.03186493723679
  N   -0.02618667776481      1.47674107094659      0.39181257393129
  O   -1.02638756706855      2.17932475400620      0.48779845092897
  O   1.10256892498212      1.73665542532399      0.79214667698912
  N   -1.22712353661799     -0.64919850549568      0.45905861545034
  O   -1.71455699674559     -1.57317796155108     -0.18113587332353
  O   -1.41271573223156     -0.37424292938219      1.63435938802627
