12
Coordinates from ORCA-job run
  C   0.99968050525188     -0.62185610565759     -0.61566243412301
  C   -0.24550075433347      0.18018470601432     -0.32769228165842
  Br  1.75645590278570     -1.46529139822380      0.94854454194048
  H   -0.76063628374467      0.44449465489063     -1.25287982173689
  H   1.75898884455276      0.02850028612300     -1.04635388770305
  H   0.73964058265170     -1.41431113131290     -1.31591213419892
  N   -0.00804361208311      1.47754727382963      0.38846422105309
  O   -1.00062955539047      2.19005585609123      0.49054102758565
  O   1.12634093365376      1.72751053006627      0.77895548623948
  N   -1.22969998753509     -0.63595861797399      0.47029991828779
  O   -1.73134051562946     -1.55664542840598     -0.16362689459317
  O   -1.40325606017953     -0.35623062544083      1.64632225890694
