16

C	0.0	0.0	0.0
C	-0.503375	-0.083736	-1.435353
Br	2.022415	0.0	0.0
H	-1.60247	-0.106609	-1.299477
H	-0.15079	0.76501	-2.017245
C	-0.400668	1.373469	0.536503
H	0.006088	2.191589	-0.064531
H	-1.496656	1.351635	0.510516
H	-0.041623	1.482619	1.563779
N	-0.516129	-1.092645	0.75655
H	-0.321842	-0.912178	1.737548
H	-1.544541	-0.959836	0.608117
N	-0.061305	-1.291388	-2.170132
O	-0.598837	-2.363797	-1.904973
O	0.81467	-1.142975	-3.030135
F	-2.872153	0.0	0.0
