16

C	0.0	0.0	0.0
C	-0.605343	-0.042741	-1.37827
Br	2.046626	0.0	0.0
H	-0.412526	0.880937	-1.919356
H	-1.722599	-0.160388	-1.073908
C	-0.451078	1.2878	0.660449
H	-1.549109	1.206813	0.60719
H	-0.062751	2.163345	0.135252
H	-0.111067	1.318275	1.698838
N	-0.39364	-1.103733	0.778272
H	-0.278871	-1.981736	0.29616
H	0.037863	-1.105514	1.689435
N	-0.094363	-1.124203	-2.233915
O	0.285447	-0.831052	-3.370628
O	-0.084484	-2.277522	-1.791618
F	-2.913808	0.0	0.0
