16

C	0.0	0.0	0.0
C	-0.261032	-0.181759	-1.514891
Br	1.99176	0.0	0.0
H	0.451675	0.418113	-2.080789
H	-0.148072	-1.239761	-1.746935
C	-0.404274	1.373529	0.5215
H	-0.00177	2.185017	-0.086671
H	-1.498745	1.352637	0.491315
H	-0.046327	1.483656	1.549946
N	-0.556138	-1.103495	0.705947
H	-0.418181	-0.933392	1.698447
H	-1.590195	-0.907184	0.509059
N	-1.579098	0.24264	-2.098137
O	-1.78672	1.449985	-2.163436
O	-2.252166	-0.623729	-2.645606
F	-2.78063	0.0	0.0
