16

C	0.0	0.0	0.0
C	-0.27527	-0.196504	-1.510985
Br	1.990539	0.0	0.0
H	-0.195495	-1.259968	-1.72909
H	0.449436	0.372368	-2.091107
C	-0.402061	1.376598	0.513114
H	-0.043292	1.489124	1.541419
H	0.001456	2.186199	-0.097113
H	-1.496837	1.356087	0.483101
N	-0.552795	-1.09656	0.719603
H	-1.586184	-0.901194	0.525206
H	-0.413595	-0.917347	1.709915
N	-1.582954	0.257694	-2.09572
O	-1.768033	1.469701	-2.144756
O	-2.266744	-0.587907	-2.660419
F	-2.776779	0.0	0.0
