16

C	0.0	0.0	0.0
C	-0.168201	0.13992	-1.540172
Br	2.058473	0.0	0.0
H	0.474801	-0.585443	-2.036091
H	0.089373	1.148347	-1.859584
C	-0.425678	1.244037	0.747246
H	-1.517058	1.25927	0.637027
H	-0.153419	1.137393	1.798802
H	0.044743	2.140783	0.338119
N	-0.559716	-1.146881	0.580889
H	-1.598084	-0.868912	0.539815
H	-0.437777	-1.935681	-0.046156
N	-1.516259	-0.155092	-2.123341
O	-1.816995	-1.342199	-2.212059
O	-2.137191	0.775952	-2.622243
F	-2.784006	0.0	0.0
