14

C	0.0	0.0	0.0
C	-0.548299	0.38552	-1.371053
Cl	1.865345	0.0	0.0
H	-1.61836	0.15228	-1.29703
H	-0.076271	-0.238548	-2.135917
N	-0.525485	0.84092	0.963185
H	-0.264908	0.664663	1.917598
H	-0.540672	1.805097	0.670043
C	-0.295468	-1.411661	0.29916
N	-0.493885	-2.540232	0.554592
N	-0.380064	1.81748	-1.573539
H	0.421517	2.013026	-2.157763
H	-1.21272	2.196139	-2.003432
Br	-4.038626	0.0	0.0
