14

C	0.0	0.0	0.0
C	-0.481187	0.246955	-1.431996
Cl	1.784032	0.0	0.0
H	0.020988	-0.473384	-2.083688
H	-1.55736	0.0485	-1.428691
N	-0.548012	1.001542	0.868843
H	-0.279957	0.813024	1.829479
H	-1.570179	0.899002	0.792913
C	-0.345337	-1.386931	0.388544
N	-0.577385	-2.497625	0.695839
N	-0.131446	1.608988	-1.845277
H	-0.432611	2.226372	-1.097238
H	-0.704559	1.831142	-2.652193
Br	-3.781104	0.0	0.0
