14

C	0.0	0.0	0.0
C	-0.501196	0.251034	-1.421975
Cl	1.784645	0.0	0.0
H	-1.57803	0.051353	-1.388449
H	-0.016265	-0.471181	-2.084466
N	-0.531781	1.000949	0.882517
H	-1.555033	0.921868	0.803437
H	-0.278779	0.78424	1.839831
C	-0.344056	-1.388532	0.388683
N	-0.552761	-2.502919	0.69719
N	-0.157969	1.611484	-1.840059
H	-0.436673	2.229159	-1.084973
H	-0.747728	1.839037	-2.633106
Br	-3.787849	0.0	0.0
