14

C	0.0	0.0	0.0
C	-0.442929	-0.168412	-1.457841
Cl	1.84902	0.0	0.0
H	-1.526203	-0.308371	-1.392313
H	0.021215	-1.065809	-1.884283
N	-0.492908	1.171783	0.639293
H	-1.486237	0.994323	0.823224
H	-0.452599	1.90558	-0.064685
C	-0.34579	-1.202268	0.770993
N	-0.539327	-2.176427	1.396904
N	-0.159306	1.060578	-2.187669
H	0.73304	1.004225	-2.660243
H	-0.886353	1.228623	-2.869199
Br	-3.735314	0.0	0.0
