14

C	0.0	0.0	0.0
C	-0.458798	0.178887	-1.443567
Cl	1.845129	0.0	0.0
H	-0.087643	1.158838	-1.776737
H	-1.55257	0.212785	-1.376588
N	-0.523245	0.998351	0.826998
H	-0.360763	0.863956	1.812004
H	-0.304347	1.933171	0.519311
C	-0.349441	-1.33568	0.498159
N	-0.568174	-2.421672	0.885796
N	-0.007546	-0.925179	-2.269687
H	0.783989	-0.675151	-2.842959
H	-0.759962	-1.259278	-2.852198
Br	-3.907417	0.0	0.0
