14

C	0.0	0.0	0.0
C	-0.490185	0.344811	-1.412108
Cl	1.789665	0.0	0.0
H	0.075208	1.224264	-1.738314
H	-1.5456	0.608304	-1.29225
N	-0.479699	0.897199	1.023584
H	-0.306119	1.847517	0.707615
H	-1.497335	0.766626	1.048098
C	-0.384982	-1.377724	0.354355
N	-0.619575	-2.493346	0.634509
N	-0.265913	-0.757501	-2.342822
H	-0.304894	-0.401953	-3.289933
H	-1.045017	-1.400485	-2.241231
Br	-3.731787	0.0	0.0
