14

C	0.0	0.0	0.0
C	-0.510243	0.380558	-1.39089
Cl	1.785191	0.0	0.0
H	0.088162	1.233729	-1.720427
H	-1.549936	0.691004	-1.258235
N	-0.482064	0.969466	0.947635
H	-1.50552	0.921526	0.895844
H	-0.205709	0.69143	1.883206
C	-0.354319	-1.399135	0.331169
N	-0.58674	-2.515225	0.615396
N	-0.355035	-0.733141	-2.324079
H	-0.401815	-0.370647	-3.268247
H	-1.161756	-1.338619	-2.206466
Br	-3.730484	0.0	0.0
