14

C	0.0	0.0	0.0
C	-0.340147	-0.004766	-1.526352
Cl	1.795549	0.0	0.0
H	0.02905	0.960313	-1.886463
H	0.283626	-0.785663	-1.9709
N	-0.563592	1.14468	0.645802
H	-1.57092	1.117246	0.464338
H	-0.448049	1.074194	1.651096
C	-0.373412	-1.29361	0.603714
N	-0.648399	-2.333781	1.077327
N	-1.69503	-0.199727	-1.942198
H	-2.077574	-1.063596	-1.577833
H	-2.329612	0.510936	-1.599366
Br	-4.298396	0.0	0.0
