14

C	0.0	0.0	0.0
C	-0.499712	0.368025	-1.403035
Cl	1.784451	0.0	0.0
H	-1.515122	0.752138	-1.280973
H	0.150388	1.169573	-1.760111
N	-0.485808	0.98646	0.925109
H	-1.508919	0.952584	0.854056
H	-0.231441	0.721975	1.870545
C	-0.367199	-1.38854	0.351817
N	-0.605501	-2.502582	0.640627
N	-0.420774	-0.778352	-2.299282
H	-0.412392	-0.451141	-3.257007
H	-1.27327	-1.31641	-2.176778
Br	-3.69851	0.0	0.0
