14

C	0.0	0.0	0.0
C	-0.341366	-0.036509	-1.525046
Cl	1.795071	0.0	0.0
H	0.055706	0.90745	-1.911182
H	0.261774	-0.846593	-1.945434
N	-0.564216	1.15708	0.624054
H	-0.429444	1.115842	1.628779
H	-1.574729	1.118584	0.460985
C	-0.368157	-1.28084	0.635649
N	-0.650686	-2.305214	1.138815
N	-1.699982	-0.200874	-1.939528
H	-2.310109	0.548824	-1.639188
H	-2.122672	-1.034189	-1.549182
Br	-4.312725	0.0	0.0
