14

C	0.0	0.0	0.0
C	-0.560007	0.389007	-1.363148
Cl	1.866827	0.0	0.0
H	-0.110909	-0.249456	-2.131224
H	-1.633195	0.172022	-1.270726
N	-0.509276	0.84864	0.973334
H	-0.154499	0.703602	1.902723
H	-0.496184	1.808654	0.659484
C	-0.300412	-1.408792	0.300199
N	-0.49724	-2.537701	0.55597
N	-0.371775	1.817482	-1.579601
H	0.419937	1.994229	-2.182629
H	-1.205873	2.206249	-1.998767
Br	-4.020745	0.0	0.0
