18

C	0.0	0.0	0.0
C	-0.364742	0.011001	-1.577707
Br	1.959846	0.0	0.0
H	-1.463107	-0.024622	-1.708079
C	-0.31864	1.332101	0.816886
H	0.010729	1.144839	1.838973
H	-1.376226	1.573987	0.871193
H	0.168559	2.186877	0.351472
C	-0.307723	-1.389199	0.718681
H	-1.36807	-1.603181	0.813335
H	0.08716	-1.316073	1.732378
H	0.128276	-2.203524	0.141847
C	0.116244	-1.141162	-2.292198
N	0.34595	-2.159945	-2.828311
N	-0.021367	1.293306	-2.209231
O	-0.810967	2.216716	-2.012172
O	0.970131	1.358459	-2.941819
Cl	-2.546279	0.0	0.0
