18

C	0.0	0.0	0.0
C	-0.364848	0.010943	-1.577724
Br	1.959771	0.0	0.0
H	-1.463207	-0.02561	-1.708001
C	-0.318571	1.33203	0.817001
H	-1.376318	1.572795	0.873118
H	0.013087	1.14586	1.838537
H	0.166705	2.18705	0.350087
C	-0.307925	-1.389344	0.718435
H	0.130213	-2.203507	0.142981
H	-1.368254	-1.604375	0.810999
H	0.084483	-1.315173	1.73302
C	0.117183	-1.140474	-2.292654
N	0.348578	-2.158868	-2.828807
N	-0.022803	1.293645	-2.209317
O	0.968788	1.35977	-2.941645
O	-0.813098	2.21639	-2.012071
Cl	-2.546336	0.0	0.0
