18

C	0.0	0.0	0.0
C	-0.525853	0.013193	-1.446829
Br	1.959936	0.0	0.0
H	-1.628432	0.052039	-1.356369
C	-0.458907	1.221203	0.782504
H	-0.139692	1.107613	1.821017
H	-0.029188	2.141765	0.388526
H	-1.550064	1.267756	0.737037
C	-0.457476	-1.290568	0.66694
H	-1.551291	-1.306158	0.663202
H	-0.09577	-1.30426	1.697489
H	-0.061654	-2.168183	0.151956
C	-0.094805	-1.15225	-2.210601
N	0.223857	-2.095464	-2.833827
N	-0.097288	1.253419	-2.190628
O	0.860232	1.169153	-2.956947
O	-0.735837	2.273963	-1.951265
Cl	-3.679342	0.0	0.0
