18

C	0.0	0.0	0.0
C	-0.261257	-0.198422	-1.525163
Br	1.964052	0.0	0.0
H	0.20259	0.649534	-2.033187
C	-0.534809	1.366928	0.390779
H	-1.628554	1.31941	0.325063
H	-0.249831	1.591522	1.422045
H	-0.145561	2.154118	-0.260363
C	-0.547146	-1.088324	0.899326
H	-1.638305	-1.078135	0.793482
H	-0.291612	-0.854959	1.936571
H	-0.153243	-2.069435	0.644064
C	-1.609333	-0.359307	-2.079652
N	-2.454102	-0.581056	-2.868242
N	0.4881	-1.391797	-2.104931
O	0.248685	-2.498866	-1.63773
O	1.252829	-1.153235	-3.035116
Cl	-3.883654	0.0	0.0
