19

C	-0.358693	0.009566	-1.487702
C	0.0	0.0	0.0
Cl	-2.166308	-0.140032	-1.730925
H	1.093734	0.0	0.0
N	0.041008	1.273928	-2.046535
H	0.97944	1.495338	-1.71954
H	0.046573	1.209742	-3.058303
C	0.279978	-1.194497	-2.169918
H	0.085656	-1.137877	-3.244684
H	1.358955	-1.15272	-1.988161
H	-0.116393	-2.142666	-1.804723
C	-0.505538	-1.176081	0.806105
H	-0.081045	-2.100009	0.411799
H	-1.59294	-1.232285	0.804264
H	-0.156226	-1.071235	1.835467
N	-0.446165	1.276465	0.642055
O	0.311867	2.240657	0.580758
O	-1.549593	1.28544	1.192016
Br	3.506327	0.0	0.0
