19

C	-0.428214	-0.030126	-1.468775
C	0.0	0.0	0.0
Cl	-2.356274	0.258752	-1.460728
H	1.094134	0.0	0.0
N	0.227095	0.917766	-2.238924
H	-0.106483	0.973559	-3.188952
H	0.342422	1.815865	-1.793896
C	-0.26434	-1.406891	-2.080734
H	-0.504627	-1.358708	-3.145625
H	-0.917031	-2.142607	-1.617149
H	0.783843	-1.695263	-1.96502
C	-0.477557	-1.1657	0.836859
H	0.014196	-2.073188	0.486439
H	-1.560756	-1.28355	0.801938
H	-0.173125	-1.009424	1.870954
N	-0.415273	1.295122	0.631109
O	-0.003779	2.337628	0.115427
O	-1.137031	1.265008	1.625446
Br	3.457015	0.0	0.0
