19

C	-0.321087	-0.00985	-1.511894
C	0.0	0.0	0.0
Cl	-2.099174	0.327505	-1.734456
H	1.094438	0.0	0.0
N	0.407376	0.961394	-2.290297
H	0.314351	1.868411	-1.846864
H	1.394761	0.716783	-2.196425
C	-0.026444	-1.384421	-2.08773
H	1.015114	-1.639184	-1.864604
H	-0.686006	-2.148521	-1.678524
H	-0.163863	-1.330769	-3.16864
C	-0.523081	-1.167991	0.804983
H	-0.007534	-2.074571	0.488024
H	-1.601712	-1.292041	0.695105
H	-0.29781	-1.014014	1.86047
N	-0.446243	1.286991	0.616419
O	-1.304947	1.249058	1.499144
O	0.053309	2.331631	0.191392
Br	3.471113	0.0	0.0
