19

C	-0.372787	-0.044155	-1.493465
C	0.0	0.0	0.0
Cl	-0.112087	1.67909	-2.173298
H	1.092102	0.0	0.0
N	0.524518	-0.974498	-2.072463
H	0.431141	-0.999503	-3.079543
H	1.490954	-0.76661	-1.817077
C	-1.811184	-0.385978	-1.829403
H	-2.494021	0.321793	-1.363989
H	-2.032688	-1.396841	-1.481281
H	-1.949408	-0.352428	-2.913055
C	-0.485834	-1.219522	0.76574
H	-1.573721	-1.248217	0.83893
H	-0.118215	-2.112842	0.260912
H	-0.059709	-1.19675	1.771698
N	-0.525366	1.217546	0.673474
O	0.272491	2.035212	1.117618
O	-1.754761	1.311917	0.766119
Br	3.538983	0.0	0.0
