19

C	-0.491932	0.005316	-1.471033
C	0.0	0.0	0.0
Cl	0.193879	-1.484677	-2.214695
H	1.090087	0.0	0.0
N	-1.928224	-0.061631	-1.674085
H	-2.354286	0.68541	-1.133066
H	-2.276617	-0.93613	-1.296301
C	0.086674	1.199725	-2.206697
H	1.16397	1.253474	-2.036433
H	-0.375454	2.123068	-1.844821
H	-0.130044	1.098687	-3.270391
C	-0.528045	-1.124215	0.866511
H	-1.618154	-1.139942	0.904672
H	-0.145828	-1.001142	1.882369
H	-0.15233	-2.07302	0.484017
N	-0.436203	1.30622	0.591973
O	-1.632095	1.41765	0.903451
O	0.390038	2.207306	0.703127
Br	3.548551	0.0	0.0
