19

C	-0.396019	-0.030241	-1.497888
C	0.0	0.0	0.0
Cl	-0.193252	1.645629	-2.147387
H	1.092096	0.0	0.0
N	0.521531	-0.867698	-2.237206
H	1.480177	-0.645426	-1.962452
H	0.350057	-1.8377	-1.994933
C	-1.823331	-0.457136	-1.782112
H	-1.99775	-0.394389	-2.856704
H	-1.977179	-1.492703	-1.464343
H	-2.52747	0.182012	-1.251533
C	-0.457383	-1.232616	0.764837
H	-0.018811	-1.206359	1.765175
H	-1.542609	-1.286375	0.851418
H	-0.077023	-2.130738	0.274702
N	-0.531015	1.1976	0.705537
O	0.258377	2.051004	1.094537
O	-1.757067	1.252422	0.860864
Br	3.531536	0.0	0.0
