17

C	0.0	0.0	0.0
C	-0.586364	0.157756	-1.404894
F	1.35014	0.0	0.0
H	-1.68468	0.053235	-1.322269
C	-0.519238	1.025235	0.967587
H	-0.135333	2.005581	0.677912
H	-0.143902	0.779495	1.961163
H	-1.612884	1.026247	0.953987
N	-0.373364	-1.404823	0.489938
O	-1.043674	-2.12107	-0.24376
O	0.086954	-1.70727	1.586488
C	0.008615	-0.750583	-2.375319
N	0.488519	-1.449884	-3.186114
N	-0.298265	1.570307	-1.866584
O	-1.243403	2.349526	-1.893772
O	0.866992	1.831449	-2.157868
Br	-3.829996	0.0	0.0
