14

C	-0.310767	-0.094213	-1.511699
C	0.0	0.0	0.0
Br	0.067031	1.636265	-2.354335
H	1.09716	0.0	0.0
H	-1.372868	-0.263848	-1.708906
C	0.592899	-1.155842	-2.119982
H	0.282356	-2.14256	-1.760054
H	1.607459	-0.953138	-1.763181
H	0.541646	-1.148621	-3.209422
C	-0.45782	-1.225491	0.639706
N	-0.827254	-2.231745	1.124374
C	-0.572533	1.153655	0.667817
N	-1.029523	2.079409	1.231103
F	2.512299	0.0	0.0
