14

C	-0.312971	-0.085758	-1.510292
C	0.0	0.0	0.0
Br	0.097742	1.640272	-2.34848
H	1.097221	0.0	0.0
H	-1.378356	-0.233412	-1.707055
C	0.567111	-1.164753	-2.121305
H	1.585293	-0.984082	-1.763221
H	0.518717	-1.151461	-3.210898
H	0.233506	-2.14606	-1.766775
C	-0.461077	-1.225046	0.637284
N	-0.833351	-2.229298	1.123958
C	-0.565743	1.154247	0.672493
N	-1.008515	2.084109	1.240597
F	2.509435	0.0	0.0
