14

C	-0.175981	-0.002776	-1.514995
C	0.0	0.0	0.0
Br	-2.071191	0.018754	-2.09121
H	1.099308	0.0	0.0
H	0.207647	-0.959146	-1.87384
C	0.597735	1.143235	-2.13457
H	0.159229	2.104758	-1.858541
H	1.60726	1.061601	-1.716113
H	0.615911	1.062228	-3.222888
C	-0.519809	-1.192055	0.640071
N	-0.91141	-2.178305	1.146533
C	-0.492272	1.213691	0.62452
N	-0.864145	2.215447	1.115378
F	2.50398	0.0	0.0
