14

C	-0.312326	-0.090381	-1.511718
C	0.0	0.0	0.0
Br	0.040467	1.649134	-2.347634
H	1.09715	0.0	0.0
H	-1.372797	-0.272519	-1.704766
C	0.600315	-1.137347	-2.129295
H	0.301869	-2.129205	-1.771898
H	1.613824	-0.924674	-1.776547
H	0.543597	-1.125864	-3.218709
C	-0.454691	-1.228866	0.636277
N	-0.821087	-2.237809	1.117873
C	-0.574796	1.149299	0.67317
N	-1.036047	2.070446	1.240219
F	2.513622	0.0	0.0
