14

C	-0.174046	0.002276	-1.515196
C	0.0	0.0	0.0
Br	-2.068525	0.017127	-2.093049
H	1.099378	0.0	0.0
H	0.213687	-0.950511	-1.877987
C	0.594805	1.155078	-2.128232
H	1.603341	1.077254	-1.708075
H	0.615151	1.078448	-3.21671
H	0.151207	2.112514	-1.848067
C	-0.519679	-1.194866	0.635568
N	-0.910509	-2.183192	1.138796
C	-0.493981	1.210775	0.628313
N	-0.866276	2.209649	1.12426
F	2.503826	0.0	0.0
