17

C	0.0	0.0	0.0
C	-0.492431	-0.081043	-1.450202
Cl	1.832982	0.0	0.0
H	-1.595984	-0.131153	-1.302696
N	-0.462608	1.254041	0.540893
H	-1.49415	1.140765	0.495013
H	-0.2118	1.280004	1.525369
N	-0.44037	-1.205416	0.656692
H	-0.16969	-1.156477	1.635439
H	-1.471723	-1.119691	0.616163
C	-0.049284	-1.311848	-2.097564
N	0.303717	-2.245633	-2.717653
C	-0.142291	1.13309	-2.306498
H	-0.59709	1.031563	-3.295605
H	0.939698	1.228239	-2.425315
H	-0.523242	2.032215	-1.823728
H	-2.981793	0.0	0.0
