17

C	0.0	0.0	0.0
C	-0.523963	-0.042746	-1.445156
Cl	1.845868	0.0	0.0
H	-1.627952	-0.112772	-1.221247
N	-0.534003	1.074447	0.765377
H	-0.315168	1.958695	0.328388
H	-1.567301	0.905353	0.677118
N	-0.412453	-1.199343	0.64523
H	0.073074	-2.009706	0.283683
H	-0.260365	-1.104289	1.640473
C	-0.095355	-1.251312	-2.132201
N	0.249706	-2.222947	-2.695764
C	-0.222978	1.197153	-2.276607
H	-0.687118	2.071073	-1.814186
H	-0.653048	1.089192	-3.275588
H	0.852699	1.366452	-2.371748
H	-3.058248	0.0	0.0
