14

C	-0.445678	0.069006	-1.453606
C	0.0	0.0	0.0
F	-1.827656	0.310496	-1.507456
H	1.09361	0.0	0.0
H	-0.321142	0.930116	0.479794
C	0.274238	1.194309	-2.168954
H	-0.04038	1.239799	-3.213319
H	0.021603	2.136362	-1.677307
H	1.35308	1.036856	-2.097879
C	-0.222995	-1.214118	-2.14723
N	-0.047278	-2.23723	-2.695905
C	-0.568887	-1.1296	0.720315
N	-1.048897	-2.030118	1.29973
Cl	3.318892	0.0	0.0
