14

C	-0.421823	-0.027292	-1.471798
C	0.0	0.0	0.0
F	-0.063493	1.203747	-2.015471
H	1.094048	0.0	0.0
H	-0.362047	0.921175	0.463227
C	0.299447	-1.117857	-2.234726
H	0.064902	-1.043634	-3.298262
H	1.370544	-0.982839	-2.069847
H	0.001057	-2.100557	-1.865876
C	-1.888798	-0.135183	-1.62246
N	-3.053516	-0.214808	-1.75109
C	-0.51071	-1.160463	0.715491
N	-0.921333	-2.107529	1.275207
Cl	3.338484	0.0	0.0
