14

C	-0.446677	0.088197	-1.453933
C	0.0	0.0	0.0
F	-1.814104	0.401109	-1.50158
H	1.093645	0.0	0.0
H	-0.315912	0.929272	0.485591
C	0.329588	1.173833	-2.172361
H	1.398763	0.957882	-2.109573
H	0.008916	1.239804	-3.213682
H	0.136732	2.12733	-1.676003
C	-0.297782	-1.204673	-2.148168
N	-0.19691	-2.234147	-2.702924
C	-0.576053	-1.129158	0.715055
N	-1.059068	-2.029838	1.292731
Cl	3.315385	0.0	0.0
