14

C	-0.449781	0.050936	-1.4564
C	0.0	0.0	0.0
F	-1.850095	0.114608	-1.5172
H	1.093778	0.0	0.0
H	-0.351581	-0.920823	0.471985
C	0.124564	1.247459	-2.185472
H	-0.243247	2.157803	-1.708239
H	1.214571	1.219919	-2.118003
H	-0.193131	1.236796	-3.229805
C	-0.071035	-1.206878	-2.129177
N	0.182706	-2.219858	-2.665694
C	-0.517111	1.148698	0.733114
N	-0.948551	2.073338	1.313461
Cl	3.308711	0.0	0.0
