14

C	-0.547459	0.042345	-1.42613
C	0.0	0.0	0.0
F	-0.055665	-1.077283	-2.086971
H	1.093137	0.0	0.0
H	-0.323444	-0.949347	0.44015
C	-2.06534	-0.02562	-1.485447
H	-2.510805	0.848292	-1.007956
H	-2.389649	-0.072532	-2.52669
H	-2.396834	-0.92836	-0.967096
C	-0.086659	1.241308	-2.154314
N	0.178135	2.206806	-2.767724
C	-0.531008	1.102326	0.790476
N	-0.987562	1.995804	1.400314
Cl	3.318173	0.0	0.0
