14

C	-0.419496	-0.032827	-1.472704
C	0.0	0.0	0.0
F	-0.084807	1.206315	-2.013107
H	1.093768	0.0	0.0
H	-0.365076	0.921665	0.459822
C	0.325494	-1.108615	-2.236291
H	0.048893	-2.098034	-1.867014
H	1.39429	-0.951423	-2.071582
H	0.088281	-1.039706	-3.299695
C	-1.884408	-0.17071	-1.627207
N	-3.045508	-0.281047	-1.765876
C	-0.507938	-1.160053	0.718724
N	-0.915788	-2.105998	1.282335
Cl	3.335608	0.0	0.0
