14

C	-0.417435	-0.05128	-1.472597
C	0.0	0.0	0.0
F	-0.073342	1.178736	-2.030014
H	1.093799	0.0	0.0
H	-0.364403	0.927882	0.447565
C	0.322263	-1.141916	-2.220314
H	0.088936	-1.084182	-3.28482
H	0.037317	-2.125548	-1.839819
H	1.391898	-0.989776	-2.055451
C	-1.883456	-0.180571	-1.62553
N	-3.04681	-0.278957	-1.757822
C	-0.509902	-1.150081	0.732715
N	-0.919422	-2.088404	1.307598
Cl	3.334246	0.0	0.0
