17

C	0.0	0.0	0.0
C	-0.29294	0.025113	-1.519413
Br	1.964368	0.0	0.0
H	0.131356	0.939022	-1.929656
C	-0.459602	1.256382	0.580077
N	-0.597653	2.311029	1.082638
C	-0.395476	-1.219807	0.838477
H	0.116957	-2.107806	0.47806
H	-0.091983	-1.019657	1.869189
H	-1.480808	-1.280359	0.757406
N	-1.716754	0.007698	-2.06556
O	-2.189112	-1.076675	-2.369252
O	-2.142271	1.110645	-2.376969
N	0.389461	-1.074355	-2.289848
O	0.385346	-2.213874	-1.84392
O	0.864381	-0.731506	-3.373142
F	-2.482182	0.0	0.0
