17

C	0.0	0.0	0.0
C	-0.489525	-0.013833	-1.486624
Br	1.953747	0.0	0.0
H	-1.563576	-0.181852	-1.511105
C	-0.453228	1.191222	0.702914
N	-0.785667	2.175197	1.260421
C	-0.350943	-1.28949	0.808138
H	0.10082	-2.164379	0.338362
H	0.052008	-1.158514	1.816267
H	-1.425306	-1.392303	0.849216
N	0.110097	-1.128909	-2.261658
O	-0.451958	-2.214603	-2.102547
O	0.98203	-0.903082	-3.103991
N	-0.336001	1.287546	-2.204239
O	0.503305	2.102449	-1.837959
O	-0.877797	1.291571	-3.320778
F	-2.371771	0.0	0.0
