14
Coordinates from ORCA-job run
  C   1.08131038936579      0.27707555356635     -0.57041829564492
  C   -0.43264592125124      0.16240293508452     -0.38139206258571
  Cl  1.52034330725595      1.90185959102231     -1.19046380012626
  H   -0.87207662191161      0.37112695455177     -1.37028057667708
  H   1.41019939283347     -0.42971750039652     -1.33611673456800
  C   1.80574816499161      0.00789357091985      0.66805415713353
  N   2.39515574168456     -0.26298894806959      1.64643150934621
  N   -0.84817152806457      1.09240287841503      0.65404315324635
  H   -0.77791487758976      2.04865692357943      0.32839298433833
  H   -1.81269899810606      0.91994313291698      0.90837621101826
  C   -0.79231832137682     -1.25641152735718      0.03609996763946
  H   -1.87901854088314     -1.36717195534686      0.07911570474745
  H   -0.38626288721377     -1.47308032865707      1.02618993023625
  H   -0.41264929973441     -1.99199128022901     -0.67703214810386
