14
Coordinates from ORCA-job run
  C   1.18152229001935     -0.04765562133018      0.24972887458576
  C   -0.25332673282587     -0.11299552152148     -0.30574483978809
  Cl  1.96871088252825     -1.65542083665467      0.29830386313051
  H   -0.18147306324803     -0.51938906428632     -1.32203591805053
  H   1.14379029131833      0.32899638503819      1.27419591917485
  C   1.99085130870872      0.85634400847425     -0.56300044044022
  N   2.62566515838483      1.56713837897438     -1.24859302458354
  N   -0.72762688456438      1.26676015509503     -0.31521754368154
  H   -0.86324322655289      1.61768347144282     -1.25173973053770
  H   -1.58838481847782      1.36903507123807      0.20367879438114
  C   -1.14893075777688     -1.00550343170280      0.53866172439614
  H   -0.78099365631596     -2.02956750179057      0.59013777208811
  H   -2.15443529083674     -1.02257160563198      0.11239025980383
  H   -1.21412550036091     -0.61185388734476      1.55823428952127
