14
Coordinates from ORCA-job run
  C   1.09981093667510      0.57471474024901     -0.02768613731697
  C   -0.34678078401991      0.13026918428562     -0.31192509682832
  Cl  1.41198238723988      0.83983747238885      1.70834376019905
  H   -0.35441113271142     -0.11608903072715     -1.38683077667494
  H   1.28029126755706      1.53572269298571     -0.51677753758506
  C   2.04996343892430     -0.40285263336059     -0.55366089889604
  N   2.77588222338867     -1.20835064441967     -1.00453163495361
  N   -1.23460912348469      1.23179844279859      0.02415637108498
  H   -2.17798667820264      0.89278896234026      0.16110562926438
  H   -1.25798841266437      1.91868472821119     -0.71959501672104
  C   -0.73276358794064     -1.11520001706875      0.46727317903137
  H   -0.80534575462745     -0.88622259260436      1.53104889118707
  H   -0.00506920069994     -1.91644613846471      0.32605359735665
  H   -1.70397557943395     -1.47865516661400      0.12202567085249
