14
Coordinates from ORCA-job run
  C   1.17941145610065      0.02816327237543      0.17496010517440
  C   -0.27728321713156     -0.15971073500754     -0.27837460677786
  Cl  2.10867232403571     -1.49570841141086      0.06665735832248
  H   -0.24890661683645     -0.60771255459674     -1.28301066543528
  H   1.18275206060810      0.34354802655790      1.22048557352846
  C   1.83914991583566      1.04839373650057     -0.63545911427826
  N   2.32154512811608      1.87335160064547     -1.31789534905892
  N   -0.88189453515498      1.16688421105949     -0.23559169971573
  H   -1.89119622844912      1.08997009158906     -0.22139672564425
  H   -0.62323887510453      1.71076019968907     -1.05043647251926
  C   -1.02849480877536     -1.08119219325752      0.66762242688955
  H   -2.04778207717955     -1.23691706038948      0.30465230045939
  H   -1.08398335370517     -0.62338279012719      1.65881361084614
  H   -0.54975117235947     -2.05644739362767      0.74897325820915
