17

C	0.0	0.0	0.0
C	-0.214246	0.093097	-1.541588
F	1.396635	0.0	0.0
H	0.320564	0.999357	-1.838014
C	-0.465664	1.196356	0.702181
N	-0.554959	2.196671	1.313823
C	-0.399406	-1.297585	0.672673
H	-0.03769	-1.27462	1.70345
H	-1.487975	-1.338862	0.626042
H	0.090725	-2.127138	0.156296
N	-1.605567	0.31179	-2.077271
O	-1.954617	1.480622	-2.183059
O	-2.197263	-0.655131	-2.541654
N	0.336276	-1.031368	-2.272606
H	1.214267	-1.292047	-1.841692
H	-0.318522	-1.800714	-2.203278
F	-2.493584	0.0	0.0
