16
Coordinates from ORCA-job run
  C   -0.63090102975769     -0.50507610345295      0.30156488153686
  C   0.78664395235547      0.07442098064640      0.33691303863530
  Br  -0.62381875734821     -2.39908398454709      0.55914768695129
  H   1.24813015779470     -0.32102646022073      1.24654390274066
  N   -1.51666281541863      0.07570958944911      1.40351080487654
  O   -0.93302010548076      0.44612927264751      2.41245749358413
  O   -2.71963728264024      0.05407297897961      1.19564100950279
  N   -1.29049341258422     -0.11609475706114     -1.02068395485442
  O   -1.50374162102310      1.08715552546945     -1.11091302624647
  O   -1.47856947093915     -0.97554061256421     -1.86493458614358
  C   0.77860967794729      1.53508041963021      0.45750552259780
  N   0.86101923131130      2.70133537618509      0.56820470959574
  C   1.59868119996987     -0.34334216692174     -0.89600771918270
  H   1.19402721592208      0.11325287476002     -1.80076289302144
  H   1.60425031363882     -1.42685127170056     -1.01294663902189
  H   2.62648274625248      0.00085833870103     -0.77524023155061
