16
Coordinates from ORCA-job run
  C   -0.78104401654240      0.12830725824846      0.10577301822697
  C   0.74172516204911      0.10390083069272      0.23970436778200
  Br  -1.47316171327160      1.77022569072123     -0.55252321956086
  H   0.97700707060007     -0.81285797362438      0.79018130319837
  N   -1.16236164436745     -1.05902765874629     -0.78953520447890
  O   -1.62114222289414     -0.85175847113932     -1.89805802084643
  O   -0.89254655372246     -2.14003451926337     -0.27712354968564
  N   -1.47543788051435     -0.19568681471761      1.43513846537979
  O   -2.68126857935494     -0.37443165778456      1.36196629938305
  O   -0.76653816373541     -0.25782248936287      2.42984162758460
  C   1.20239849227112      1.24274591828580      1.03143966179187
  N   1.63232164204322      2.16287772686941      1.62072790806661
  C   1.43702832241538      0.07764760941420     -1.12704828615908
  H   1.15177930940140      0.93962427683469     -1.73070651778201
  H   1.19369186053719     -0.83824869008645     -1.66765747212366
  H   2.51654891508524      0.10353896365834     -0.97412038077671
