16
Coordinates from ORCA-job run
  C   -0.82746875787550      0.16544123895603      0.38034079647936
  C   0.67065785617600      0.49577733269164      0.34209158069773
  Br  -1.82270616465689      1.49286506975044      1.32963275231122
  H   0.97624252121544      0.55421429789038      1.39150805435370
  N   -1.34561308910081     -0.01224849885265     -1.04793376009244
  O   -1.94473869714514      0.91369853724183     -1.56760030610585
  O   -1.02629731088928     -1.08141773873449     -1.55564091545194
  N   -1.09314535931856     -1.16033749782850      1.09405644554673
  O   -2.17485289978255     -1.67985165378299      0.87116603828488
  O   -0.22524688383840     -1.54377088659525      1.86780334246682
  C   0.84138589927283      1.81798808074110     -0.26403644352814
  N   1.03189922375060      2.85138133999963     -0.78881969673529
  C   1.55949231241045     -0.52361626039580     -0.38566305912104
  H   2.59944238364100     -0.23495936954329     -0.22243603861501
  H   1.36922667478499     -0.52865553363660     -1.45752022566430
  H   1.41172229135583     -1.52550845790150      0.01205143517356
