16
Coordinates from ORCA-job run
  C   -0.78038805207411      0.13507277953379      0.10550919592356
  C   0.74245021637576      0.10372472937220      0.23781506007594
  Br  -1.46415619769553      1.76986130658335     -0.57805027183591
  H   0.97309870256964     -0.80529703148055      0.80284579955219
  N   -1.16904753143043     -1.06433381934001     -0.77181976692196
  O   -1.62765954556737     -0.87133406867927     -1.88292475455901
  O   -0.90367786842609     -2.13877333381340     -0.24362559136751
  N   -1.47502374647651     -0.16563588771744      1.43944292846831
  O   -0.76526431915276     -0.21931537377899      2.43426183967194
  O   -2.68220519017880     -0.33759661922855      1.37037373739017
  C   1.21052109644841      1.25288698080749      1.01021239723789
  N   1.64588843272538      2.18041891251556      1.58376483335967
  C   1.43583278868657      0.05134378067388     -1.12915652739805
  H   1.15369934954867      0.90429251136289     -1.74683731485540
  H   2.51560071968481      0.07507106564237     -0.97757784494222
  H   1.18833114496235     -0.87238593245332     -1.65423371979963
