16
Coordinates from ORCA-job run
  C   -0.86163853747205      0.25450641122487      0.25019563485283
  C   0.64221540237209      0.55229047019313      0.30096748162316
  Br  -1.88201878468628      1.65420779177738      1.05648697511884
  H   0.82503513314191      0.81980516334868      1.34843822289906
  N   -1.40447820405010      0.00351962042639     -1.15603477785343
  O   -0.57996859190157     -0.03304060280885     -2.06155090547521
  O   -2.60965790059295     -0.16620995997922     -1.24127926476622
  N   -1.05808825107785     -1.05950350925077      1.01574084757374
  O   -1.25525242488958     -2.06008804949851      0.34012045310237
  O   -0.89002440336370     -0.99314984560047      2.22302229324340
  C   0.94325723050596      1.73329541940255     -0.50749315220002
  N   1.23333198267442      2.68644155306801     -1.12872758228887
  C   1.54636830984384     -0.63609252515383     -0.05337483746036
  H   1.36363020328398     -0.99255323619169     -1.06394623403530
  H   1.40114427198484     -1.45160875718533      0.65696807428876
  H   2.58514456422704     -0.31081994377233      0.02246677137727
