16
Coordinates from ORCA-job run
  C   -0.62233791837813     -0.52062505726132      0.29705633821214
  C   0.79115772299694      0.06958044501657      0.32822514537681
  Br  -0.59533674600599     -2.42242487450570      0.49001531462421
  H   1.27032797423809     -0.35284526172167      1.21632150468928
  N   -1.49389201953686      0.01466290694249      1.43257452638598
  O   -2.70024129442021     -0.01894902568503      1.24769153225277
  O   -0.89505703132057      0.36347951885573      2.44040114390928
  N   -1.30735452189794     -0.09301152274103     -0.99972307982566
  O   -1.53814105437118      1.10971851978575     -1.04204071219697
  O   -1.49588103411944     -0.92340860169504     -1.87244925897692
  C   0.77308909592352      1.52534739869280      0.49590944697210
  N   0.85427270500635      2.69166574688086      0.60743915562466
  C   1.58602529254097     -0.29926606045910     -0.93095025947194
  H   1.16134035425694      0.18079731615484     -1.81406411465671
  H   1.60114242622174     -1.37851541913585     -1.08179836924724
  H   2.61188604886576      0.05279397087570     -0.81660831367180
