16
Coordinates from ORCA-job run
  C   -0.76546509949661      0.12849999210661     -0.04951981872579
  C   0.73796594014753     -0.01494721228964      0.19693804420812
  Br  -1.24376509537366      1.70171084088516     -0.99723620547522
  H   0.86791573790906     -1.01094604340767      0.63215224248117
  N   -1.33851093904179     -1.09701447251407     -0.77738919062976
  O   -2.54397491306429     -1.07210269148204     -0.97176736893865
  O   -0.55895817789914     -1.99915975386200     -1.05531288064507
  N   -1.47558702991834      0.05433700658817      1.32235305743536
  O   -2.09200944546107      1.01903065658927      1.73155784022931
  O   -1.30026847706556     -1.02439935776623      1.87798445550997
  C   1.12803701275831      0.97533296014512      1.20270834923606
  N   1.46656146780885      1.77472452691434      1.99388938501303
  C   1.61070865637019      0.12057280773498     -1.05437786026877
  H   2.64438269683639     -0.09973749216720     -0.78151848348669
  H   1.56816042087509      1.13345326223847     -1.45308481661880
  H   1.29580724461504     -0.58935502971329     -1.81737674932428
