16
Coordinates from ORCA-job run
  C   -0.63013869071481     -0.52193063233865      0.27086824372855
  C   0.80010799659131      0.02642690618802      0.32309724867464
  Br  -0.65037903387350     -2.43261858589231      0.34365604059062
  H   1.27598081508794     -0.47326090746596      1.17199436531698
  N   -1.47063141160085     -0.03745392703902      1.45195693013828
  O   -0.85088064880652      0.18439092531179      2.48263754927521
  O   -2.67700964886221      0.01726136379690      1.27246718416367
  N   -1.31911553536820      0.00219579941620     -0.98782683797628
  O   -1.56096714388374     -0.77281312526884     -1.89767300243644
  O   -1.49887510028721      1.21392231433765     -0.96349333563372
  C   0.82283250300914      1.46614469677282      0.59448996816639
  N   0.88210400449141      2.62794123973410      0.75592494801847
  C   1.56971955657356     -0.27536726980307     -0.96884753752547
  H   1.13958891102266      0.26487386308339     -1.81378555608501
  H   1.56470961803325     -1.34345960645159     -1.18567019969631
  H   2.60295380858778      0.05274694561859     -0.84979600871960
