16
Coordinates from ORCA-job run
  C   -0.65357756425378     -0.48205448864097      0.29668656592746
  C   0.78026960002116      0.05412940030656      0.35704306431034
  Br  -0.71059737197519     -2.37168431061440      0.58192298153127
  H   1.20926628929300     -0.34624197605604      1.28024942806107
  N   -1.54569316742257      0.14216989376758      1.36887403287289
  O   -2.74355238028327      0.15627547310944      1.13314491288593
  O   -0.97335984987007      0.50543804729829      2.38697647088383
  N   -1.27020048747018     -0.09379095064315     -1.04635255597336
  O   -1.46839290679067     -0.96022656277792     -1.88101040822594
  O   -1.43992814478523      1.11448768697693     -1.16017670174047
  C   0.81521202695413      1.51552960021165      0.46013835440753
  N   0.93974005289944      2.68174514645964      0.52089187310852
  C   1.60505697957561     -0.40131889826420     -0.85366658200574
  H   1.23674104424496      0.06147006758928     -1.77054455486802
  H   1.57583670645378     -1.48534305755062     -0.96183166345045
  H   2.64117917340888     -0.09158507117207     -0.71234521772486
