16
Coordinates from ORCA-job run
  C   -0.76590247018324      0.12773212274283     -0.04857123619532
  C   0.73831936367956     -0.01397169823927      0.19484618720570
  Br  -1.24534509924323      1.69037505767374     -1.01358209946173
  H   0.86926218041845     -1.00391435813422      0.64344303340477
  N   -1.34291292004497     -1.10508275970447     -0.76044710332794
  O   -0.56419087267755     -2.00766000744271     -1.03845637917339
  O   -2.55014657374435     -1.08344894287128     -0.94432601141910
  N   -1.47105086403629      0.07083197743914      1.32659495054953
  O   -2.07664856922390      1.04469778082093      1.73039436938891
  O   -1.30158946611480     -1.00411949932587      1.89121966723976
  C   1.13195486980089      0.98952100382502      1.18613643027914
  N   1.47244392436418      1.79807663829729      1.96713669932267
  C   1.60761072564836      0.10566436352881     -1.06046648044983
  H   1.28879439999343     -0.61051243251386     -1.81541689715915
  H   2.64141875785850     -0.11467742096180     -0.78875961936731
  H   1.56698261350494      1.11448817486572     -1.46874551083671
