16
Coordinates from ORCA-job run
  C   -0.59850564883456     -0.58080901272785      0.22659344661601
  C   0.77596527126023      0.08255610851105      0.35995056413936
  Br  -0.46497225392542     -2.48745076298869      0.24217607117968
  H   1.25385414983373     -0.39373510806815      1.22107752905739
  N   -1.53195496428224     -0.20528015958006      1.37709269376456
  O   -2.72843600538993     -0.29041690415177      1.14969820124450
  O   -0.98362871682638      0.08148439741741      2.43214744455560
  N   -1.27117052242937     -0.07098557627085     -1.04716710097888
  O   -1.57198085228869      1.11522752681080     -0.98508398325685
  O   -1.38533725203304     -0.82430726498595     -1.99916007900696
  C   0.66684775931008      1.51279032585108      0.66039723457763
  N   0.67592365801581      2.66635463607797      0.88065776869157
  C   1.62708141759977     -0.12038879329244     -0.90015984042484
  H   1.71047564837435     -1.17791887892840     -1.15000947278787
  H   1.20028872307744      0.41655490529310     -1.74881248050878
  H   2.62654958853823      0.27632456103274     -0.71839799686215
