16
Coordinates from ORCA-job run
  C   -0.85217556044171      0.24935274620837      0.28755897985004
  C   0.65369507064711      0.54093347406666      0.29655155243037
  Br  -1.83897560090578      1.62700677757791      1.17011303148753
  H   0.87340684624429      0.77449749780163      1.34501821329257
  N   -1.44329764992223      0.04241728084577     -1.10632357278861
  O   -2.65117676768539     -0.12179859485601     -1.15525398353820
  O   -0.65032539579570      0.03272899769257     -2.04012604943242
  N   -1.02785322200586     -1.08659537527970      1.01952825223712
  O   -1.25146738072335     -2.06589082394473      0.32119677607449
  O   -0.81738166551205     -1.05746635698365      2.22165777287534
  C   0.93292106415712      1.74497848320002     -0.48543634164110
  N   1.20907943991303      2.71108757451352     -1.09286150906296
  C   1.54111330725627     -0.63767550916507     -0.12649332917707
  H   2.58324289769216     -0.31982140103383     -0.06771721657261
  H   1.32832460984896     -0.95519225837800     -1.14396665932661
  H   1.41187000723315     -1.47856251226547      0.55655408329213
