16
Coordinates from ORCA-job run
  C   -0.77691544354993      0.18025441892403      0.03002845229726
  C   0.72438181436332      0.07243172573549      0.29854907061459
  Br  -1.30373102618075      1.82306685495580     -0.76563287661901
  H   0.85263953695692     -0.82549901553484      0.91178889197070
  N   -1.15693819159023     -1.02829872154284     -0.83650349898213
  O   -1.00354601584267     -2.09455563089820     -0.24990996873627
  O   -1.50588934412917     -0.85385755270649     -1.98984324677029
  N   -1.60090601153876     -0.02943495193019      1.30732998040011
  O   -2.80500221127385     -0.13981318023345      1.13742083797187
  O   -0.98449402385715     -0.07943614539635      2.36246026947316
  C   1.18792087762555      1.22272026841814      1.07171122927319
  N   1.62331987740129      2.14557548450616      1.65284948984481
  C   1.52976985674208     -0.06940765493884     -0.99878367671967
  H   2.59207879498895     -0.09743469614429     -0.75350686995654
  H   1.27644974182242     -0.99830916356362     -1.51161308063275
  H   1.35086176806198      0.77299796034948     -1.66734500342904
