16
Coordinates from ORCA-job run
  C   -0.76885268961789      0.12078659357650     -0.01693959940211
  C   0.74431236374165     -0.01493669465888      0.16833493694292
  Br  -1.29617769210665      1.71850407281524     -0.89585962585755
  H   0.90008827868306     -1.02339274835719      0.56496337106641
  N   -1.35841034833327     -1.08540805482470     -0.76243755708925
  O   -2.57172588281035     -1.07075777438793     -0.90079426993700
  O   -0.58057545357106     -1.96343502087670     -1.11219099729247
  N   -1.42386412912607     -0.00281546596534      1.37766959339227
  O   -2.01684467853570      0.94878243706984      1.84804830836524
  O   -1.22984836029945     -1.10141806835278      1.88611089762720
  C   1.16291514834136      0.94553031802770      1.19156605507815
  N   1.52348130820248      1.72128534153095      1.99645465159395
  C   1.56874317430471      0.17266060359060     -1.10881917779788
  H   2.61272742556042     -0.05229079556522     -0.88374997221258
  H   1.50757172973795      1.19966884001500     -1.46605742197100
  H   1.22845980582884     -0.50876358363707     -1.88629919250632
