16
Coordinates from ORCA-job run
  C   -0.87728303673476      0.22120474494472      0.22603193616748
  C   0.61395151089430      0.56321931112899      0.33620349124102
  Br  -1.96785730895296      1.56893679684314      1.02901403866785
  H   0.75293328811071      0.80668680074072      1.39617805495934
  N   -1.36377746755170     -0.01128539329179     -1.20397129761953
  O   -0.50841131866687      0.00187342728572     -2.08093746604188
  O   -2.55905613663721     -0.21750436412031     -1.33461649935542
  N   -1.05819801007207     -1.11653333864225      0.95315315647782
  O   -1.20184593731797     -2.10576515212657      0.24803040032358
  O   -0.93161587579353     -1.07476244716336      2.16655443550114
  C   0.90494839926765      1.77487210960096     -0.42909348247614
  N   1.18560498362494      2.75421245559742     -1.01287022433645
  C   1.56651709102030     -0.58701189694215     -0.01794401301746
  H   2.59133070312766     -0.23391954694592      0.10747280236891
  H   1.41989346403193     -1.42793988802375      0.66167593662656
  H   1.43286565164958     -0.91728361888558     -1.04488126948681
