16
Coordinates from ORCA-job run
  C   -0.77724104151624      0.17875764749133      0.02635340282916
  C   0.72219909539999      0.07091644466672      0.30490752104054
  Br  -1.30002902032131      1.82419714984391     -0.76556805674248
  H   0.84711998313646     -0.83011394958187      0.91416362116884
  N   -1.15022549622881     -1.02674082909765     -0.84928462610673
  O   -1.49820825624035     -0.84662525420531     -2.00182767584289
  O   -0.99453551663781     -2.09542665448088     -0.26845257351511
  N   -1.60985843945422     -0.03845697080078      1.29629258990473
  O   -1.00065448242029     -0.09532366704812      2.35534332829572
  O   -2.81301461817222     -0.14693350361760      1.11738035111700
  C   1.17908298443903      1.21911455430244      1.08513903270776
  N   1.60840948066281      2.14442058136159      1.66676669323922
  C   1.53733509767927     -0.06260548281412     -0.98725912481495
  H   2.59733820733115     -0.09713389525264     -0.73298223407246
  H   1.36726869729013      0.78658947496340     -1.64960921331325
  H   1.28501332505241     -0.98563564573041     -1.51136303589509
