16
Coordinates from ORCA-job run
  C   -0.59885834464831     -0.58047045669861      0.22528798435660
  C   0.77811501169028      0.07810467093290      0.35671980564776
  Br  -0.46983595144779     -2.48778088431347      0.22764610994946
  H   1.25853470831655     -0.40554572831354      1.21232304129584
  N   -1.52606012641315     -0.21047469179851      1.38264797979618
  O   -2.72382303515883     -0.29113677192672      1.16018702474283
  O   -0.97214801650914      0.06743377230332      2.43714789279171
  N   -1.27619320634708     -0.06047059715218     -1.04152063585116
  O   -1.39648492399979     -0.80674748624027     -1.99825306798928
  O   -1.57399223194242      1.12599941389835     -0.96960392837750
  C   0.67468970695067      1.50653962441267      0.66773346152287
  N   0.68819742564712      2.65839477554575      0.89653389605274
  C   1.62248821462738     -0.11844157020090     -0.90891728245785
  H   1.70216009907017     -1.17447084726797     -1.16616852196885
  H   1.19253535803721      0.42486605864504     -1.75194362852219
  H   2.62367531212714      0.27520071817415     -0.72982013098915
