16
Coordinates from ORCA-job run
  C   -0.75310064300248      0.17585803828346     -0.08663860624369
  C   0.72513746089106     -0.06126376797512      0.23032552182472
  Br  -1.08361543022680      1.76055246826613     -1.07753118134254
  H   0.77037671980452     -1.05656631923041      0.68411926481744
  N   -1.37320328012491     -1.02073903320025     -0.82317693010128
  O   -2.56719604416948     -0.92459948456315     -1.06112269856622
  O   -0.64017125077022     -1.96995145251822     -1.06783691829796
  N   -1.52567532014591      0.17233493241023      1.25282332131847
  O   -2.07791250450817      1.18830868572829      1.62858913109158
  O   -1.46004671996394     -0.91035890585577      1.82411446408475
  C   1.13402925341827      0.91751181707812      1.24023970286938
  N   1.48857788098464      1.70536604029781      2.03601598241557
  C   1.66116923396247     -0.00051363511509     -0.98068002652040
  H   2.66313197148755     -0.28980455204300     -0.65916418260010
  H   1.70816605962663      1.00860645882085     -1.38754831554691
  H   1.33233261273677     -0.69374129038388     -1.75252852920280
