16
Coordinates from ORCA-job run
  C   -0.77537926506354      0.18702784703741      0.02628345741558
  C   0.72178205975310      0.05708692904965      0.30618188819682
  Br  -1.27780722078825      1.85392465392332     -0.73332121515493
  H   0.83495941437131     -0.86059889570809      0.89257178568540
  N   -1.15879701817676     -0.99674871172717     -0.87394437370768
  O   -1.50080282116767     -0.78976708035276     -2.02389176381160
  O   -1.01577713409307     -2.07860629361236     -0.31427880766799
  N   -1.61421604336306     -0.04668877185684      1.29005393454454
  O   -1.00795753425690     -0.13480531430077      2.34867279513832
  O   -2.81818867302328     -0.13675881675870      1.10611392388454
  C   1.18851706806957      1.17820665490253      1.11901728623088
  N   1.62758583834612      2.07657774696506      1.73475547783473
  C   1.53968234193392     -0.05363681138249     -0.98631993059120
  H   1.38475617898956      0.81518989288656     -1.62611684264750
  H   1.27567860444461     -0.95827480356474     -1.53581093698140
  H   2.59796420402436     -0.11112822550062     -0.72996667836851
