16
Coordinates from ORCA-job run
  C   -0.76722814207140      0.12596608255647     -0.03591783024532
  C   0.74022604542454     -0.01807002755941      0.18518840055238
  Br  -1.26426790587612      1.72107048925701     -0.93622699601301
  H   0.88021771229205     -1.02450793126187      0.59269068629117
  N   -1.34721476733011     -1.08183660663208     -0.78651102295648
  O   -0.56758950191800     -1.96824786553752     -1.11014961065872
  O   -2.55669071098292     -1.05987890448591     -0.95421807304190
  N   -1.45581372028286      0.01489635391992      1.34428617821608
  O   -2.05769887065846      0.97143330102324      1.79257655385936
  O   -1.27788366736409     -1.08051190755511      1.86514191548031
  C   1.14111555519011      0.94699916886620      1.21125348745647
  N   1.48783928185483      1.72477061309800      2.02030979035740
  C   1.59526066266984      0.15449805468311     -1.07379406192962
  H   2.63311049483090     -0.06973426662503     -0.82124652028259
  H   1.27212097890142     -0.53461905927502     -1.85192132800341
  H   1.54449655532026      1.17777250552800     -1.44346156908213
