16
Coordinates from ORCA-job run
  C   -0.59650487106140     -0.57315472453227      0.24902900164771
  C   0.78336350100721      0.08592019728188      0.34286649340095
  Br  -0.47035779432767     -2.48012000622008      0.29834508757032
  H   1.27588684775543     -0.37652436250046      1.20330588349492
  N   -1.50546156334018     -0.17201837200565      1.41049087296868
  O   -0.93513131837903      0.13215663528181      2.44884762448354
  O   -2.70655990509491     -0.25626087521212      1.20839448426399
  N   -1.29192594468711     -0.08468867033515     -1.02041576730853
  O   -1.58742319400174      1.10366305153092     -0.97445734089887
  O   -1.42700338520898     -0.85482814322441     -1.95606836115104
  C   0.68646185920525      1.52206687924094      0.61835002597644
  N   0.70422635201286      2.67937474867639      0.81743944067569
  C   1.60854388591902     -0.14518758577144     -0.92951055013985
  H   2.61273807491020      0.25150146737474     -0.77573807304517
  H   1.16678079667781      0.37595272872746     -1.78037150370453
  H   1.68336665861325     -1.20785296831257     -1.15950731823424
