16
Coordinates from ORCA-job run
  C   -0.76722558888540      0.12562892489999     -0.03919725619477
  C   0.73964428581344     -0.01562464158224      0.18731061661431
  Br  -1.26185778934129      1.70636876677935     -0.96588432016555
  H   0.87807008235864     -1.01573737887170      0.61051452785630
  N   -1.34577190127815     -1.09394711734107     -0.77244513916577
  O   -2.55466176353367     -1.07382179599478     -0.94495265448861
  O   -0.56540042945452     -1.98547864442096     -1.07985074878248
  N   -1.45897774176909      0.03667166465709      1.34082154462878
  O   -2.05972040846269      1.00124548001428      1.77326257888879
  O   -1.28375300757415     -1.05073319063758      1.87907457531574
  C   1.13923272929098      0.96497774449785      1.19910789246365
  N   1.48506263338677      1.75632732521844      1.99522728761126
  C   1.59734941390861      0.13710198959926     -1.07233548138750
  H   1.27410208641680     -0.56208251698158     -1.84130624604360
  H   2.63419556469560     -0.08599754176810     -0.81485592551351
  H   1.54971183442810      1.15510093193174     -1.45649125163703
