16
Coordinates from ORCA-job run
  C   -0.72849039387765     -0.34258411841596      0.47122431556240
  C   0.79314449391044     -0.16642319008544      0.38872101488509
  Br  -1.25164073930190     -1.16236006768580      2.11589434919965
  H   1.18966217132090     -1.15505780627656      0.64853971235878
  N   -1.52049236466420      0.95286691441008      0.29894432102930
  O   -0.87423743918847      1.95576335608980      0.02054774120533
  O   -2.73011113190876      0.86029058012695      0.42792052108253
  N   -1.11540875113459     -1.23135680876097     -0.71643726273950
  O   -0.75702307106419     -2.39570470323020     -0.63891424275969
  O   -1.64438674361667     -0.67161869279336     -1.66692610497396
  C   1.24313196007367      0.76722713026373      1.42053695189797
  N   1.65688618838218      1.49826482184546      2.24092898246643
  C   1.32320254636432      0.21068736111272     -1.00135634288219
  H   1.09325146019847     -0.57404036054064     -1.72383937447103
  H   2.40918371571728      0.29871545839743     -0.94150993609349
  H   0.91332809878917      1.15733012554277     -1.34427464576761
