16
Coordinates from ORCA-job run
  C   -0.72633942769957     -0.32678177180028      0.48493618756231
  C   0.79494756269197     -0.15511549349749      0.38767047145553
  Br  -1.23990611197451     -1.09923731627080      2.15521748126228
  H   1.19155881803958     -1.13644089037252      0.67349949872306
  N   -1.51779755599941      0.96368504348076      0.27945644850267
  O   -2.72588271964534      0.87975805661402      0.42843413035610
  O   -0.87371352595172      1.95374219587545     -0.04639311350369
  N   -1.12262778970623     -1.24932375843853     -0.67407526656632
  O   -0.75967678303228     -2.40997998993094     -0.56752408525848
  O   -1.66229431712366     -0.71788072023049     -1.63445691488978
  C   1.25120055369655      0.80516131308436      1.39181843942694
  N   1.67112225065406      1.55094780234654      2.19561583913927
  C   1.31908203139875      0.18063305859237     -1.01496827060606
  H   2.40617158801161      0.26033741577946     -0.96357556855323
  H   0.91508399308946      1.12124327653945     -1.38041576310125
  H   1.07807143355073     -0.62074822177136     -1.71523951394937
