16
Coordinates from ORCA-job run
  C   -0.64721523410157     -0.43158754285433      0.50126171430176
  C   0.84549695120687     -0.17018702704796      0.26025837698239
  Br  -0.96187552629592     -1.22510953160232      2.21136666996143
  H   1.32308411894205     -1.15187704124578      0.33996246263331
  N   -1.42586678070191      0.87463309499070      0.33495967179554
  O   -1.75524065096038      1.48646501304420      1.33684582684988
  O   -1.57732164919878      1.20932651175875     -0.83463134518158
  N   -1.22273466909815     -1.40002460607885     -0.53258753388190
  O   -2.43778125498744     -1.39822742676839     -0.64776743742061
  O   -0.41932197376812     -2.12811341063410     -1.10107613882756
  C   1.35194797039025      0.67820767644703      1.34134589646463
  N   1.79473180903424      1.39285001986691      2.16151365612803
  C   1.20204801608982      0.45462085177464     -1.09663743157629
  H   2.28997608715739      0.45911591737431     -1.18551001250901
  H   0.79059731764099     -0.13026159435059     -1.91665252221440
  H   0.84747546865066      1.48116909532580     -1.17165185350560
