16
Coordinates from ORCA-job run
  C   -0.66631242041750     -0.44564900409461      0.46201504323944
  C   0.83536597257438     -0.18885995118106      0.27916631468273
  Br  -1.04228547590053     -1.30560593984525      2.12697967109981
  H   1.30183358355848     -1.17767129718887      0.33193822152983
  N   -1.42869852081235      0.87329256620480      0.32470980336505
  O   -1.54053703939687      1.25678041086439     -0.83425783223806
  O   -1.78535766712480      1.44657662693575      1.34000859819167
  N   -1.21587734607432     -1.36584415344855     -0.62886200886360
  O   -0.40016984599313     -2.07783862550582     -1.20019889253441
  O   -2.42634763490574     -1.34777769515221     -0.78343890434615
  C   1.31496026568238      0.60793250434908      1.41066111650534
  N   1.73847065542808      1.28272931371700      2.27361245294373
  C   1.23975311707997      0.48935113604436     -1.03816713180902
  H   2.32994683337371      0.48844079198315     -1.09188708883077
  H   0.89500602178481      1.52108910945915     -1.08056621114805
  H   0.85024950114342     -0.05694579314131     -1.89471315178755
