16
Coordinates from ORCA-job run
  C   -0.68842311339774     -0.38353953849772      0.48536185947024
  C   0.82359493814384     -0.18311240849840      0.31545906842976
  Br  -1.12268362406454     -1.07490734691853      2.21376374280942
  H   1.26119980552774     -1.17433512463685      0.47081488163284
  N   -1.41029210864684      0.93610136121623      0.20915366550679
  O   -1.48594783762848      1.21326366136510     -0.98263933924317
  O   -1.77189132822981      1.61050501032866      1.15843821865883
  N   -1.23980168575755     -1.38675249686466     -0.52785218126580
  O   -0.43232706229167     -2.16961831002611     -1.01164954739054
  O   -2.44587485332478     -1.35221700521800     -0.71170010635758
  C   1.30057397519333      0.70335590561877      1.37916831598376
  N   1.72360338918532      1.44443628890302      2.18615539708903
  C   1.27432324348925      0.35820511511010     -1.04918186290271
  H   0.95979442003529      1.39008511682764     -1.19567956099701
  H   2.36501321642494      0.32441370953799     -1.07746895089514
  H   0.88813862534169     -0.25588393824724     -1.86014360052872
