16
Coordinates from ORCA-job run
  C   -0.77804058263853      0.17803968857352      0.03363604687062
  C   0.72347792300796      0.07060692222916      0.30111237309717
  Br  -1.31088990611239      1.83223262672071     -0.73293535037004
  H   0.85417681820268     -0.83668636499233      0.89988774243526
  N   -1.15202406756036     -1.01669724382413     -0.85555097604545
  O   -0.99386694212585     -2.09254476797356     -0.28862342559099
  O   -1.50024367658573     -0.82273022555629     -2.00595725447707
  N   -1.60204356614926     -0.05861103691510      1.30593624979963
  O   -0.98577343582380     -0.12367951527521      2.36039249714557
  O   -2.80550149180012     -0.17263329892367      1.13285408812242
  C   1.18332826558690      1.21002453370590      1.09246216040003
  N   1.61611824344461      2.12519895916937      1.68738429914036
  C   1.52992222873180     -0.04849286144141     -0.99798490253517
  H   2.59241754701579     -0.07325262285131     -0.75277744866504
  H   1.34572595144848      0.80153637895763     -1.65570626769068
  H   1.28221669135781     -0.97231117160330     -1.52312983163662
