16
Coordinates from ORCA-job run
  C   -0.71918730771076     -0.35836981681868      0.45852485827635
  C   0.80306612005190     -0.19073387666307      0.36135808869803
  Br  -1.25487699340623     -0.99735569132722      2.17847644646596
  H   1.21241175618128     -1.18585705452454      0.56233640288788
  N   -1.40003094950735      0.96704360366371      0.11333505398053
  O   -1.40960132098846      1.21531268471238     -1.08713042707527
  O   -1.79599123502513      1.67170531974033      1.02624049318387
  N   -1.23864704148571     -1.37659462785528     -0.55703693694266
  O   -2.43296973173352     -1.32447224676492     -0.80279710486882
  O   -0.42356562072347     -2.18652614586075     -0.97931572272256
  C   1.24326149482159      0.71254423656749      1.42688022177937
  N   1.63946619631476      1.46568683269195      2.23633140555449
  C   1.33284209834895      0.30831434418757     -0.99093150504063
  H   2.42261839084366      0.25311770927035     -0.96280333030891
  H   1.04654174725022      1.34193379680581     -1.17749113675267
  H   0.97566239676830     -0.31774906782513     -1.80597680711496
