16
Coordinates from ORCA-job run
  C   -0.62581172838368     -0.57401974787520      0.13071916235661
  C   0.79127551017941     -0.03305660869719      0.34974706232443
  Br  -0.61223854189686     -2.45536762647568     -0.21033200289682
  H   1.25030527989599     -0.69375084771442      1.09111491104238
  N   -1.51668836074885     -0.36674799369798      1.35489738294229
  O   -0.93598103321611     -0.32682066906042      2.43051794620793
  O   -2.71900148863510     -0.32762462862858      1.14658279749340
  N   -1.28095004547428      0.20202980423135     -1.01140894122172
  O   -1.44329200610682     -0.35259752171064     -2.08523717116689
  O   -1.51582751497475      1.36951825570844     -0.72386511228149
  C   0.77512002264187      1.31765278770682      0.91775956729106
  N   0.76523037703972      2.41135152701540      1.34539464963755
  C   1.60859487206288     -0.04552273487030     -0.94860388850733
  H   2.63607298740691      0.24150478285059     -0.72201410058120
  H   1.61413770872776     -1.03817443627558     -1.39830437818587
  H   1.20805396148192      0.67162565749339     -1.66696788445432
