16
Coordinates from ORCA-job run
  C   -0.77908997051525      0.17492051082663      0.01603447096937
  C   0.71791125463381      0.07831978573526      0.31155821552240
  Br  -1.30213885475589      1.80958538227418     -0.79818062876408
  H   0.84118386750867     -0.81599267750011      0.93109524485535
  N   -1.13471732183697     -1.04121804610210     -0.85098406811455
  O   -0.98256485005962     -2.10326439817670     -0.25700653719554
  O   -1.46400965600395     -0.87507317153301     -2.01131200996202
  N   -1.62430857821896     -0.03363863451260      1.27894987101291
  O   -2.82467763340495     -0.15225602346612      1.08802269548366
  O   -1.02632325124633     -0.07450221244482      2.34516156005880
  C   1.16043421267738      1.23561150347500      1.08675148337109
  N   1.57955651033901      2.16548910526551      1.66845780019293
  C   1.54743038569882     -0.06368178272142     -0.97052720054806
  H   2.60502712874205     -0.08831671917980     -0.70529081505012
  H   1.30663958128092     -0.99409865026834     -1.48693102887872
  H   1.37864717516125      0.77711602832845     -1.64379905295344
