14

C	0.0	0.0	0.0
C	-0.516842	-0.082747	-1.427494
Cl	1.819714	0.0	0.0
H	-1.621477	-0.113176	-1.318096
H	-0.284939	-0.921329	0.510831
N	-0.478133	1.224095	0.571758
H	-1.502361	1.140926	0.574847
H	-0.176264	1.264196	1.539367
N	-0.124656	-1.382934	-2.076647
O	0.16021	-1.36966	-3.270321
O	-0.16931	-2.381093	-1.365748
C	-0.09868	1.038515	-2.253279
N	0.226443	1.936015	-2.936014
Cl	-3.434085	0.0	0.0
