14

C	0.0	0.0	0.0
C	-0.506936	-0.522766	-1.355801
Cl	1.781118	0.0	0.0
H	-1.608575	-0.56965	-1.229828
H	-0.332025	-0.714029	0.751295
N	-0.489016	1.298134	0.334469
H	-0.280168	1.958483	-0.407023
H	-1.504479	1.211349	0.427254
N	-0.033087	-1.920803	-1.623045
O	-0.147125	-2.706696	-0.687995
O	0.402936	-2.192625	-2.738885
C	-0.147928	0.357377	-2.455492
N	0.091499	1.130632	-3.306618
Cl	-3.435409	0.0	0.0
