14

C	0.0	0.0	0.0
C	-0.215323	0.021088	-1.558024
Cl	1.840116	0.0	0.0
H	0.360328	-0.813345	-1.962664
H	-0.321882	-0.982776	0.342457
N	-0.526949	1.001286	0.828592
H	-0.383538	1.91162	0.411128
H	-1.537276	0.818754	0.874794
N	0.452337	1.237084	-2.168119
O	0.138978	2.335027	-1.715074
O	1.237642	1.041271	-3.089318
C	-1.526603	-0.035317	-2.213442
N	-2.291365	-0.114476	-3.105938
Cl	-3.384584	0.0	0.0
