15

C	-0.496588	0.009369	-1.429274
C	0.0	0.0	0.0
Cl	-2.174866	-0.485728	-1.629617
H	1.087655	0.0	0.0
H	0.128169	-0.6868	-1.991009
N	-0.254561	1.368674	-2.06618
O	-0.859326	1.613512	-3.100076
O	0.591608	2.06779	-1.527148
N	-0.401122	-1.305516	0.619209
O	-1.045978	-1.29986	1.660518
O	-0.025073	-2.292445	-0.00248
N	-0.529135	1.107043	0.833454
O	-1.491777	1.740817	0.402443
O	0.040352	1.287079	1.902522
Br	3.289093	0.0	0.0
