14

C	-0.496976	0.032605	-1.472577
C	0.0	0.0	0.0
Br	0.339323	1.529012	-2.412058
H	1.094271	0.0	0.0
C	-0.178127	-1.201863	-2.188532
N	0.05246	-2.189753	-2.782532
C	-1.94546	0.247586	-1.492344
N	-3.107706	0.421865	-1.461038
C	-0.494809	-1.233263	0.623674
N	-0.927725	-2.178244	1.173858
N	-0.437283	1.202068	0.677865
H	-1.28001	1.056256	1.216392
H	0.307024	1.524055	1.281392
Cl	3.214871	0.0	0.0
