14

C	-0.418647	0.00379	-1.48601
C	0.0	0.0	0.0
Br	-2.397207	0.050234	-1.626579
H	1.09666	0.0	0.0
C	0.077734	1.206175	-2.152174
N	0.46211	2.179927	-2.686643
C	0.024701	-1.200854	-2.185422
N	0.362869	-2.166441	-2.765842
C	-0.482054	-1.224375	0.647073
N	-0.880605	-2.167634	1.224859
N	-0.43306	1.225494	0.631892
H	-1.326615	1.121512	1.09576
H	0.271925	1.513349	1.300495
Cl	3.180591	0.0	0.0
