18

C	0.0	0.0	0.0
C	-0.481587	0.297733	-1.421483
F	1.407464	0.0	0.0
H	-1.579023	0.324827	-1.351543
C	-0.461242	1.087368	0.946603
H	-0.058787	0.883696	1.942898
H	-1.552851	1.078303	0.985025
H	-0.1121	2.060475	0.604104
C	-0.457413	-1.36949	0.456795
H	-1.548959	-1.409347	0.426069
H	-0.03419	-2.15318	-0.177026
H	-0.120638	-1.534329	1.483701
C	-0.092029	-0.78624	-2.346451
N	0.246108	-1.595379	-3.128682
N	0.013078	1.595504	-1.877466
H	-0.436481	1.836093	-2.752195
H	1.010573	1.524191	-2.042603
Cl	-3.807189	0.0	0.0
