18

C	0.0	0.0	0.0
C	-0.200064	-0.025217	-1.543562
F	1.41071	0.0	0.0
H	0.35631	0.869652	-1.871462
C	-0.50481	1.282987	0.60633
H	-0.189182	1.345626	1.651293
H	-1.598456	1.278188	0.560111
H	-0.109293	2.149569	0.068394
C	-0.51189	-1.228098	0.70293
H	-0.190165	-1.208873	1.748504
H	-1.605248	-1.211747	0.660722
H	-0.136928	-2.129082	0.218396
C	-1.518743	0.121617	-2.172588
N	-2.338655	0.266723	-3.002334
N	0.396698	-1.258567	-2.079513
H	0.304681	-1.253295	-3.088459
H	1.382545	-1.241398	-1.849211
Cl	-3.886611	0.0	0.0
