18

C	0.0	0.0	0.0
C	-0.364562	-0.266689	-1.485322
F	1.397556	0.0	0.0
H	0.430596	-0.933623	-1.841144
C	-0.507256	1.32185	0.524478
H	-0.085404	2.154258	-0.04158
H	-0.22404	1.431112	1.574643
H	-1.59837	1.343672	0.45164
C	-0.451898	-1.159791	0.862768
H	-1.539793	-1.194388	0.923498
H	-0.032741	-1.030364	1.86487
H	-0.094735	-2.103897	0.446272
C	-0.230224	0.974877	-2.286568
N	-0.172688	1.916024	-2.98913
N	-1.630768	-0.946008	-1.640571
H	-1.879865	-1.010031	-2.619534
H	-2.408693	-0.493205	-1.150057
Cl	-4.230401	0.0	0.0
