18

C	0.0	0.0	0.0
C	-0.323019	0.047836	-1.520813
F	1.402712	0.0	0.0
H	0.299915	-0.747872	-1.949646
C	-0.499529	1.203371	0.764695
H	-0.100804	2.126147	0.338097
H	-1.59253	1.223542	0.73828
H	-0.178173	1.132463	1.807191
C	-0.493181	-1.296494	0.602152
H	-1.584616	-1.28427	0.644692
H	-0.097808	-1.400936	1.615092
H	-0.156391	-2.151175	0.008504
C	0.20136	1.307892	-2.082567
N	0.596783	2.314895	-2.536949
N	-1.678077	-0.157541	-1.977727
H	-1.944869	-1.120009	-1.811349
H	-2.360646	0.377728	-1.440644
Cl	-4.177788	0.0	0.0
