18

C	0.0	0.0	0.0
C	-0.474131	0.302159	-1.423435
F	1.40739	0.0	0.0
H	-1.571893	0.32739	-1.365493
C	-0.458543	1.087159	0.947443
H	-0.083102	0.863455	1.949496
H	-1.550399	1.10557	0.963193
H	-0.078226	2.054714	0.62282
C	-0.461367	-1.36859	0.450567
H	-1.553622	-1.394939	0.446798
H	-0.098646	-1.553141	1.464822
H	-0.06532	-2.146438	-0.206216
C	-0.076157	-0.78139	-2.347219
N	0.255621	-1.588368	-3.135745
N	0.024389	1.600483	-1.872875
H	-0.411038	1.839093	-2.755307
H	1.023725	1.530243	-2.024457
Cl	-3.812118	0.0	0.0
