15

C	0.0	0.0	0.0
C	-0.522328	-0.004707	-1.482552
Br	1.962928	0.0	0.0
H	-0.134319	0.893154	-1.992088
N	-0.434272	1.216526	0.761097
O	-0.035299	1.127952	2.010095
O	0.004985	2.292157	0.143446
C	-0.497983	-1.271045	0.7352
N	-1.764531	-1.257643	0.957291
N	-2.008991	0.088728	-1.575309
O	-2.422861	1.264471	-1.118263
O	-2.401304	-0.132689	-2.810897
C	0.071545	-1.200098	-2.276145
N	1.091334	-1.044301	-2.901916
H	-1.567987	0.0	0.0
