15

C	0.0	0.0	0.0
C	-0.31427	-0.084078	-1.537441
Br	1.91247	0.0	0.0
H	-1.391273	-0.237039	-1.652435
N	-0.305678	1.636572	0.821008
O	0.646953	2.317449	1.171273
O	-1.476514	1.899153	0.952391
C	-0.438089	-1.129657	0.769493
N	-0.749602	-1.998139	1.509718
N	0.283711	-1.289869	-2.256906
O	-0.231141	-2.349794	-1.903159
O	1.004861	-1.138187	-3.243659
C	0.028868	1.160851	-2.214985
N	0.267443	2.200623	-2.707194
H	-1.668448	0.0	0.0
