15

C	0.0	0.0	0.0
C	-0.510633	0.008843	-1.491514
Br	1.966993	0.0	0.0
H	0.03725	0.799567	-2.018731
N	-0.431245	1.234408	0.721891
O	-0.011805	1.24359	1.950566
O	-0.096359	2.300153	0.03885
C	-0.449262	-1.247652	0.807994
N	0.044435	-1.469552	1.918259
N	-1.945202	0.321917	-1.54731
O	-2.26978	0.617937	-2.809754
O	-2.687502	-0.710705	-1.108262
C	-0.132012	-1.307052	-2.23906
N	1.003321	-1.417075	-2.686899
H	-1.550463	0.0	0.0
