19

C	0.0	0.0	0.0
C	-0.520396	-0.067245	-1.44759
Br	1.963905	0.0	0.0
H	-1.618654	0.008379	-1.30226
N	-0.51068	1.239098	0.523887
H	-0.216823	1.320226	1.49337
H	-1.54469	1.090011	0.513487
C	-0.421629	-1.229643	0.792802
H	0.023688	-2.147924	0.403992
H	-1.517588	-1.267643	0.731849
H	-0.109741	-1.108454	1.834206
N	-0.305313	-1.428219	-2.035805
O	0.777237	-1.672415	-2.577008
O	-1.228852	-2.238424	-1.948029
C	0.059598	0.982391	-2.371485
H	0.023577	1.944576	-1.861662
H	-0.519388	1.038051	-3.297273
H	1.093752	0.742975	-2.617647
H	-3.112553	0.0	0.0
