19

C	0.0	0.0	0.0
C	-0.534973	-0.122426	-1.446502
Br	1.96679	0.0	0.0
H	-1.618399	-0.298725	-1.256895
N	-0.522031	1.176717	0.634073
H	-0.315714	1.99818	0.076028
H	-1.553918	1.019963	0.607743
C	-0.424396	-1.187002	0.851162
H	-0.108092	-0.994234	1.877537
H	0.002785	-2.123651	0.499437
H	-1.520256	-1.222956	0.801179
N	-0.003172	-1.325729	-2.14782
O	0.869741	-1.169725	-3.007375
O	-0.468116	-2.423904	-1.833579
C	-0.34081	1.103637	-2.313254
H	0.695621	1.447122	-2.310368
H	-0.622323	0.879515	-3.343433
H	-1.002496	1.894067	-1.95674
H	-3.081629	0.0	0.0
