19

C	0.0	0.0	0.0
C	-0.236366	0.000738	-1.561001
Br	1.991725	0.0	0.0
H	0.312742	-0.84994	-1.98138
N	-0.276707	1.117656	0.854699
H	-1.275703	1.239685	0.807737
H	0.223984	1.936033	0.567191
C	-0.207484	-1.393913	0.683363
H	0.27127	-1.306328	1.665583
H	-1.250589	-1.675715	0.810846
H	0.360985	-2.158354	0.131137
N	0.478307	1.174184	-2.228495
O	1.154211	0.950096	-3.239072
O	0.295544	2.313408	-1.792713
C	-1.612467	0.073946	-2.205318
H	-2.154663	0.947958	-1.883475
H	-1.450217	0.089118	-3.302169
H	-2.229432	-0.770516	-1.915596
H	-2.486019	0.0	0.0
