15
Coordinates from ORCA-job run
  C   -0.92020916631200      0.18295465134002     -0.11135101159431
  C   0.52527910349236     -0.17152450955010     -0.52743777032106
  Br  -2.03782925602420      0.53774238932112     -1.64990438301714
  H   0.44466966040129     -0.91700349027245     -1.32529185730149
  C   -0.92786955670104      1.32565300508423      0.78614890464925
  N   -0.85582537991706      2.28292908530979      1.46431827355602
  N   -1.53744738866317     -1.01863283264879      0.60320605057781
  O   -2.29073510259178     -0.79350747920431      1.53827744174404
  O   -1.24088158682374     -2.11478287908195      0.14280056776071
  N   1.17280920119047     -0.67141658890658      0.67989499219565
  H   2.15758982233381     -0.44332712718864      0.66120802326664
  H   1.06993458836801     -1.67472505631878      0.76737338980079
  N   1.12210691558349      1.01753582123374     -1.06623492854107
  H   1.38904444185250      1.65827414192256     -0.32722014217257
  H   1.92836370381109      0.79883086896014     -1.63478755060327
