15
Coordinates from ORCA-job run
  C   -0.88578481471137      0.25311934153774     -0.05094532769509
  C   0.53234944600302     -0.19901375305199     -0.46137643953864
  Br  -1.88453381077069      0.95248868067380     -1.56362672206885
  H   0.38816849463789     -0.97324257184724     -1.22454591592070
  C   -0.83517429439618      1.24892466100313      1.00459208943150
  N   -0.74853294067382      2.06731682540473      1.84389495297219
  N   -1.62591318604591     -0.99254489233470      0.44639173129751
  O   -2.12560491993466     -0.93888522276857      1.55955334800120
  O   -1.63792204335163     -1.93819133740192     -0.32657660554963
  N   1.09734608163565     -0.81229069811457      0.71226840852652
  H   1.56661566281820     -0.11879566840951      1.28305741269395
  H   1.73183914920493     -1.56389146169477      0.48300871603637
  N   1.28240426226065      0.96689386195418     -0.89077307736207
  H   2.24038955483767      0.68999792219170     -1.06920709542673
  H   0.90335335848625      1.35711431285799     -1.74571547539752
