15
Coordinates from ORCA-job run
  C   -0.76790423924102      0.39808196918111      0.22088646318182
  C   0.61134751496508     -0.27122287621609      0.04062838466866
  Br  -0.86175231428175      2.07533955018152     -0.73833465173307
  H   0.55048078599417     -1.18405748683430      0.64029332150459
  C   -1.07442857403035      0.63122487738937      1.62200440571640
  N   -1.33787850371748      0.80781826328765      2.75387721917690
  N   -1.80840393150291     -0.60136157226839     -0.33057937867616
  O   -2.45121029544031     -0.31624959468533     -1.32140622313191
  O   -1.84873293794640     -1.64012581673964      0.31605145195981
  N   1.60409339324876      0.58439050957250      0.65065923545457
  H   2.45482281685560      0.06768312310910      0.83273115926317
  H   1.82238074217606      1.37427333604021      0.05510615774073
  N   0.72353271267596     -0.67502793195765     -1.34417758857779
  H   1.45470526010014     -1.36549173501589     -1.45477721121778
  H   0.92994757014445      0.11572538495583     -1.94296274532995
