16

C	-0.50522	-0.013764	-1.413174
C	0.0	0.0	0.0
Br	0.479768	-1.273028	-2.487211
H	1.096792	0.0	0.0
N	-2.003882	-0.344414	-1.452396
O	-2.383508	-1.438969	-1.837972
O	-2.706635	0.552056	-0.988835
N	-0.392662	1.3342	-2.096958
O	0.399909	2.131954	-1.608769
O	-1.055762	1.485416	-3.118141
N	-0.306624	-1.284715	0.619734
H	-1.03806	-1.198829	1.313341
H	0.551627	-1.595436	1.071557
C	-0.471725	1.132002	0.775985
N	-0.814877	1.984029	1.513289
H	2.47465	0.0	0.0
