16

C	-0.531096	-0.010258	-1.372213
C	0.0	0.0	0.0
Br	-2.549135	0.193479	-1.564415
H	1.093157	0.0	0.0
N	0.056901	1.083803	-2.227458
O	0.682033	1.963709	-1.642443
O	-0.112469	0.983939	-3.438264
N	-0.107499	-1.317534	-2.031224
O	-0.91186	-2.221291	-2.165779
O	1.087564	-1.333502	-2.313682
N	-0.283534	-1.261913	0.657992
H	-1.122675	-1.215872	1.222165
H	0.520501	-1.474067	1.245131
C	-0.419913	1.172572	0.750165
N	-0.762279	2.051086	1.455316
H	2.395389	0.0	0.0
