16

C	-0.469861	-0.009059	-1.429652
C	0.0	0.0	0.0
Br	0.357679	1.395626	-2.43923
H	1.094463	0.0	0.0
N	-0.132387	-1.376421	-2.036451
O	1.031829	-1.567823	-2.334742
O	-1.058868	-2.176093	-2.103104
N	-1.999169	0.097232	-1.608058
O	-2.426459	0.26964	-2.741629
O	-2.67247	-0.048203	-0.592937
N	-0.314548	-1.237423	0.674388
H	-1.171364	-1.185146	1.208313
H	0.479933	-1.462182	1.269527
C	-0.434365	1.218122	0.667767
N	-0.764093	2.175384	1.268261
H	2.523093	0.0	0.0
