16

C	-0.494997	-0.036827	-1.422541
C	0.0	0.0	0.0
Br	0.240376	1.431098	-2.435411
H	1.097743	0.0	0.0
N	-0.089821	-1.31663	-2.135839
O	-0.618225	-1.501276	-3.22819
O	0.764692	-2.010243	-1.603954
N	-2.019469	-0.006357	-1.47282
O	-2.564683	-1.089894	-1.271204
O	-2.578339	1.080529	-1.57733
N	-0.3838	-1.186412	0.742341
H	0.467285	-1.55894	1.156284
H	-1.058755	-0.980384	1.464653
C	-0.425065	1.235679	0.638624
N	-0.756302	2.188232	1.245919
H	2.487672	0.0	0.0
