16

C	-0.506241	0.052679	-1.383099
C	0.0	0.0	0.0
Br	-2.455482	-0.069865	-1.528117
H	1.113932	0.0	0.0
N	0.020074	1.134113	-2.295722
O	-0.702552	1.549117	-3.202617
O	1.222792	1.32794	-2.165981
N	-0.181486	-1.25108	-2.286129
O	-0.073764	-1.067291	-3.480837
O	-0.188031	-2.315207	-1.726744
N	-0.457052	-1.158213	0.714079
H	0.098204	-1.240298	1.546209
H	-1.422132	-1.07949	0.968142
C	-0.214624	1.168277	0.848397
N	0.011435	1.661007	1.964206
H	2.487799	0.0	0.0
