16

C	-0.526092	-0.031165	-1.406656
C	0.0	0.0	0.0
Br	0.24481	1.368268	-2.464799
H	1.094458	0.0	0.0
N	-0.202978	-1.39818	-2.019544
O	-1.126148	-2.201864	-2.058785
O	0.953104	-1.582825	-2.353531
N	-2.063874	0.066514	-1.521887
O	-2.535723	0.227841	-2.638003
O	-2.695915	-0.073151	-0.480959
N	-0.295688	-1.231783	0.696557
H	-1.127069	-1.172059	1.263509
H	0.519578	-1.452999	1.260991
C	-0.418042	1.223314	0.669497
N	-0.717311	2.188461	1.273119
H	2.511872	0.0	0.0
