15

C	-0.505474	-0.023015	-1.435503
C	0.0	0.0	0.0
Cl	0.388453	1.272129	-2.357528
H	1.093502	0.0	0.0
N	-0.106652	-1.326617	-2.126347
O	-0.623049	-1.51168	-3.226591
O	0.684058	-2.065697	-1.554272
N	-1.907177	0.065909	-1.556091
H	-2.255635	0.864938	-1.043247
H	-2.179481	0.117302	-2.529141
C	-0.493253	-1.126937	0.770431
N	-0.834384	-2.037348	1.434343
C	-0.43137	1.241082	0.620289
N	-0.766036	2.244945	1.136584
H	2.441528	0.0	0.0
