15

C	-0.502767	-0.025563	-1.435558
C	0.0	0.0	0.0
Cl	0.402771	1.26223	-2.35328
H	1.093435	0.0	0.0
N	-0.111093	-1.332203	-2.123293
O	-0.613953	-1.512594	-3.230058
O	0.663276	-2.077512	-1.543288
N	-1.904029	0.075408	-1.561251
H	-2.169887	0.145316	-2.537695
H	-2.245272	0.874751	-1.041364
C	-0.50214	-1.119705	0.775902
N	-0.85604	-2.016082	1.450807
C	-0.429041	1.245595	0.613454
N	-0.76004	2.253128	1.124187
H	2.455486	0.0	0.0
