15

C	-0.508251	0.015437	-1.433567
C	0.0	0.0	0.0
Cl	0.278403	1.33399	-2.338331
H	1.093734	0.0	0.0
N	-0.02564	-1.285929	-2.143698
O	-0.571518	-1.523839	-3.219706
O	0.845629	-1.957972	-1.60714
N	-1.910268	0.155675	-1.545995
H	-2.195341	0.032007	-2.510947
H	-2.370186	-0.528315	-0.95634
C	-0.499781	-1.168739	0.698614
N	-0.897439	-2.120326	1.267019
C	-0.426156	1.206868	0.687992
N	-0.696788	2.177644	1.294116
H	2.451498	0.0	0.0
