15

C	-0.49475	-0.002906	-1.438787
C	0.0	0.0	0.0
Cl	0.33326	1.276479	-2.363439
H	1.093753	0.0	0.0
N	-0.039708	-1.329967	-2.116473
O	0.789203	-2.025049	-1.545311
O	-0.566778	-1.565797	-3.203223
N	-1.891274	0.172029	-1.568147
H	-2.169582	0.036912	-2.533298
H	-2.377653	-0.484866	-0.967801
C	-0.519773	-1.143165	0.724064
N	-0.928613	-2.076678	1.314789
C	-0.413678	1.228998	0.657676
N	-0.682181	2.214333	1.240898
H	2.449549	0.0	0.0
