14

C	0.0	0.0	0.0
C	-0.637919	-0.038598	-1.378987
Cl	1.793109	0.0	0.0
H	-0.444834	0.903604	-1.899921
H	-1.753561	-0.086782	-1.101191
C	-0.501414	1.236146	0.730945
H	-0.171556	2.129501	0.192948
H	-1.600873	1.155932	0.725056
H	-0.11538	1.264806	1.751659
C	-0.363399	-1.215917	0.748154
N	-0.545957	-2.209384	1.348336
C	-0.225458	-1.157513	-2.205546
N	0.088959	-2.055541	-2.896437
H	-3.073632	0.0	0.0
