14

C	0.0	0.0	0.0
C	-0.645746	0.031076	-1.376028
Cl	1.79396	0.0	0.0
H	-1.767697	0.015883	-1.077507
H	-0.407455	-0.866133	-1.953523
C	-0.480095	1.181592	0.829766
H	-0.080349	1.125855	1.844093
H	-1.578641	1.113535	0.833533
H	-0.149859	2.11041	0.359149
C	-0.375203	-1.266244	0.652104
N	-0.548934	-2.297992	1.186889
C	-0.305421	1.220279	-2.130238
N	-0.058572	2.185641	-2.755696
H	-3.037198	0.0	0.0
