14

C	0.0	0.0	0.0
C	-0.385054	0.030482	-1.516568
Cl	1.796427	0.0	0.0
H	-0.002751	-0.883772	-1.996953
H	0.113489	0.891582	-1.991004
C	-0.305642	1.346405	0.784007
H	0.117614	1.261156	1.791041
H	-1.381914	1.502231	0.883832
H	0.119888	2.195871	0.239985
C	-0.623248	-1.133847	0.63968
N	-0.777288	-2.202945	1.190823
C	-1.883024	0.143463	-1.63222
N	-3.036653	0.030553	-2.04821
H	-1.899886	0.0	0.0
