14

C	0.0	0.0	0.0
C	-0.307308	-0.104882	-1.513933
Cl	1.796519	0.0	0.0
H	0.135694	-1.036083	-1.88353
H	0.226957	0.718435	-2.001027
C	-0.287467	1.388994	0.615984
H	-1.356643	1.565935	0.654948
H	0.196142	2.14968	-0.001657
H	0.150231	1.433544	1.615363
C	-0.65058	-1.087392	0.729717
N	-0.670088	-2.112717	1.325575
C	-1.721954	-0.06424	-1.931864
N	-2.588724	-0.261455	-2.713529
H	-2.212905	0.0	0.0
