14

C	0.0	0.0	0.0
C	-0.30736	-0.101081	-1.500917
Cl	1.796465	0.0	0.0
H	0.225684	0.724385	-1.989655
H	0.136594	-1.031368	-1.876888
C	-0.298356	1.384654	0.608665
H	0.129157	1.42896	1.614305
H	0.183243	2.149925	-0.006282
H	-1.370616	1.545139	0.643104
C	-0.594366	-1.099182	0.750251
N	-0.608608	-2.112624	1.369859
C	-1.720617	-0.064901	-1.912395
N	-2.541949	-0.279437	-2.739925
H	-2.251179	0.0	0.0
