19

C	-0.521566	-0.021301	-1.439855
C	0.0	0.0	0.0
Br	0.290223	1.466727	-2.492053
H	1.096094	0.0	0.0
C	-0.109898	-1.243216	-2.13492
N	0.158195	-2.265723	-2.64948
C	-2.035789	0.135519	-1.571943
H	-2.348116	1.091572	-1.150802
H	-2.339105	0.098588	-2.620227
H	-2.533962	-0.674008	-1.030112
C	-0.393889	-1.273464	0.747305
H	0.111056	-1.254504	1.718431
H	-0.042803	-2.167869	0.22714
H	-1.473962	-1.360345	0.923777
C	-0.449876	1.232153	0.77424
H	-0.292404	2.148601	0.200941
H	0.174947	1.304989	1.669419
H	-1.499627	1.183695	1.088446
H	2.864922	0.0	0.0
