19

C	-0.394202	0.063243	-1.482836
C	0.0	0.0	0.0
Br	0.034096	-1.652571	-2.399608
H	1.097317	0.0	0.0
C	-1.837896	0.231076	-1.658021
N	-2.995161	0.42105	-1.755063
C	0.394409	1.146126	-2.217947
H	0.238144	1.079963	-3.296213
H	0.071788	2.133192	-1.87916
H	1.45117	1.005099	-1.965926
C	-0.546488	-1.209037	0.741584
H	-1.642991	-1.248189	0.716429
H	-0.15119	-2.139603	0.334033
H	-0.231066	-1.150709	1.787138
C	-0.430612	1.286274	0.709873
H	-1.519153	1.420909	0.718903
H	0.035967	2.171076	0.273814
H	-0.082383	1.231026	1.745213
H	2.951573	0.0	0.0
