19

C	-0.29625	-0.065843	-1.485373
C	0.0	0.0	0.0
Br	-2.272862	-0.437106	-1.873682
H	1.100284	0.0	0.0
C	-0.071559	1.224317	-2.133019
N	0.124082	2.251225	-2.668942
C	0.533151	-1.128505	-2.183796
H	0.428853	-1.065501	-3.268599
H	0.233705	-2.122981	-1.857203
H	1.574444	-0.949507	-1.873009
C	-0.416298	-1.254351	0.755566
H	-0.021121	-2.163069	0.296882
H	0.005951	-1.200723	1.762745
H	-1.504653	-1.343535	0.834433
C	-0.520343	1.251204	0.684661
H	-0.184502	1.251747	1.725249
H	-1.615754	1.294392	0.674416
H	-0.128388	2.157317	0.217179
H	2.833616	0.0	0.0
