11

C	-0.538944	-0.057639	-1.411138
C	0.0	0.0	0.0
F	-0.391099	1.171093	-2.057977
H	1.092348	0.0	0.0
H	-1.609534	-0.292766	-1.400988
H	-0.005907	-0.815982	-1.990401
H	-0.342649	0.930585	0.472006
N	-0.453045	-1.215491	0.693997
H	-1.285417	-1.01966	1.234583
H	0.271556	-1.512998	1.33499
Br	3.788121	0.0	0.0
