11

C	-0.466036	-0.057474	-1.423814
C	0.0	0.0	0.0
F	-1.873973	0.041333	-1.477634
H	1.094567	0.0	0.0
H	-0.062322	0.770556	-2.010894
H	-0.194151	-1.013425	-1.871987
H	-0.327929	0.956948	0.435223
N	-0.483129	-1.172609	0.733033
H	0.071451	-1.285316	1.572168
H	-1.446191	-1.025505	1.005078
Br	3.771113	0.0	0.0
