15

C	-0.194668	-0.003967	-1.512001
C	0.0	0.0	0.0
Cl	0.034604	1.71392	-2.133892
H	1.098697	0.0	0.0
N	0.671878	-0.947583	-2.041384
H	1.602059	-0.808944	-1.608916
H	0.693794	-0.937743	-3.052665
N	-1.633368	-0.31476	-1.959918
O	-2.536475	-0.071761	-1.169005
O	-1.764166	-0.764231	-3.094257
C	-0.429071	-1.263083	0.574327
N	-0.708948	-2.296962	1.06014
C	-0.537614	1.13104	0.724076
N	-0.896347	2.064662	1.341568
H	2.508298	0.0	0.0
