15

C	-0.181056	0.019176	-1.513747
C	0.0	0.0	0.0
Cl	0.030054	1.755087	-2.099126
H	1.09773	0.0	0.0
N	0.706009	-0.898628	-2.050975
H	1.629849	-0.755897	-1.60283
H	0.741818	-0.869581	-3.060262
N	-1.606854	-0.303485	-1.982875
O	-2.519603	-0.114241	-1.188816
O	-1.7174	-0.712464	-3.13395
C	-0.426415	-1.27168	0.557158
N	-0.725923	-2.301768	1.038545
C	-0.544388	1.118119	0.73812
N	-0.92173	2.018227	1.393836
H	2.512918	0.0	0.0
