15

C	-0.499901	0.016935	-1.437313
C	0.0	0.0	0.0
Cl	0.404388	-1.277081	-2.347316
H	1.093512	0.0	0.0
N	-1.901031	-0.080996	-1.564316
H	-2.246831	-0.876712	-1.043344
H	-2.166881	-0.150223	-2.538667
N	-0.105781	1.321063	-2.129812
O	0.666885	2.06956	-1.552822
O	-0.605688	1.495829	-3.236836
C	-0.428773	-1.241245	0.62145
N	-0.748348	-2.248038	1.140206
C	-0.502607	1.12551	0.765685
N	-0.85353	2.027505	1.434065
H	2.455549	0.0	0.0
