15

C	-0.491136	-0.022486	-1.439667
C	0.0	0.0	0.0
Cl	0.299131	-1.35401	-2.319946
H	1.093626	0.0	0.0
N	-1.894098	-0.15704	-1.569026
H	-2.162979	-0.048861	-2.540228
H	-2.359627	0.539181	-0.996203
N	0.003875	1.270337	-2.154063
O	0.812932	1.984064	-1.580632
O	-0.47829	1.461885	-3.270924
C	-0.423353	-1.211985	0.682706
N	-0.698193	-2.18689	1.280729
C	-0.515763	1.162065	0.698509
N	-0.924046	2.110123	1.266192
H	2.459192	0.0	0.0
