14
Coordinates from ORCA-job run
  C   0.76300072889976      0.26272622217609      0.66262669661098
  C   -0.44243850566447      0.20406986952016     -0.28288793029279
  Cl  0.50316798850877     -0.60226006583392      2.16080809446714
  H   -0.12141125825390      0.73986770632499     -1.18541247216840
  H   1.03679052427380      1.29234286240597      0.89488692267998
  N   1.94672023043017     -0.29217458580064     -0.10413086432283
  O   2.43132511227656     -1.36561662024832      0.20688987051948
  O   2.29861087319816      0.43247783207577     -1.03217801019236
  N   -1.58576411557732      0.81207731827000      0.38737025654629
  H   -2.38478610728310      0.77460577078728     -0.23447840795710
  H   -1.40805802369429      1.78865834754200      0.59917127751006
  N   -0.66877192534306     -1.16527479562385     -0.65832574836597
  H   -1.22055555260059     -1.22785267512957     -1.50275176076141
  H   -1.14682996917049     -1.65364718646597      0.08941207572693
