14
Coordinates from ORCA-job run
  C   0.79068709704166      0.25475677282223      0.63195841487782
  C   -0.47319515061261      0.19776160833682     -0.23386417737128
  Cl  0.69054472625909     -0.75044927450141      2.06010767943492
  H   -0.25035243714170      0.83003320670412     -1.10292585111611
  H   1.01811991142322      1.27656468871831      0.93734468398762
  N   1.94801262502531     -0.15305828482934     -0.25758811745261
  O   2.51803322177175     -1.21421057432061     -0.07596814804700
  O   2.18812448427314      0.66930809054559     -1.13866905654675
  N   -1.60079800025130      0.66746091930453      0.56231729697107
  H   -1.46554818085417      1.62964328357105      0.85565144362664
  H   -2.43745095528111      0.63626976371626     -0.00824827829333
  N   -0.64230378026088     -1.14593814002200     -0.71673595831295
  H   -1.24685643077987     -1.17175520328762     -1.52621855922690
  H   -1.03701713061253     -1.72738685675794      0.01283862746886
