14
Coordinates from ORCA-job run
  C   0.86223001804362      0.48309717808564      0.34893295198829
  C   -0.54181021378456     -0.10953549230250      0.24838486860475
  Cl  1.23677173082589      1.08498695013235      1.95682979960474
  H   -0.61422998228391     -0.87082498394879      1.02881128440678
  H   1.02500861419674      1.28635897990887     -0.37038035798743
  N   1.84803855183846     -0.59210031699784     -0.02008718853337
  O   1.86709335278937     -1.59042134860759      0.68605355893070
  O   2.53166593129216     -0.38319887419747     -1.01659275149808
  N   -0.60996524932066     -0.79143394402657     -1.03464838311051
  H   -0.72803409004018     -0.12960958280799     -1.79318294591947
  H   -1.38374088190570     -1.44254846015635     -1.05570461952491
  N   -1.50292226297727      0.93381363868256      0.54757736661445
  H   -1.56895187807889      1.58780950328457     -0.22438636766159
  H   -2.42015364059508      0.53460675295113      0.69939278408563
