14
Coordinates from ORCA-job run
  C   0.76638938987247      0.12447241059157      0.81469725982714
  C   -0.66594932810312     -0.10737725910009      0.32236357481679
  Cl  1.33807626548306     -1.13960804088600      1.88580530940876
  H   -1.29187049703727     -0.06947196901251      1.22650352722927
  H   0.84560209410272      1.07659375831279      1.33709531995756
  N   1.68690742108842      0.26920888650783     -0.36932183202698
  O   1.84718689154227     -0.71059676432073     -1.08621366696924
  O   2.17683887671571      1.38177673946990     -0.53444174121316
  N   -0.83669740911062     -1.41276818334943     -0.24538595448483
  H   -1.81726017776266     -1.62805950699439     -0.36093516192921
  H   -0.36223265275785     -1.47913820626600     -1.13658268182807
  N   -0.92987710837147      0.97055449937051     -0.63137215391858
  H   -1.84814490266085      0.84143063217686     -1.03773262031494
  H   -0.90996886300082      1.88198300349968     -0.18547917855449
