14
Coordinates from ORCA-job run
  C   0.77898739029898      0.50168373770532      0.22761570081152
  C   -0.58328887620790     -0.20072378600328      0.19735239682835
  Cl  1.05527627423877      1.34413942890455      1.75282208765828
  H   -0.57927755296351     -0.91524203141958      1.02470461199215
  H   0.89395047720235      1.21804980963125     -0.58618572136893
  N   1.85614441084113     -0.52663225183698      0.02430025023449
  O   2.54054319804011     -0.40229413147765     -0.98591616529768
  O   1.93593760844877     -1.41495223722343      0.86216880172556
  N   -0.61379229960710     -0.94543054467314     -1.04062908507814
  H   -1.43347366917652     -1.53997048508897     -1.04429089667550
  H   -0.69178940675248     -0.31581743807403     -1.83245200012267
  N   -1.72138780171368      0.67991232479133      0.37915154820824
  H   -1.70015338537615      1.44215619304459     -0.28964506946756
  H   -1.73767636727278      1.07612141172002      1.31100354055190
