14
Coordinates from ORCA-job run
  C   0.82041905434913      0.50043511051647      0.34145226632321
  C   -0.55198166207321     -0.11772596569439      0.10195940415478
  Cl  0.98021674159108      1.17652225970170      1.96712147828109
  H   -0.68329132748127     -0.90517295387328      0.85483946688581
  H   1.03665358968514      1.28093842439305     -0.38518600659132
  N   1.86029860692862     -0.56478153657657      0.15008660953337
  O   1.76317058575962     -1.56488789577077      0.84986466126970
  O   2.70922042998033     -0.34847735546377     -0.70725027512534
  N   -0.49837691026848     -0.74428488937000     -1.19741300578529
  H   -1.13768581049742     -1.52346846626495     -1.26325098316150
  H   -0.72330621982174     -0.06262638670695     -1.91232014909180
  N   -1.54492381095499      0.94889415287502      0.15275967185921
  H   -1.57113468268463      1.37738043124185      1.07115278330634
  H   -2.45927858451218      0.54925507099259     -0.02381592185825
