14
Coordinates from ORCA-job run
  C   0.81804676160413      0.33301738348683      0.57542051175535
  C   -0.44462631494451      0.28944011278186     -0.27993216092544
  Cl  0.62320263736381     -0.53703534396349      2.09339958349155
  H   -0.20827867533096      0.88114687696346     -1.16820469719540
  H   1.09210642496972      1.36175783240416      0.79816997175349
  N   1.95327526374785     -0.23949390451222     -0.24668647011059
  O   2.25229002077480      0.47186433789927     -1.20163104266885
  O   2.45373553440297     -1.30980654985423      0.05245191345205
  N   -1.49070393365073      0.99802429500416      0.43887427521570
  H   -2.27497810002526      1.16963167739825     -0.17787182960235
  H   -1.82133267894373      0.44404685171972      1.22044110481839
  N   -0.65284532173192     -1.07590431892231     -0.71875990668770
  H   -0.93627931257477     -1.66949189765575      0.05163294469874
  H   -1.36461230566139     -1.11619735274970     -1.43630419799494
