14
Coordinates from ORCA-job run
  C   0.74462195251667      0.07388306443385      0.80121044847683
  C   -0.72788768627096     -0.13504853019788      0.40164651092730
  Cl  1.43369909975448     -1.25017324839905      1.72621393890851
  H   -1.28357373667517     -0.07827807488584      1.34491563814902
  H   0.84944711754145      0.98876566453936      1.38112372845941
  N   1.56257615359174      0.32382442438118     -0.43723312796512
  O   1.99755057351984      1.46399290896529     -0.58060480591783
  O   1.67559650595874     -0.59667400196746     -1.24184749361025
  N   -0.94078987563265     -1.43988785057655     -0.16302284501155
  H   -1.89870667282113     -1.49408089429557     -0.48466582960476
  H   -0.32022558369457     -1.60452948292457     -0.94547905258577
  N   -1.22176794196396      0.94421632519101     -0.44385611752377
  H   -0.75891086733697      0.94837674609661     -1.34546099325422
  H   -1.11162903848752      1.85561294963962     -0.01393999944780
