14
Coordinates from ORCA-job run
  C   0.75748656245935      0.14870265541051      0.78083936996509
  C   -0.70864997152669     -0.10612593118147      0.34521075275041
  Cl  1.26000242879421     -0.91387002441654      2.07831075193202
  H   -1.24755412480782     -0.30578035006397      1.27525010397385
  H   0.89316398050113      1.18147357824328      1.10080066957727
  N   1.65037931272547     -0.00821269715367     -0.43046794118870
  O   1.41708770685577      0.82099044978774     -1.31370074262907
  O   2.46608151569815     -0.91120864616462     -0.49327664464504
  N   -0.73151353313769     -1.31868557720788     -0.43981700380456
  H   -1.69217421324824     -1.62617556581679     -0.52492240021597
  H   -0.40442717186148     -1.12697529841642     -1.38134954268105
  N   -1.36160865122204      1.02048884646408     -0.29596330079167
  H   -0.79086191750377      1.36504268444619     -1.05913324203342
  H   -1.50641192372635      1.78033587606957      0.35921916979084
