14
Coordinates from ORCA-job run
  C   0.79895719087284      0.43269819871612      0.29170720959298
  C   -0.59708291324842     -0.18819015024675      0.16611110302699
  Cl  1.08525542649805      1.09700999894816      1.90065563516066
  H   -0.64820245175681     -0.98347926746620      0.91443071294346
  H   0.96889696500170      1.22195468866491     -0.44100505858066
  N   1.82526454873301     -0.62627393114775     -0.00024458706662
  O   1.84040867997889     -1.59871404882472      0.74238382890082
  O   2.53652176308899     -0.43592691004055     -0.98108653114015
  N   -0.63876626446446     -0.79891043007126     -1.14297441480459
  H   -0.66627231998112     -0.08793460371793     -1.86632151467721
  H   -1.48790599877136     -1.34484623795600     -1.22215561122018
  N   -1.69164495447130      0.72885590090002      0.41944424457565
  H   -1.61733768763077      1.55271901873981     -0.16747414348264
  H   -1.70709198384925      1.02903777350215      1.38652912677150
