14
Coordinates from ORCA-job run
  C   0.82861988085413      0.34694685262125      0.52689242836882
  C   -0.59975513190374     -0.05304607252656      0.16905815566881
  Cl  1.07051466371350      0.47276432602664      2.26608368110737
  H   -0.88639399768047     -0.88793587308617      0.81897959715995
  H   1.09870448140417      1.29116199031533      0.05772361507223
  N   1.80463320892727     -0.66618056720179     -0.00257667238127
  O   1.49865993913656     -1.84962417189232      0.12785903419537
  O   2.83423031884013     -0.23518735103898     -0.50916501525414
  N   -0.60763365611570     -0.37654262596648     -1.25729045584952
  H   -0.24354116797571     -1.30949503448419     -1.41399712266137
  H   -1.56446166307322     -0.36075257052591     -1.58817255340571
  N   -1.44164704592819      1.07565408055881      0.47801264986095
  H   -1.38640159127560      1.75684713511020     -0.27052895660400
  H   -2.40452823892314      0.79338988209018      0.59712161472253
