14
Coordinates from ORCA-job run
  C   0.81892118956045      0.35606235618595      0.47230109937241
  C   -0.65217991122816     -0.03235456932164      0.25337417835444
  Cl  1.20841473516598      0.62912698879101      2.16319391701333
  H   -0.88481437293449     -0.80409658616677      0.99168978595207
  H   1.09824939932730      1.23976054601968     -0.10172314723344
  N   1.67087494247570     -0.75620613138867     -0.06833675450665
  O   2.32733070210051     -0.50097418121026     -1.07540947927088
  O   1.58344939613236     -1.84588083859141      0.48552992814395
  N   -0.91537375456122     -0.59652774894119     -1.05914654939623
  H   -0.55137810659493     -0.01258752069587     -1.80348050505099
  H   -0.53307682553877     -1.52878541877381     -1.15728705817006
  N   -1.44078825179521      1.14084444236345      0.54773229935332
  H   -1.31059437730614      1.83298632763506     -0.18304309749019
  H   -2.41903476480337      0.87863233409446      0.53460538292894
