14
Coordinates from ORCA-job run
  C   0.78044241924246      0.22869408007270      0.65432013730127
  C   -0.46327057623666      0.21111399993543     -0.24197207872861
  Cl  0.62618529775253     -0.79650013831873      2.06329523590284
  H   -0.20652476948733      0.85168447663131     -1.09555907394852
  H   1.02061616387047      1.24085526894267      0.98135872608623
  N   1.95056396264484     -0.18825507868505     -0.21390365644471
  O   2.22912342130277      0.64322699656745     -1.07494911019985
  O   2.49410812642281     -1.26407242797226     -0.03710200335396
  N   -1.59957891853736      0.69221504516256      0.53431318842667
  H   -1.45373890134069      1.64851278637656      0.84141212945417
  H   -2.42414017207176      0.68230085232913     -0.05430770408532
  N   -0.64755554872691     -1.12169612450613     -0.74934433085554
  H   -1.06908700638605     -1.70635998841639     -0.03754499850092
  H   -1.23614349844913     -1.12271974811924     -1.57101646105377
