14
Coordinates from ORCA-job run
  C   0.81721158306483      0.32854879983841      0.55953403457733
  C   -0.51416450410753      0.24792575120972     -0.19050893624961
  Cl  0.80586583915947     -0.53133839767573      2.08693132968720
  H   -0.32827639742974      0.78050791917388     -1.13661842673412
  H   1.05922800165208      1.37228699892271      0.73824627183060
  N   1.90454497898631     -0.19130831101874     -0.35276701132634
  O   2.40000668946483      0.65862147641442     -1.08832146401103
  O   2.15632834358044     -1.39099662832536     -0.35851033734873
  N   -1.47713704087294      1.03430504506492      0.54868907756385
  H   -1.86527609546691      0.44778961699287      1.27957344669288
  H   -2.23475303311014      1.31953215202217     -0.05844077825893
  N   -0.92311488549623     -1.13578498563190     -0.35191289864298
  H   -0.15459544080469     -1.73926026969135     -0.61978727174390
  H   -1.64686803861978     -1.20282916729601     -1.05610703603623
