14
Coordinates from ORCA-job run
  C   0.78435115125768      0.38008584858545      0.46271440226640
  C   -0.57425100539987      0.16890224899194     -0.24447566514339
  Cl  0.83260791321829     -0.25876805621510      2.09015136216835
  H   -0.44238162563750      0.64204817465481     -1.23097971421098
  H   1.02447309652209      1.44177056635285      0.49071163902289
  N   1.85227421617984     -0.23394268345450     -0.41297021706500
  O   2.15594921926115      0.46293505899894     -1.37966023425633
  O   2.26331572109712     -1.36118840046748     -0.17093663697888
  N   -1.68050347503297      0.82511646930228      0.40254942523388
  H   -1.77790966978748      0.47923005318223      1.34967161623924
  H   -1.56927674180232      1.83064826691739      0.41419633515493
  N   -0.88534884004655     -1.23900818487477     -0.27633085765759
  H   -0.19572250788760     -1.78272555037534     -0.77827645583982
  H   -1.78857745194188     -1.35610381159870     -0.71636499893369
