14
Coordinates from ORCA-job run
  C   0.77774381170152      0.09568874316848      0.81909458618610
  C   -0.66963756850188      0.03685431800956      0.31735113315719
  Cl  1.12355320088841     -1.19835879858142      1.96062616740417
  H   -1.28212938733310     -0.11603283241785      1.21718443116692
  H   0.96795014255998      1.05541395631246      1.29353224914610
  N   1.70563085558333      0.02199939623940     -0.37496772090072
  O   2.28344739030176     -1.02024912397536     -0.63337538780847
  O   1.74796283944449      1.06371627135885     -1.02468970350011
  N   -0.76462681167154     -1.04203624885682     -0.65775077117870
  H   -0.49793827392134     -1.93268666985625     -0.25109209751348
  H   -1.72082512514553     -1.12098716715101     -0.98112941852541
  N   -1.04055070182632      1.32369143866553     -0.21950839105006
  H   -0.58646142331180      1.46456785696381     -1.11432321719214
  H   -2.04311894876797      1.36941886012064     -0.35095185939140
