14
Coordinates from ORCA-job run
  C   0.75051972795029      0.18547923268819      0.62090075623587
  C   -0.54211459360557      0.22199738375962     -0.23429035642424
  Cl  0.69053270396405     -0.99369438101013      1.91347859143767
  H   -0.27976909946222      0.83116201670167     -1.11486218362872
  H   0.97468652076184      1.16282260134753      1.04531065119808
  N   1.88704305757959     -0.10025452187493     -0.32156420954390
  O   2.09168554153405     -1.26224973362629     -0.65362067749400
  O   2.45863389437266      0.89487129316932     -0.76230079159986
  N   -1.58388830878380      0.78788709212604      0.59583955285866
  H   -2.46030632648642      0.69402194976241      0.09723709973236
  H   -1.41788463901114      1.77063260034358      0.77511744197592
  N   -1.02042639590644     -1.04517528798613     -0.71290624896306
  H   -0.34641412659527     -1.49217326585016     -1.32083811699606
  H   -1.20329795631162     -1.65632697955072      0.07449849121127
