14
Coordinates from ORCA-job run
  C   0.77100656663026      0.29110343036124      0.59017451334459
  C   -0.51161262340280      0.35635387363300     -0.25999525124231
  Cl  0.55921194712476     -0.67043522851388      2.04647970793738
  H   -0.24829537603419      0.98472941424412     -1.11682893296284
  H   1.09744362614536      1.29037735193897      0.86878886705034
  N   1.85682865915752     -0.28108548617403     -0.28563428316154
  O   2.15217536388371     -1.46494897792060     -0.19644161425813
  O   2.30110224921327      0.52322674181559     -1.10180144916731
  N   -1.49797196584329      1.06841973877848      0.52080921150262
  H   -1.78047990259290      0.50533631720846      1.31546024431707
  H   -2.31850519707026      1.19530027735296     -0.06000706241961
  N   -0.97174428810028     -0.91390096238094     -0.77933078652749
  H   -1.04659106150454     -1.60647082041085     -0.04345781194366
  H   -0.36156799760663     -1.27700566993253     -1.50121535246909
