14
Coordinates from ORCA-job run
  C   0.71558364683746      0.07703262018915      0.78589964138302
  C   -0.73916056686876     -0.02341271253386      0.27158497961262
  Cl  1.15225908534262     -1.31532821822592      1.76963826073763
  H   -1.35949574162396     -0.00129514690940      1.18155586385804
  H   0.86844092915127      0.97502060695510      1.38284481215966
  N   1.65021261558643      0.21569902811153     -0.37891645625004
  O   2.16657770615545      1.31871076711622     -0.52406851038157
  O   1.78214200316704     -0.75421286957920     -1.11702278893571
  N   -1.09492085141523     -1.20989382195838     -0.45648689457034
  H   -1.07184299621387     -2.02523749229850      0.14102149561716
  H   -0.44622923707218     -1.35013375020866     -1.22213558939242
  N   -0.92371895894195      1.09647386488458     -0.62888857456943
  H   -1.83726500750602      1.00977713226885     -1.05577639681055
  H   -0.86458262659829      1.98579999218849     -0.14824984245806
