14
Coordinates from ORCA-job run
  C   0.73259889149220      0.10348820545468      0.80922986382132
  C   -0.72960875902790     -0.14492047024028      0.39535689301008
  Cl  1.43964670541722     -1.19001048033756      1.76356768771048
  H   -1.29826782320931     -0.08679441923191      1.33074161393078
  H   0.80921512124695      1.02958413517075      1.37565700902024
  N   1.56049595196075      0.35235254782691     -0.42295941131992
  O   1.70342432961430     -0.57792630799567     -1.21141992842214
  O   1.97221959803806      1.49942308483097     -0.57900483996891
  N   -0.90663773545155     -1.46270538236397     -0.15135029502233
  H   -0.27411290467983     -1.62533241462402     -0.92458257974752
  H   -1.85959722324394     -1.54406957035029     -0.48185208059672
  N   -1.23643530706369      0.90968945340210     -0.47337457591353
  H   -1.14856978140209      1.83078319356190     -0.05931881422018
  H   -0.76537106369116      0.90643842489639     -1.37069054228165
