14
Coordinates from ORCA-job run
  C   0.77112909951873      0.09482743401128      0.79336975467971
  C   -0.72396804675645      0.04486087156011      0.39798108035606
  Cl  1.18569045214583     -1.21720264384941      1.88403041296231
  H   -1.25352140666757     -0.06480795423576      1.34954001828480
  H   1.01285801685495      1.04665182548048      1.26083881768595
  N   1.59587734730004      0.02132913723599     -0.46429327284696
  O   1.73958357369662      1.10032683281076     -1.04061575717807
  O   1.97138212735920     -1.06954211735031     -0.87301123526217
  N   -1.11069007434652     -1.08045983336933     -0.42773210685340
  H   -0.91931697459353     -1.96391939052305      0.02993053512007
  H   -0.62861550679409     -1.07096561465130     -1.31916858290199
  N   -1.08209249320542      1.32817720249494     -0.16144722148130
  H   -2.04827190693726      1.28048426238353     -0.46193270388608
  H   -0.51004420757452      1.55123998800206     -0.96748973867893
