15

C	0.0	0.0	0.0
C	-0.350248	-0.00835	-1.503575
Br	1.928156	0.0	0.0
H	0.460852	0.505973	-2.034806
H	-0.288481	-0.889626	0.541826
N	-0.486423	1.164393	0.755156
O	-0.495542	2.247994	0.147546
O	-0.523134	1.048775	1.990519
C	-1.589794	0.665394	-1.919717
N	-2.374125	1.228715	-2.600386
C	-0.405077	-1.466537	-1.965271
H	-0.562207	-1.516187	-3.044427
H	0.526013	-1.979993	-1.716812
H	-1.240618	-1.955429	-1.457596
H	-2.045692	0.0	0.0
