17

C	-0.554357	-0.005827	-1.426344
C	0.0	0.0	0.0
Cl	0.248177	1.20744	-2.428071
H	1.093234	0.0	0.0
N	-0.168426	-1.40297	-2.025113
O	-1.094565	-2.213528	-2.097055
O	0.997881	-1.613582	-2.308698
N	-1.952028	0.206546	-1.468307
H	-2.28565	0.191324	-2.424174
H	-2.424469	-0.523051	-0.950374
C	-0.419969	-1.229868	0.816755
H	0.000668	-1.125382	1.81793
H	-1.504273	-1.340861	0.907675
H	0.005665	-2.133713	0.379263
C	-0.452735	1.221994	0.661987
N	-0.812303	2.174047	1.248652
Br	3.456777	0.0	0.0
