17

C	-0.278038	-0.06163	-1.520876
C	0.0	0.0	0.0
Cl	0.01947	-1.706733	-2.114839
H	1.098585	0.0	0.0
N	-1.759904	0.254892	-1.757388
O	-2.577376	-0.588232	-1.403877
O	-2.024942	1.369582	-2.197893
N	0.504518	0.842589	-2.290774
H	0.258165	1.794146	-2.044881
H	1.480991	0.683551	-2.037173
C	-0.545781	-1.102858	0.89777
H	-0.162801	-2.068636	0.570107
H	-0.188342	-0.925007	1.915009
H	-1.637357	-1.126137	0.896072
C	-0.425118	1.315886	0.473626
N	-0.794464	2.362322	0.864359
Br	3.416033	0.0	0.0
