12

C	-0.343472	0.017251	-1.340417
C	-0.238572	-0.354696	0.13545
Br	0.00373	-1.5599	-2.467392
H	0.738978	-0.827626	0.249565
H	0.502372	0.747169	-1.477599
H	-1.021418	-1.07026	0.416037
C	-1.644351	0.551029	-1.699516
N	-2.698767	0.966289	-2.013484
N	-0.37435	0.903319	0.860687
H	0.436306	1.443836	0.501016
H	-0.233296	0.722778	1.849084
F	1.663857	1.614267	-0.691394
