15

C	0.0	0.0	0.0
C	-0.286571	-0.153206	-1.533499
Br	2.008837	0.0	0.0
H	0.404979	0.541036	-2.022571
N	-0.455184	1.310337	0.37523
H	-0.177403	1.482434	1.336862
H	-1.48708	1.145695	0.353785
N	-0.4689	-1.150253	0.7051
H	-0.230217	-1.041494	1.686107
H	-1.500034	-1.00993	0.597948
C	-1.610123	0.221255	-2.073697
N	-2.422233	0.545214	-2.862044
C	0.052987	-1.501663	-2.006228
N	0.355082	-2.539995	-2.463123
F	-2.698959	0.0	0.0
