15

C	0.0	0.0	0.0
C	-0.292391	0.135365	-1.534437
Br	2.008862	0.0	0.0
H	0.421518	-0.537174	-2.02116
N	-0.46903	1.154225	0.695921
H	-0.233195	1.050245	1.678543
H	-1.500954	1.012083	0.587687
N	-0.451411	-1.308063	0.389019
H	-0.170181	-1.469601	1.35266
H	-1.483021	-1.146134	0.367466
C	0.00293	1.49116	-2.016706
N	0.270099	2.535793	-2.482337
C	-1.601942	-0.293695	-2.067919
N	-2.399634	-0.678791	-2.842821
F	-2.697308	0.0	0.0
