15

C	0.0	0.0	0.0
C	-0.313506	-0.127646	-1.533044
Br	1.969213	0.0	0.0
H	0.408738	0.531061	-2.025033
N	-0.455505	1.310308	0.391857
H	-1.486374	1.144222	0.393932
H	-0.154489	1.477344	1.349161
N	-0.475216	-1.154786	0.695152
H	-0.232847	-1.058481	1.676441
H	-1.506373	-1.01438	0.592957
C	-1.614749	0.339957	-2.050938
N	-2.396458	0.771673	-2.817382
C	-0.050188	-1.486658	-2.022337
N	0.18282	-2.536676	-2.493817
F	-2.701825	0.0	0.0
