15
Coordinates from ORCA-job run
  C   -0.45235785799196     -0.05159262333030     -0.33192240304703
  C   0.79772849794855     -0.64412500452628      0.31523103680005
  H   -0.45581732875954     -0.25785644171821     -1.40417089377679
  H   0.79052122122535     -0.38079981015706      1.37504478444927
  H   0.74858448908404     -1.74069743301029      0.24893538002712
  C   -0.62035683484745      1.42817934125289     -0.05303736101598
  H   -0.71101253738430      1.59744150104145      1.02115287253848
  H   0.26043647031923      1.95167936466711     -0.42339138948319
  H   -1.50949547485281      1.82256461960607     -0.54968801239556
  N   -1.63679819254595     -0.79883106501075      0.19689141586778
  O   -1.82639596738341     -0.74731656320991      1.41137228702336
  O   -2.33042057441879     -1.42135930609518     -0.60593991569648
  N   1.97502820434908     -0.05941353464647     -0.31932584535763
  H   2.77714693241019     -0.13953455520265      0.29108430821834
  H   2.19320895284778     -0.55733848966041     -1.17323626415176
