15
Coordinates from ORCA-job run
  C   -0.45924372636404     -0.02919055041198     -0.32528067278965
  C   0.80670633940207     -0.66154394514079      0.24938047504804
  H   -0.48610953729920     -0.15601781355005     -1.40946286658042
  H   0.82065254192117     -0.47770205651952      1.32577208380896
  H   0.76028042916554     -1.75037583884126      0.10256651454352
  C   -0.62635099829178      1.42498295510917      0.06566368420487
  H   0.24498464285306      1.97882728909369     -0.28226389777319
  H   -0.69570549933960      1.51427297130069      1.15101802884459
  H   -1.52676193023082      1.85074865909537     -0.38240493751843
  N   -1.62903095328577     -0.81979739376259      0.17268517377233
  O   -1.79285853849181     -0.85771235734892      1.39138554625238
  O   -2.33701430734593     -1.38626017557877     -0.65860990162246
  N   1.96814926550869     -0.02502097032818     -0.36416068272065
  H   2.78323643527951     -0.14623200418569      0.22181262157405
  H   2.17006583651891     -0.45697876893117     -1.25710116904395
