15
Coordinates from ORCA-job run
  C   -0.50255894321279     -0.13922831073114     -0.31397592914485
  C   0.77423468622757     -0.69236734876700      0.31812725726828
  H   -0.61830939889634     -0.55558585343047     -1.31453342422272
  H   0.80979578299928     -0.37440163438573      1.36803305240153
  H   0.71616283756018     -1.78460706819093      0.30411856901178
  C   -0.55157080325103      1.37438604647696     -0.33029136100173
  H   0.24971575340955      1.74437100781388     -0.97153726434039
  H   -0.42962620197725      1.77459319682015      0.67745785357005
  H   -1.50200223175830      1.73132746076883     -0.73229461526229
  N   -1.65801343954939     -0.67645674810759      0.47162379130311
  O   -1.81760658436641     -0.23102240355645      1.60765747712726
  O   -2.34617566361729     -1.55155577245777     -0.05224181590650
  N   1.91989927860633     -0.26167553666283     -0.47882371345548
  H   2.30198062639705      0.59861614319907     -0.10921822449407
  H   2.65307430142884     -0.95639317878898     -0.44410165285398
