14
Coordinates from ORCA-job run
  C   0.63123124352811     -0.43720143132499     -0.59477973542015
  C   -0.83085680374877     -0.54332960837437     -0.18680899348769
  Cl  1.21213645517155     -2.07233968099050     -1.07828769880685
  H   -0.90750993202680     -1.23251275657931      0.66066345676487
  H   0.71642684107677      0.17220778838285     -1.49859872010939
  H   -1.38630856814178     -0.99809042456726     -1.01206016304578
  C   1.54166931979858      0.10657702227559      0.48940632871142
  H   1.27389399213695      1.13783637569955      0.73051716758862
  H   1.45837638337508     -0.49942652522700      1.39469881883653
  H   2.58247104623942      0.09384844210180      0.16305127817559
  C   -1.44740745091189      0.80808092598099      0.16713149150730
  H   -1.30624028405868      1.53092091382525     -0.64147490990492
  H   -1.01684146911250      1.22928415834882      1.07718816811863
  H   -2.52204077332605      0.70314480044859      0.33135351107183
