14
Coordinates from ORCA-job run
  C   0.66846884314385     -0.50966972536835     -0.57123144877453
  C   -0.66081063538611      0.20880437849165     -0.76880248365561
  Cl  0.37702276113708     -2.25464452465452     -0.22308612888141
  H   -1.21650133850441     -0.30861039608877     -1.55627524548442
  H   1.21336205666708     -0.50595815770001     -1.51807990811187
  H   -0.42733395374430      1.20928097779096     -1.15414696624820
  C   1.54041472452344      0.07553833228086      0.52351616612413
  H   1.07510915623813     -0.03949868670124      1.50288755516194
  H   1.70219583860285      1.14125092746768      0.33484761106435
  H   2.51068852577378     -0.42245678889386      0.55033044105041
  C   -1.52366617845023      0.32731476274686      0.48241073493206
  H   -1.72312510652449     -0.65353184704622      0.91727592477888
  H   -2.48396303463352      0.78503122513052      0.23523677549159
  H   -1.05086165884315      0.95014952254444      1.24411697255271
