13

C	-0.424968	0.061929	-1.464327
C	0.0	0.0	0.0
F	-0.415365	-1.222461	-1.987303
H	1.091327	0.0	0.0
H	-1.440822	0.454954	-1.554095
C	0.459713	0.896719	-2.30088
N	1.048708	1.538335	-3.088344
C	-0.468581	-1.183842	0.673694
N	-0.801665	-2.177206	1.208705
N	-0.378593	1.197946	0.688818
O	-0.532688	2.215587	-0.020997
O	-0.351601	1.198847	1.929491
H	2.329964	0.0	0.0
