13

C	-0.344423	0.007456	-1.464949
C	0.0	0.0	0.0
F	-1.712783	0.12698	-1.689725
H	1.094624	0.0	0.0
H	0.146799	0.870565	-1.916747
C	0.112761	-1.230413	-2.112283
N	0.438431	-2.232947	-2.628458
C	-0.534123	-1.124045	0.728101
N	-0.930248	-2.089519	1.271135
N	-0.34173	1.264881	0.624625
O	-0.582021	1.269999	1.838982
O	-0.205846	2.281555	-0.072449
H	2.377987	0.0	0.0
