13

C	-0.411767	0.098624	-1.4671
C	0.0	0.0	0.0
F	-0.404837	-1.173118	-2.01887
H	1.091299	0.0	0.0
H	-1.423958	0.499585	-1.560052
C	0.489913	0.944229	-2.274616
N	1.094891	1.594601	-3.042138
C	-0.477107	-1.198067	0.642654
N	-0.818531	-2.203437	1.149843
N	-0.377537	1.185128	0.712506
O	-0.374648	1.158291	1.952594
O	-0.509063	2.220786	0.024218
H	2.326226	0.0	0.0
