13

C	-0.411768	-0.000494	-1.469677
C	0.0	0.0	0.0
F	-0.433705	-1.308251	-1.930069
H	1.091241	0.0	0.0
H	-1.414532	0.415977	-1.588745
C	0.50373	0.766412	-2.337937
N	1.116433	1.348539	-3.152765
C	-0.475455	-1.149718	0.724539
N	-0.81268	-2.118517	1.300165
N	-0.371521	1.231522	0.629329
O	-0.365329	1.287617	1.869085
O	-0.493052	2.219559	-0.127738
H	2.324362	0.0	0.0
