13

C	-0.306148	-0.0447	-1.495708
C	0.0	0.0	0.0
F	0.164895	1.045829	-2.180185
H	1.0919	0.0	0.0
H	0.227003	-0.928001	-1.869933
C	-1.751838	-0.173589	-1.766516
N	-2.897515	-0.251341	-2.010745
C	-0.474039	-1.228861	0.598104
N	-0.767667	-2.294665	1.004108
N	-0.484368	1.172817	0.704188
O	-0.179736	2.269681	0.216181
O	-1.05675	1.020111	1.794982
H	2.41355	0.0	0.0
