17

C	-0.490462	-0.003936	-1.433064
C	0.0	0.0	0.0
Cl	-2.288159	0.220752	-1.568262
H	1.090765	0.0	0.0
C	0.20283	1.108803	-2.215601
H	-0.036014	1.007934	-3.275612
H	1.275557	1.010204	-2.029815
H	-0.133253	2.08011	-1.858655
C	-0.153636	-1.283295	-2.061536
N	0.188525	-2.262664	-2.612854
N	-0.445703	-1.159929	0.809962
O	0.005984	-1.203654	1.950501
O	-1.187444	-2.003755	0.303588
N	-0.462531	1.220933	0.715422
O	-1.406837	1.127811	1.498631
O	0.145291	2.258931	0.460224
F	2.460915	0.0	0.0
