17

C	-0.535766	0.051533	-1.43501
C	0.0	0.0	0.0
Cl	-0.016043	-1.489321	-2.22081
H	1.08939	0.0	0.0
C	-2.047687	0.166387	-1.611507
H	-2.400892	1.089858	-1.154815
H	-2.282578	0.176851	-2.677206
H	-2.539425	-0.682948	-1.141485
C	0.130188	1.130848	-2.170238
N	0.567071	1.978827	-2.856292
N	-0.52685	-1.202341	0.708524
O	0.25182	-2.124296	0.922542
O	-1.721263	-1.194431	1.02718
N	-0.421344	1.165614	0.801238
O	-0.746569	2.19491	0.203648
O	-0.322956	1.059689	2.020806
F	2.444438	0.0	0.0
