17

C	-0.551233	0.012338	-1.412406
C	0.0	0.0	0.0
Cl	0.120664	1.453978	-2.245202
H	1.088532	0.0	0.0
C	-0.027879	-1.222736	-2.143421
H	-0.490178	-2.124142	-1.735848
H	-0.276318	-1.149532	-3.20489
H	1.054475	-1.260369	-1.990126
C	-2.013562	0.069137	-1.521461
N	-3.17478	0.019185	-1.697559
N	-0.471353	-1.226258	0.718881
O	0.284039	-2.19565	0.710743
O	-1.58689	-1.186299	1.248795
N	-0.462412	1.148122	0.830865
O	-1.336394	1.900676	0.394933
O	0.114477	1.261123	1.912632
F	2.493453	0.0	0.0
