17

C	-0.326336	0.013097	-1.487892
C	0.0	0.0	0.0
Cl	-2.076629	0.33692	-1.829284
H	1.09078	0.0	0.0
C	0.540982	1.061086	-2.187805
H	1.560488	0.903703	-1.82189
H	0.470943	0.924923	-3.267651
H	0.211124	2.062123	-1.918823
C	0.005011	-1.28731	-2.076757
N	0.306004	-2.249204	-2.680331
N	-0.516409	-1.171691	0.741172
O	-0.151876	-1.252652	1.910809
O	-1.23433	-1.986488	0.158773
N	-0.520917	1.215368	0.673883
O	0.069163	2.265555	0.428796
O	-1.505413	1.109068	1.404496
F	2.484855	0.0	0.0
