17

C	-0.535583	0.004798	-1.440115
C	0.0	0.0	0.0
Cl	0.529973	-1.022011	-2.467035
H	1.090337	0.0	0.0
C	-1.978461	-0.453946	-1.650542
H	-2.232987	-0.352025	-2.706776
H	-2.069818	-1.499138	-1.362435
H	-2.646862	0.160806	-1.048367
C	-0.396209	1.372567	-1.954582
N	-0.354987	2.459352	-2.401115
N	-0.430624	-1.168763	0.784968
O	-0.527721	-2.245487	0.195655
O	-0.563455	-1.0154	1.999137
N	-0.513192	1.204209	0.725479
O	0.310645	1.977411	1.201059
O	-1.739268	1.346763	0.786885
F	2.446119	0.0	0.0
