17

C	-0.504491	-0.005736	-1.435702
C	0.0	0.0	0.0
Cl	0.15954	1.445456	-2.261255
H	1.088518	0.0	0.0
C	0.07673	-1.230636	-2.14089
H	1.146067	-1.244021	-1.920164
H	-0.387372	-2.143563	-1.765903
H	-0.106637	-1.151854	-3.213187
C	-1.965286	0.02557	-1.563886
N	-3.12628	-0.031931	-1.739141
N	-0.49651	-1.227862	0.696293
O	0.207331	-2.231521	0.625301
O	-1.586729	-1.163207	1.270677
N	-0.498362	1.133608	0.817952
O	-0.044774	1.187861	1.958341
O	-1.295601	1.933711	0.327512
F	2.477901	0.0	0.0
