17

C	-0.544697	-0.000218	-1.436262
C	0.0	0.0	0.0
Cl	0.493921	-1.054851	-2.46126
H	1.090348	0.0	0.0
C	-1.99664	-0.4334	-1.638424
H	-2.107368	-1.47213	-1.334877
H	-2.254444	-0.341978	-2.694923
H	-2.64994	0.202533	-1.042245
C	-0.379522	1.359853	-1.962663
N	-0.296885	2.447403	-2.401505
N	-0.435821	-1.159246	0.800561
O	-0.553963	-0.991913	2.013617
O	-0.55293	-2.23954	0.222353
N	-0.501611	1.211214	0.725631
O	0.329764	1.979002	1.196237
O	-1.72612	1.359621	0.798261
F	2.447696	0.0	0.0
