17

C	-0.360351	-0.068622	-1.493002
C	0.0	0.0	0.0
Cl	-0.150073	1.605966	-2.137916
H	1.089005	0.0	0.0
C	0.66386	-0.952228	-2.209131
H	0.473165	-1.996494	-1.965159
H	1.646294	-0.661037	-1.821216
H	0.586309	-0.805789	-3.287404
C	-1.739159	-0.46323	-1.788167
N	-2.820082	-0.806197	-2.097529
N	-0.464066	-1.187463	0.753448
O	-0.560914	-1.063758	1.971705
O	-0.649884	-2.232354	0.1302
N	-0.626476	1.169104	0.672015
O	-1.857031	1.229233	0.621002
O	0.107654	1.983601	1.21914
F	2.511443	0.0	0.0
