17

C	-0.338243	-0.039129	-1.495807
C	0.0	0.0	0.0
Cl	0.154161	1.55054	-2.184937
H	1.088577	0.0	0.0
C	0.542271	-1.096441	-2.167247
H	1.55142	-0.94501	-1.770732
H	0.50759	-0.958201	-3.248858
H	0.196465	-2.097632	-1.916674
C	-1.756359	-0.245418	-1.792856
N	-2.866312	-0.513131	-2.070697
N	-0.514786	-1.224126	0.679715
O	-1.495044	-1.118073	1.418507
O	0.081735	-2.271386	0.445959
N	-0.595958	1.144011	0.730035
O	-1.56539	1.726429	0.242087
O	-0.074927	1.406236	1.811269
F	2.502247	0.0	0.0
