17

C	-0.332783	0.013965	-1.486542
C	0.0	0.0	0.0
Cl	-2.080624	0.346929	-1.826696
H	1.090787	0.0	0.0
C	0.541873	1.058325	-2.185298
H	1.560648	0.896198	-1.816431
H	0.472448	0.927147	-3.266325
H	0.216071	2.060824	-1.915409
C	-0.007504	-1.290175	-2.072476
N	0.290304	-2.265786	-2.655564
N	-0.517253	-1.167278	0.747465
O	-1.251379	-1.974144	0.175411
O	-0.139589	-1.250593	1.912616
N	-0.515285	1.218587	0.673209
O	-1.501109	1.117707	1.402671
O	0.081773	2.265278	0.431042
F	2.487095	0.0	0.0
