15

C	0.037627	0.026239	0.025858
C	-0.581728	-0.116591	-1.352406
Br	2.005036	-0.224353	-0.125873
H	-0.398628	-1.117481	-1.73854
H	-1.67472	0.029695	-1.27197
C	-0.158525	1.334773	0.646619
N	-0.310138	2.330235	1.252782
C	-0.526516	-1.062614	0.933982
H	-0.270473	-2.044081	0.530628
H	-1.616788	-0.963541	0.943521
H	-0.115078	-0.966703	1.939657
N	-0.032127	0.825656	-2.358097
O	0.128426	1.996638	-2.021912
O	0.194703	0.373694	-3.479751
Cl	-3.737217	-0.680495	-0.557145
