13
Coordinates from ORCA-job run
  C   0.74617956106615     -0.20568032589655     -0.58859882660336
  C   -0.68708232019454      0.00131483250535     -0.10632899008327
  Cl  0.90115017181147     -0.01370512791588     -2.33129322020775
  H   -1.03179430400426      0.96652366472257     -0.49324825676641
  H   1.13197534178901     -1.17760556944806     -0.28811146977762
  N   1.62102332769924      0.81770807343042      0.08977350664203
  O   2.75618840878882      0.45853783644370      0.37272375151087
  O   1.13213186844405      1.92716556116531      0.28138484647916
  N   -0.66432543522101     -0.06256089811644      1.35119077904714
  H   -1.42117433037302     -0.62238949182125      1.71764201765386
  H   -0.72098362590017      0.86905422670042      1.73931754877839
  C   -1.53505939423775     -1.05224627184901     -0.66756638382641
  N   -2.22822926966798     -1.90711650992057     -1.07588530284663
