13
Coordinates from ORCA-job run
  C   0.66666818514350      0.56620904706748     -0.40677310995990
  C   -0.57243857233749     -0.28927703432916     -0.14322566919882
  Cl  0.67787600280115      2.02514728910965      0.55607132784242
  H   -0.46841391164172     -1.17128781385112     -0.78160380876291
  H   0.69538117492978      0.82736987094130     -1.46345827026159
  N   1.89188192275280     -0.29489590164936     -0.15016019538778
  O   2.62589939032190     -0.04898469769560      0.79293143693335
  O   2.00129237403981     -1.21744567774950     -0.95337257866976
  N   -1.74935026531071      0.44306182381594     -0.56809261964422
  H   -2.54461568103508     -0.18105647008860     -0.62090889123568
  H   -1.96842369675008      1.17652595443059      0.09545835187437
  C   -0.59088367466505     -0.74143020571823      1.26235104919833
  N   -0.66687324824883     -1.09293618428340      2.38078297727221
