15
Coordinates from ORCA-job run
  C   -0.53148503173216     -0.62450014965410      0.43695634642660
  C   0.41476597743214     -0.07497860064145     -0.65702764572408
  Cl  0.08218131365457     -2.14517127962273      1.13287938399476
  H   0.39775926574529     -0.74126285057660     -1.51951805687831
  N   -0.65787971455582      0.34654484783673      1.49565847824841
  H   -1.22625032978828      1.12015787936213      1.16784550937719
  H   -1.11300774042217     -0.07194603356653      2.29788127039502
  C   -1.80789660006973     -0.93737489865530     -0.23479889842033
  N   -2.84467924925734     -1.14489894085692     -0.74840783297397
  N   1.85814472424238     -0.11541939683926     -0.16541256901930
  O   2.51224883184393     -1.11018610311657     -0.46372193324630
  O   2.25532078167089      0.85540523402611      0.47137775223801
  N   -0.01149834035050      1.24193051913168     -0.98645929385315
  H   0.37933701923777      1.89403706387410     -0.31450289094684
  H   0.29293909234902      1.50566270929872     -1.91374961961772
