15
Coordinates from ORCA-job run
  C   -0.70955405869435     -0.50729538974643      0.30693726510609
  C   0.55652149377191     -0.21917394234557     -0.53003163079191
  Cl  -1.44584671921498     -2.01785195497844     -0.42579379727951
  H   1.16844444828256     -1.12181233316399     -0.55695516469782
  N   -0.38594453749436     -0.62865435681410      1.67784201189770
  H   0.31506268359230     -1.34096267706211      1.84253530147737
  H   -1.20291535988992     -0.80367108879792      2.24804357458159
  C   -1.69641010286617      0.56116435941007      0.12595832393913
  N   -2.47815244971044      1.42433306491031     -0.02760620418434
  N   1.38643845395587      0.78056775615542      0.28169543716087
  O   2.29773888394046      0.31983677057175      0.96213390006778
  O   1.07130026657760      1.96158602406852      0.17854897617107
  N   0.23831874370504      0.22694684582054     -1.82898947672326
  H   1.04167764861663      0.20461629512842     -2.44155772586671
  H   -0.15567939457215      1.16037062684354     -1.81276079085806
