15
Coordinates from ORCA-job run
  C   -0.47204495205699     -0.33113510403875      0.60946477916603
  C   0.42125192354822      0.23912260933839     -0.50526782297424
  Cl  0.49385008631057     -0.82626331658611      2.01679274856393
  H   -0.23649923873621      0.44271854902707     -1.36842776346655
  N   -1.33629552532303      0.76288715567648      1.03543079379460
  H   -2.04512210206968      0.92627281544081      0.32544456886814
  H   -1.81111352080296      0.50054561917697      1.89248387009848
  C   -1.24849184066164     -1.48664059457140      0.13344516416741
  N   -1.99834901839317     -2.31183221743447     -0.23923697848530
  N   1.39462117879814     -0.78197008186986     -1.05677022717216
  O   2.24414514217355     -0.31506790313848     -1.80709423127085
  O   1.25105209009291     -1.96409839819434     -0.76741376164253
  N   1.17958763431886      1.34520870819086     -0.02146394726779
  H   1.58424206177563      1.86462820803171     -0.78759675111058
  H   0.57816608102581      1.93662395095115      0.53820955873141
