15
Coordinates from ORCA-job run
  C   -0.67700579520422     -0.52084894721330      0.29037116721329
  C   0.60733923612108     -0.15508219990362     -0.46329220614378
  Cl  -1.35986269499443     -1.93944138335043     -0.58369228362663
  H   1.27289421688800     -1.02527323268706     -0.39304670567878
  N   -0.35702938003762     -0.96724635942642      1.62384177022790
  H   -1.15466723165600     -1.44713374471956      2.02442487931600
  H   -0.14023880332376     -0.15868331625503      2.19585409831761
  C   -1.68010495531117      0.55324712889737      0.21242158079778
  N   -2.51126477851286      1.38401728931926      0.22885561864809
  N   1.35644845660266      0.95277704206190      0.24469055981549
  O   0.83897286801311      1.52275075199211      1.20117762547373
  O   2.45352654252444      1.20887746579070     -0.23811286328777
  N   0.33716770682948      0.36100539644919     -1.77553012355513
  H   -0.19656207899675     -0.30884015788223     -2.31388734688752
  H   1.21138669105806      0.54087426692712     -2.25407577063029
