15
Coordinates from ORCA-job run
  C   -0.58748568620148     -0.43672905010296      0.47181876034279
  C   0.24688924670954      0.41711338086054     -0.50564919237033
  Cl  0.59991749518568     -1.19794013381673      1.67155428831993
  H   -0.43323486858963      0.76469036564809     -1.28536820721890
  N   -1.53513284978774      0.42044350623237      1.06468647232595
  H   -1.07761268869141      1.23426160171778      1.45745636348658
  H   -2.11798202087460     -0.05249210452612      1.74225068394040
  C   -1.27458370213035     -1.55811685584973     -0.17113755134137
  N   -1.89350957061822     -2.44617786582230     -0.62740926034408
  N   1.25104287924195     -0.47523845226059     -1.23718245504922
  O   2.43631125262951     -0.34564587447410     -0.95144960573796
  O   0.77688217544273     -1.24395051773930     -2.06743377047356
  N   0.83697213184756      1.50344044704306      0.18393947471447
  H   1.13088320675179      2.22607913813100     -0.45894744984811
  H   1.64164299908467      1.19026241495900      0.71387144925343
