15
Coordinates from ORCA-job run
  C   -0.60781428930555     -0.51907969519657      0.33219830204018
  C   0.55353936296878     -0.08511903175359     -0.59603264560666
  Cl  -0.16866542612958     -2.15742256743308      1.02870595848455
  H   0.68543453833742     -0.83494081356078     -1.37504497089929
  N   -0.91528384515274      0.47309795555460      1.29301975793641
  H   -0.12605774969183      0.64637253732342      1.90374342768654
  H   -1.74483957152678      0.24302710362667      1.82424479945432
  C   -1.77288138823770     -0.73654065582050     -0.53187569827712
  N   -2.69347750716821     -0.88878499885686     -1.24543446138932
  N   1.85292288827712     -0.12742668821445      0.18547341979629
  O   2.76850008010646     -0.78669240885883     -0.28904731736590
  O   1.90113126089212      0.54444674110392      1.21412274313903
  N   0.39630632372596      1.21757645510999     -1.13614899952519
  H   -0.15945218955635      1.80849203464659     -0.53228594918807
  H   0.03063751246089      1.20399403232946     -2.07563836628581
