15
Coordinates from ORCA-job run
  C   -0.65777607032547     -0.42912788215345      0.46347777660671
  C   0.36837072151988      0.36647307259590     -0.38257033375146
  Cl  0.30798232473541     -1.47823254477293      1.60534184018084
  H   -0.18792995502963      0.86266725902722     -1.18132733011520
  N   -1.50152441267680      0.44983497738377      1.19046382136930
  H   -2.43088465982061      0.53741192893730      0.80963321913221
  H   -1.04708534440346      1.33633806714093      1.36372724478758
  C   -1.47583910012613     -1.32429077210156     -0.35559046971149
  N   -2.21269650158496     -1.99850177572240     -0.97411574987344
  N   1.30507467084417     -0.59586870689028     -1.11648404312746
  O   2.47647904991148     -0.63184982123520     -0.75661809413518
  O   0.79668907557451     -1.24572063022688     -2.02478255749557
  N   1.03429165659673      1.31210964215863      0.43218821772046
  H   1.68784951880375      0.85097048276291      1.05385260514150
  H   1.53799902598110      1.98778670309609     -0.12619614672879
