15
Coordinates from ORCA-job run
  C   -0.55079845915771     -0.40113388248958      0.54204421673451
  C   0.23010944395812      0.28974921108327     -0.59467138138529
  Cl  0.56833517986904     -0.44276575030280      2.01720704924510
  H   -0.37901370359958      0.20547103190613     -1.49644424195397
  N   -1.73509111535514      0.33651465363449      0.73860125309302
  H   -1.52051046594991      1.31732295936556      0.87310878183025
  H   -2.30376471046750     -0.03396185757352      1.48843448039695
  C   -0.88429886731693     -1.79809022720373      0.25856711301082
  N   -1.22602456157702     -2.90745073943916      0.07829351521572
  N   1.49612863799332     -0.50955966263642     -0.90699606766649
  O   1.32295093602984     -1.58645291089239     -1.46883995830340
  O   2.57169578650986     -0.01349694306249     -0.59026360677969
  N   0.47090253436666      1.64438873495518     -0.26182323248517
  H   0.70857405665626      2.18404017928734     -1.08296445688575
  H   1.22980530804070      1.71442520336812      0.40574653593338
