15
Coordinates from ORCA-job run
  C   -0.72383988385276     -0.61308004338816      0.32416505008681
  C   0.51585433410679     -0.26103201088162     -0.54786684888651
  Cl  -1.34004787823272     -2.16703006246298     -0.33578217917858
  H   1.18073249168046     -1.12543280544114     -0.56419591831073
  N   -0.48121973176784     -0.77470945870274      1.72483766517017
  H   0.33278003696634     -1.35096211098338      1.89884289604395
  H   -0.38980116281468      0.11482510013528      2.19880706551495
  C   -1.75685949117642      0.41093400268672      0.13330838287600
  N   -2.55803503841108      1.25421300694178     -0.03014850617059
  N   1.29064058998827      0.79104386153284      0.25078286081429
  O   2.21326962902924      0.39027448280749      0.95724857163178
  O   0.90430200903505      1.95342488776016      0.14949538050526
  N   0.16335394181522      0.15055524025778     -1.84713601807837
  H   0.95862495390222      0.18045060931347     -2.46962964342828
  H   -0.31075480026814      1.04552530042449     -1.84472875859015
