15
Coordinates from ORCA-job run
  C   -0.67975651850811     -0.43099456291094      0.28100416591144
  C   0.64511581276014     -0.17828349154679     -0.49219887413058
  Cl  -1.47764074057090     -1.82236178378632     -0.65045649360488
  H   1.20223743229376     -1.11609128789879     -0.50662001722815
  N   -0.42898822726125     -0.70824089701422      1.63533611058223
  H   -1.26980622458562     -0.87356723503920      2.17216486274446
  H   0.23729140069380     -1.45880178358347      1.76689759463702
  C   -1.59437959486858      0.70295173687034      0.14811200090535
  N   -2.32696806132559      1.61232267031484      0.01933960607349
  N   1.45352433083957      0.76677607000035      0.35710738018588
  O   2.34604670341073      0.27765505969166      1.04154644833625
  O   1.13259033683156      1.94868500956841      0.30005169494317
  N   0.55860214778999      0.36866191999109     -1.79990297264747
  H   0.19446895895769     -0.30589596688655     -2.45757149408075
  H   0.00466224354283      1.21618454222958     -1.81481001262752
