15
Coordinates from ORCA-job run
  C   -0.63119531409568     -0.57053587349307      0.32549343271760
  C   0.39056636188066     -0.02906521125775     -0.69293462547674
  Cl  -0.08710423574123     -2.26768133771353      0.77139103482356
  H   0.43845522058038     -0.69485741062613     -1.55457854313849
  N   -0.78983943202099      0.30229197423781      1.42792176892459
  H   -1.55456420686786      0.01724363929103      2.02557403199329
  H   0.06986776815256      0.38920672762023      1.95577312924326
  C   -1.91296962181703     -0.72242834857133     -0.36878960416146
  N   -2.94579788354096     -0.86452598767890     -0.90921005525764
  N   1.79563229358218     -0.12920213869914     -0.08747976149315
  O   1.99875819071432      0.49168659503501      0.95626581284840
  O   2.63164882766976     -0.76471886427456     -0.72004101061329
  N   0.02579786835554      1.28088979192730     -1.06574588684385
  H   -0.03995451309631      1.89779980272137     -0.26752542852668
  H   0.61069867624467      1.66389664148166     -1.79511429503937
