15
Coordinates from ORCA-job run
  C   -0.54468053266830     -0.62517288324406      0.42172837156465
  C   0.42228278507640     -0.06906854891424     -0.65072871455974
  Cl  0.04041899929260     -2.16516420745196      1.09928110075355
  H   0.40719531577382     -0.72025574018497     -1.52478709468873
  N   -0.67233811753407      0.32909936916999      1.49524190082818
  H   -1.15712922678670     -0.09323134277893      2.27814022713377
  H   -1.21583420663012      1.12069046228824      1.16764772501763
  C   -1.81565973777935     -0.91040823701191     -0.27231913428664
  N   -2.84470605037139     -1.09764020836879     -0.80869725109928
  N   1.85875718000928     -0.13780599140990     -0.14211802925865
  O   2.26078015947537      0.81757375253074      0.51481768564464
  O   2.50338407921435     -1.13625150540461     -0.44828628856872
  N   0.01831346548240      1.25895591688521     -0.96251160225144
  H   0.32554977157878      1.53132359475955     -1.88636105461059
  H   0.41466611586692      1.89635556913573     -0.28004784161868
