15
Coordinates from ORCA-job run
  C   -0.52537017744399     -0.63566584592667      0.39455278469069
  C   0.54334766566999     -0.17360077209557     -0.64710628068176
  Cl  -0.23907276173203     -2.34520242124193      0.84165398129659
  H   0.71170135183993     -1.00160465772779     -1.33586063396492
  N   -0.46244603865229      0.15327794706905      1.58871795104358
  H   -1.21730296169702     -0.08404840562552      2.22073005234255
  H   -0.49183124732055      1.14459492696683      1.38131974384365
  C   -1.82428274893111     -0.59332767912390     -0.30552013454447
  N   -2.85561342890059     -0.49209902901101     -0.86185268532630
  N   1.83549356401357      0.02926226042575      0.09793941103899
  O   2.02983101473307      1.15334145474039      0.54977013744014
  O   2.57442068575845     -0.94161096642695      0.20815539830888
  N   0.26732403747019      1.02281568251833     -1.37221509906303
  H   -0.53477188748442      0.92469208008481     -1.97869921526762
  H   0.18857293267681      1.83817542537416     -0.78158541115696
