15
Coordinates from ORCA-job run
  C   -0.66632960502721     -0.51332947961941      0.32582681493105
  C   0.59427958732641     -0.16792134232307     -0.47575715173107
  Cl  -1.36878827037213     -1.96121849303987     -0.48243963868545
  H   1.26493865189963     -1.03350145127968     -0.39782700225206
  N   -0.30680746341697     -0.91624309084143      1.66289764568283
  H   -1.09165777505049     -1.38260260650983      2.10269732250487
  H   -0.07310350109608     -0.08977607881319      2.20162566107450
  C   -1.67566217368966      0.55456822877298      0.24299927275531
  N   -2.50893357879959      1.38311158137432      0.25946768589817
  N   1.35980726698084      0.96408113681725      0.17476485543246
  O   0.86882220220379      1.56153516099175      1.12840966254131
  O   2.44064387714634      1.20876099424401     -0.34871136359084
  N   0.28427779629896      0.30556388738717     -1.79533911856805
  H   -0.26413521414653     -0.38195425519851     -2.29528433151759
  H   1.14364819974268      0.46992580803747     -2.30533031447541
