15
Coordinates from ORCA-job run
  C   -0.68435744090487     -0.47242111123253      0.25993055495616
  C   0.61625048822054     -0.23727585996667     -0.54725379344859
  Cl  -1.53130749085644     -1.80928855085312     -0.58648380982313
  H   1.10283698321357     -1.20486917612293     -0.66334142899511
  N   -0.36153767387333     -0.92176484884006      1.59051832536564
  H   -0.07846169257332     -0.12697729742192      2.15465611465896
  H   -1.17153455806633     -1.35105229520878      2.02217987545423
  C   -1.57848174132354      0.69560805619561      0.18878066124298
  N   -2.29554427133690      1.62599783014247      0.13967004997123
  N   1.55639783390447      0.57199479601629      0.31343462189176
  O   2.73166784739834      0.23625507453358      0.33300709786325
  O   1.06195363923594      1.53900407136441      0.89607102399736
  N   0.50573407924565      0.43236266580254     -1.79529820773620
  H   0.25623349915645     -0.19738615824203     -2.54271311535140
  H   -0.12984950144023      1.21981280383313     -1.76315797004713
