15
Coordinates from ORCA-job run
  C   -0.56784689124588     -0.35254865392855      0.44487378282973
  C   0.42898706916699      0.22567162343921     -0.59976867104376
  Cl  0.25375182797540     -0.34293566151738      2.08328757101431
  H   -0.03444469221627      0.07407927059216     -1.57566801793027
  N   -1.73850405814638      0.45359985963100      0.39995757398603
  H   -1.53227014959393      1.39019506404639      0.72502298347993
  H   -2.48008191858816      0.06051058712349      0.96667153328387
  C   -0.93623027799284     -1.74003921433228      0.16313060860721
  N   -1.30965365021150     -2.83523631816628     -0.04075829318904
  N   1.67352752746969     -0.63492700385450     -0.60607089648830
  O   1.56989662723163     -1.71239826749368     -1.18808302816337
  O   2.66129061258138     -0.20913636207005     -0.02178467865526
  N   0.79178125944611      1.58065006974891     -0.43441582258074
  H   0.11581809648758      2.22576986611869     -0.81022014522347
  H   1.10197861763619      1.81874514066287      0.49582550007318
