15
Coordinates from ORCA-job run
  C   -0.66485058330588     -0.47546601710712      0.40232684176159
  C   0.40650873931809     -0.17213325319347     -0.66256866987769
  Cl  -0.21054110591617     -2.08333173763232      1.16731931669224
  H   0.44589330924237     -0.98620461268022     -1.38625350753227
  N   -0.81150938530119      0.58993538552909      1.32151256439684
  H   -1.60365667435856      0.45081343127025      1.93498416351246
  H   0.03755427868484      0.73796650068786      1.85293277262680
  C   -1.93427974567948     -0.70006869916533     -0.29486345719607
  N   -2.96184702096569     -0.88522400054081     -0.83225055153266
  N   1.78975077072127     -0.21703010811527     -0.00240507183865
  O   1.99396955864699      0.57284256908360      0.91987188391219
  O   2.61217795855048     -0.98846096709319     -0.48339795910919
  N   0.11283929580821      1.06091436367118     -1.27999905693783
  H   0.05461723917822      1.81606287079246     -0.61040765194218
  H   0.73337336537652      1.27938427449329     -2.04680161693561
