15
Coordinates from ORCA-job run
  C   -0.54039361284579     -0.61874746748768      0.43324914010720
  C   0.41307066261043     -0.07462614774538     -0.65748069049643
  Cl  0.05309569156710     -2.15108555572911      1.12023276413391
  H   0.38175502004938     -0.73053973851635     -1.52755443241636
  N   -0.65432754094074      0.34782653153030      1.49821890099320
  H   -1.21155182091748      1.13065947641108      1.17274027533192
  H   -1.11926835359051     -0.06957637384420      2.29564972472863
  C   -1.82099670646841     -0.90969782732318     -0.23979246774726
  N   -2.86022246490043     -1.09890712895649     -0.75543492282928
  N   1.85704590833410     -0.14829029706434     -0.17120425761273
  O   2.27316810417747      0.80633100413880      0.47798906598502
  O   2.49246657950773     -1.15016799312233     -0.48540997598154
  N   0.01027248735631      1.25309195524950     -0.97114072503505
  H   0.31536415760936      1.52266512814336     -1.89660181885100
  H   0.41052188845149      1.89106443431600     -0.29146058031022
