15
Coordinates from ORCA-job run
  C   -0.50897722130791     -0.26929025540116      0.61025977984780
  C   0.45716052499168      0.19282568892095     -0.49424154077398
  Cl  0.28005242100462     -0.24399479733008      2.20231691612914
  H   -0.07003158882585      0.05952943767131     -1.45542391419464
  N   -1.58909675334952      0.70948027526109      0.63969616494414
  H   -2.19418794539451      0.56533435049089     -0.16413626789009
  H   -2.14593889073011      0.56923482110131      1.47570893968011
  C   -1.01248095357639     -1.62698630545149      0.34868630981893
  N   -1.55727605135030     -2.63902955060078      0.10157325619496
  N   1.65865065946097     -0.71840683088688     -0.63912293055196
  O   2.55431887637824     -0.26880443268926     -1.34481180244832
  O   1.63804077291392     -1.82175020474599     -0.10627065263317
  N   0.93669669639908      1.50667853229633     -0.21855054050858
  H   1.39240757273940      1.89921467873798     -1.03017166852973
  H   0.15966188064670      2.08496459262576      0.07548795091539
