15
Coordinates from ORCA-job run
  C   -0.65116731484015     -0.56466061134138      0.22866145943838
  C   0.65646302502689     -0.16446768345318     -0.52067504869943
  Cl  -1.46143505708024     -1.80286859889177     -0.80486589796741
  H   1.30937600020029     -1.03786698216749     -0.48709264533399
  N   -0.35385631391315     -1.16419368157844      1.48830423939883
  H   0.34903518606034     -0.64691637974151      2.00163109858818
  H   -1.18445737512856     -1.29724186942776      2.05035843847727
  C   -1.56376292479725      0.59085696415251      0.27646129351248
  N   -2.27060506814353      1.52731591597560      0.35782301582787
  N   1.32596140033049      0.89699271811751      0.32673263878427
  O   1.08373747355801      2.06524044704885      0.04758762444856
  O   2.03149053285403      0.50353190495041      1.25584876125400
  N   0.54436531890854      0.34530717685181     -1.83879625922893
  H   0.27760507290435     -0.38020324469933     -2.48813759715412
  H   -0.09474995594004      1.12817392420416     -1.89484112134598
