15
Coordinates from ORCA-job run
  C   -0.53166573882200     -0.38016643194397      0.42820883765527
  C   0.45358640791748      0.45697899165990     -0.44462764160203
  Cl  0.37235365970217     -1.33622518429340      1.62937675757197
  H   -0.16637964150307      1.03773945955975     -1.13310345528928
  N   -1.33702356801370      0.59045150043221      1.14593123999169
  H   -2.00731761348439      1.00757108324241      0.50600302911175
  H   -1.85674884864162      0.12777248411201      1.88387749810952
  C   -1.33243948472125     -1.31214231786979     -0.37807232423682
  N   -2.05197948679455     -2.00673031557496     -0.99710950423702
  N   1.24313700019716     -0.47238094184963     -1.32012843030138
  O   0.71627136395557     -0.79976764132612     -2.38068154763899
  O   2.33083357091840     -0.84986554476887     -0.89706536243196
  N   1.34785704975653      1.30491244088692      0.26363802617077
  H   0.81269242479958      1.88439737463126      0.89915214766265
  H   2.00682290473374      0.74745504310226      0.79360072946386
