15
Coordinates from ORCA-job run
  C   -0.65406193759090     -0.63723908309989      0.30850987457396
  C   0.56653307572340     -0.24205651018509     -0.55574525676316
  Cl  -1.43628892965185     -2.04545849245232     -0.47307277236840
  H   1.27947993324711     -1.06628489630691     -0.51170632582149
  N   -0.24689350664901     -1.04671781541987      1.62021224236369
  H   0.33974266683642     -0.35758111547417      2.07335718111295
  H   -1.05206228855771     -1.25564599076452      2.19680300633646
  C   -1.63327045108717      0.46751351719081      0.27517527080022
  N   -2.37500622065350      1.38016771255078      0.27455300079520
  N   1.26731724890032      0.92652773935153      0.17774710213399
  O   1.00447869210961      2.06086062440650     -0.20955209887541
  O   2.02993312863327      0.63544284213503      1.09812231975874
  N   0.20367400265943      0.08565677351881     -1.87463156600897
  H   1.00947023816108      0.13293994683110     -2.48205206776965
  H   -0.30404565208047      0.96087474771819     -1.91871991026819
