15
Coordinates from ORCA-job run
  C   -0.69283973319488     -0.46525641050742      0.39406314777368
  C   0.51694369121585     -0.27146982948632     -0.54678563906336
  Cl  -1.49719865999680     -2.01739156979643     -0.16095836155254
  H   1.11255951519165     -1.18524589811458     -0.54017273791406
  N   -0.27934341358277     -0.48027491622110      1.74568720736351
  H   -1.05828353599775     -0.59325060865654      2.38100989005551
  H   0.42318250183123     -1.18803105741011      1.92270649037854
  C   -1.67680434412692      0.60192489058770      0.19219849325082
  N   -2.46651766641531      1.45584818833813      0.02837670452852
  N   1.41505899122078      0.77362173121900      0.12188382829296
  O   2.36123381699060      0.35138278038395      0.77938188594556
  O   1.11244941143385      1.94841523186519     -0.05877182609675
  N   0.11622482183413      0.07382858481128     -1.85347035642397
  H   -0.26025165115938      1.01390612175510     -1.88806503499082
  H   0.87358625475570     -0.01700723876787     -2.51608369154766
