15
Coordinates from ORCA-job run
  C   -0.51606210246119     -0.41027713088817      0.56931517916119
  C   0.18783573729470      0.31332749279775     -0.59726686250780
  Cl  0.72770311933968     -0.57730411229911      1.93082852605896
  H   -0.50263235016379      0.30110049384097     -1.44253479566991
  N   -1.64526614584621      0.35920025729037      0.91254985393497
  H   -1.37813621540530      1.32240588782342      1.07587872399189
  H   -2.15817032011617     -0.02986327207185      1.69242299604415
  C   -0.93249632223458     -1.77543326631101      0.24382489745819
  N   -1.33694786846847     -2.85821789595830      0.03412344282576
  N   1.38667029876185     -0.51357940654794     -1.06481042257820
  O   2.50557477407704     -0.07715235933781     -0.81809677177488
  O   1.11978520401552     -1.54918965001881     -1.66588579584183
  N   0.51396679583299      1.63776675479795     -0.21831272090899
  H   0.69463563969621      2.21403635582485     -1.02901281900781
  H   1.33453975567768      1.64317985105770      0.37597656881430
