15
Coordinates from ORCA-job run
  C   -0.54829420416589     -0.59661526642860      0.45628709677774
  C   0.41403685470626     -0.10366412087146     -0.65105579776221
  Cl  0.03040975963096     -2.10638072256752      1.20395164296898
  H   0.37857127924865     -0.79291920929189     -1.49477817180457
  N   -0.65831112580557      0.41067577370579      1.48257176225584
  H   -1.20395482607099      1.18707597371376      1.12375168169038
  H   -1.13340262322750      0.02944629975822      2.29205408533470
  C   -1.82796511605442     -0.90347494756898     -0.21156677014011
  N   -2.86067413821221     -1.09755416887857     -0.73841106422466
  N   1.85560125894984     -0.17250494977651     -0.15708155945114
  O   2.27722290517009      0.80057691476992      0.46035136068012
  O   2.48407851463356     -1.18955047278314     -0.43444930365151
  N   0.02609565718539      1.21503149639037     -1.01693965917107
  H   0.33470189665383      1.44505448407044     -1.95182676300784
  H   0.43188390735801      1.87480291575815     -0.36185854049465
