15
Coordinates from ORCA-job run
  C   -0.67439904776564     -0.39533484008008      0.33639047097208
  C   0.61368545034065     -0.22181466819215     -0.51601515791268
  Cl  -1.55841917709131     -1.80707366992959     -0.47966210353047
  H   1.14434610006663     -1.17489952930998     -0.51125745230964
  N   -0.36032872731066     -0.61126394083503      1.68871749431815
  H   -1.17595879712673     -0.72254908531155      2.27598339940317
  H   0.29020090088489     -1.37479400019451      1.82465557430214
  C   -1.56375895169514      0.75746639315731      0.19339904225964
  N   -2.28330800362232      1.67794897879727      0.07025489963835
  N   1.49168767788416      0.73986599687540      0.24057695162364
  O   1.19915100055170      1.92639088650203      0.14141754991821
  O   2.40599243377815      0.25933315990755      0.90183999428304
  N   0.47232871554372      0.26132915101901     -1.84388033092120
  H   -0.06205151923537      1.12099208973311     -1.87499622234569
  H   0.05983194479731     -0.43559692213877     -2.44742410969870
