10
Coordinates from ORCA-job run
  C   0.61522730615719     -0.24821987824434     -0.36606842443804
  C   -0.60918092057668      0.26892687145043      0.38729583449498
  F   0.22033241974869     -1.22618324282124     -1.25173838598469
  H   -0.30000931561300      0.99729821487898      1.14220965058840
  H   1.08809217144756      0.55299944173646     -0.94022203396837
  H   -1.08596437688957     -0.56942100486852      0.90152559470362
  C   1.59002060319219     -0.81096988930469      0.58086746350099
  N   2.35585302049583     -1.24398458418399      1.35706468273886
  C   -1.56096695660377      0.88707838594141     -0.53299862404603
  N   -2.31440395135847      1.39147568541550     -1.27693575758972
