10
Coordinates from ORCA-job run
  C   0.51983896119506     -0.41958443131827     -0.35611365289763
  C   -0.51193949794388      0.44298080138642      0.36890808907622
  F   -0.06263185265785     -1.61621795129541     -0.71188773752264
  H   -0.88057092744068     -0.10673854837270      1.23866114619284
  H   0.86498821720998      0.06995369962941     -1.27074697715651
  H   -0.04205508279800      1.36401424224834      0.72470730414239
  C   1.67000196062737     -0.67819842521564      0.52346183041091
  N   2.58027730991692     -0.85961337520256      1.24123302770338
  C   -1.62770838744013      0.76843647661537     -0.51626693380788
  N   -2.51020070066880      1.03296751152504     -1.24195609614108
