16

C	-0.590548	0.001177	-1.400718
C	0.0	0.0	0.0
Br	-0.072017	1.637623	-2.390809
H	1.100013	0.0	0.0
H	-0.096793	-0.79876	-1.952043
C	-2.100302	-0.132955	-1.457008
H	-2.369147	-1.070089	-0.963966
H	-2.577942	0.693077	-0.928563
H	-2.462665	-0.155822	-2.487517
N	-0.385371	-1.287912	0.596657
H	-1.137439	-1.118324	1.25686
H	0.428309	-1.617718	1.103806
N	-0.553891	1.105482	0.812305
H	0.091403	1.18718	1.595298
H	-0.414502	1.962677	0.282161
F	2.702345	0.0	0.0
