16

C	-0.613352	-0.034319	-1.391948
C	0.0	0.0	0.0
Br	0.131359	1.415619	-2.488089
H	1.098257	0.0	0.0
H	-0.280472	-0.940293	-1.906582
C	-2.126875	0.076759	-1.399838
H	-2.414957	1.034667	-0.964959
H	-2.540297	-0.728843	-0.785656
H	-2.533831	0.011268	-2.412289
N	-0.463437	-1.24511	0.689465
H	-0.099564	-2.023823	0.139329
H	0.105867	-1.267689	1.537346
N	-0.463593	1.158962	0.747415
H	0.326054	1.510277	1.278516
H	-1.196595	0.872042	1.387879
F	2.697899	0.0	0.0
