16

C	-0.423146	0.165559	-1.457978
C	0.0	0.0	0.0
Br	-0.227964	-1.524442	-2.448818
H	1.099976	0.0	0.0
H	-1.488789	0.40961	-1.539906
C	0.481385	1.209511	-2.103368
H	0.407623	1.206987	-3.192005
H	0.19215	2.205464	-1.748027
H	1.504987	0.993113	-1.776817
N	-0.573428	-1.155613	0.643597
H	-1.486654	-0.92247	1.019764
H	0.033705	-1.436411	1.401995
N	-0.452436	1.258708	0.684361
H	0.248939	1.958485	0.452088
H	-0.287678	1.076249	1.671161
F	2.735412	0.0	0.0
