16

C	-0.576061	0.020803	-1.408544
C	0.0	0.0	0.0
Br	-0.079249	1.684362	-2.359317
H	1.099765	0.0	0.0
H	-0.072312	-0.763651	-1.973949
C	-2.083685	-0.139273	-1.487486
H	-2.34135	-1.084279	-1.003852
H	-2.428752	-0.158928	-2.524669
H	-2.59979	0.674781	-0.971814
N	-0.390137	-1.313554	0.558879
H	0.437209	-1.646451	1.041701
H	-1.102101	-1.133493	1.258908
N	-0.494434	1.101357	0.844799
H	0.336872	1.564319	1.20079
H	-0.968746	1.794211	0.27589
F	2.690254	0.0	0.0
