16

C	-0.396339	0.094591	-1.477884
C	0.0	0.0	0.0
Br	-0.283588	-1.672078	-2.382398
H	1.101374	0.0	0.0
H	-1.447402	0.378705	-1.59623
C	0.564126	1.049361	-2.1681
H	1.577938	0.770525	-1.857532
H	0.455889	1.047149	-3.256231
H	0.354647	2.053471	-1.790243
N	-0.541469	-1.12259	0.753411
H	-1.307394	-1.558305	0.252116
H	0.193628	-1.81536	0.825965
N	-0.442055	1.291875	0.580955
H	0.398435	1.718229	0.95796
H	-1.026505	1.053587	1.373585
F	2.729409	0.0	0.0
