13
Coordinates from ORCA-job run
  C   -0.02791889568538      0.29756975361400     -0.22987520151549
  C   0.73435198883376     -0.89086299479301     -0.77812143624366
  Cl  -0.24778293350369      1.51986579767483     -1.49427129314770
  H   0.12841179465272     -1.41072593505746     -1.52119738771102
  H   0.96303551581448     -1.58311946551059      0.03683221940031
  H   1.66630455435101     -0.56644129726355     -1.24135440883067
  N   0.87223614949188      0.90691991073272      0.85035660351010
  O   0.52900852267765      0.73778296474944      2.01708910733879
  O   1.86312371736430      1.51992479094843      0.47600945687980
  C   -1.37110471892393     -0.06406073375416      0.36628039370268
  H   -1.84749616755263      0.80949132964407      0.81059641207271
  H   -1.24867574394787     -0.82646440529362      1.13437542238243
  H   -2.01249378357230     -0.44887971569111     -0.42771988783827
