18
Coordinates from ORCA-job run
  C   -0.63036814209804      0.37463049474296     -0.25122949033770
  C   0.58506365545339     -0.44425460083170      0.20250075137860
  F   -0.32841959585308      1.01696695247906     -1.41586899521306
  H   0.34582724612709     -0.82716366792334      1.19842882278293
  C   -1.90618041091967     -0.40505205594961     -0.42448139165554
  H   -1.73162636844477     -1.15991755541346     -1.18929580076773
  H   -2.70381911714035      0.26772195335553     -0.74589278507991
  H   -2.19135619254617     -0.88279403801487      0.51288091237100
  N   -0.87120063553468      1.45351896798911      0.79321248605513
  O   -1.07900148004257      1.03767502862023      1.93154980257378
  O   -0.84354882474817      2.62626266999191      0.44467670879947
  C   1.82591500790851      0.43744806805648      0.28524106852765
  H   2.08002323572347      0.82046183200496     -0.70527796432626
  H   1.68447657439564      1.29169723382501      0.95027056273561
  H   2.66675585827945     -0.14782532564222      0.66306009904040
  N   0.75039113769953     -1.54587764049602     -0.74203415945180
  H   1.62946870416145     -1.47554439536255     -1.23497826662238
  H   0.71659934757898     -2.43895392143148     -0.27276236081020
