18
Coordinates from ORCA-job run
  C   -0.56458675916882      0.32759757091716     -0.25733989246895
  C   0.63615749586583     -0.48326643402103      0.25979986649701
  F   -0.23418344016568      0.88222679239189     -1.46536449877417
  H   0.33662989241989     -0.90699354981687      1.22259938101312
  C   -1.86297221449807     -0.42577252100451     -0.40273432347457
  H   -1.74237364191962     -1.20303990389541     -1.15742172932837
  H   -2.15641309814907     -0.87161626161672      0.54663778969694
  H   -2.64654406297137      0.25635755516449     -0.73842105079391
  N   -0.79091453721662      1.47396643044144      0.70850474782178
  O   -0.60246943108021      2.61835060643676      0.31973252313741
  O   -1.12785862734369      1.13048282472592      1.83981862328479
  C   1.85208783640440      0.41296896154240      0.46005463627857
  H   1.68250233066497      1.17125558478221      1.22629458427957
  H   2.11538988755033      0.91994669255137     -0.47102402772387
  H   2.69221880620560     -0.20992491128491      0.76621038224763
  N   0.99054644272652     -1.58051499115222     -0.62555712330041
  H   1.16389939930451     -1.23323878959302     -1.56146088358063
  H   0.26088372137111     -2.27978565656896     -0.67032900481192
