18
Coordinates from ORCA-job run
  C   -0.76367459134150     -0.17302517435218     -0.26827234257447
  C   0.75737059637166     -0.41416238573976     -0.33023083565184
  F   -1.39186973700675     -1.38513481547145     -0.40571546346024
  H   0.90047221630956     -1.00782047457298     -1.24071901665141
  C   -1.30137120227776      0.52628546955643      0.95047676189561
  H   -1.17629363492246     -0.12954041033250      1.81222946024999
  H   -0.78886736397371      1.46936962604626      1.12822608122843
  H   -2.36443356835303      0.73265357612733      0.82077974256309
  N   -1.11249684643237      0.61576561413893     -1.51965365776941
  O   -1.21220753687625     -0.01848794738686     -2.56353381186647
  O   -1.18533265300747      1.83843277554076     -1.40429026567765
  C   1.21220807941939     -1.23101945730643      0.87044875700509
  H   0.58940116172516     -2.11518829483577      1.01155608108394
  H   1.18494145184339     -0.63194172349405      1.78501947080236
  H   2.24404884812853     -1.54429678608935      0.70952315863134
  N   1.57442818079489      0.77692182480578     -0.44534871182258
  H   1.47014038932027      1.37582538837743      0.36385794381615
  H   1.36053621027845      1.31736319498840     -1.27335335180192
