18
Coordinates from ORCA-job run
  C   -0.77481892803919      0.03127736148722     -0.38366335128765
  C   0.60946194193916     -0.59133498052411     -0.21898219402907
  F   -1.30017756017185     -0.46941143831080     -1.55182220950307
  H   0.40396326297560     -1.67459102660771     -0.27030491387707
  C   -1.75922203276262     -0.20540714544361      0.73120277123677
  H   -1.83655038670769     -1.27776632709316      0.92024093143282
  H   -1.45242528530426      0.30781162282743      1.63936479559194
  H   -2.73838760080365      0.16575843028474      0.42280466398762
  N   -0.61813197899955      1.52803961344003     -0.60083917493864
  O   -0.79064786332186      1.97180921519990     -1.72519160153491
  O   -0.30618897589858      2.16976729223859      0.39891900614504
  C   1.29080951292940     -0.28889167334915      1.10529278704721
  H   1.48630066806449      0.77827339681328      1.20050443109208
  H   0.69379539704339     -0.62365635354388      1.95490315357057
  H   2.24434273526935     -0.82274854609316      1.14438068161827
  N   1.43759711725119     -0.10737069559650     -1.31543798479835
  H   2.36608167890203     -0.50450328280905     -1.24563974526584
  H   1.04319829763463     -0.38705546292005     -2.20573204648765
