18
Coordinates from ORCA-job run
  C   -0.63569091475342      0.35654965276284     -0.23634478417752
  C   0.54687164552789     -0.51651102209452      0.18255339406027
  F   -0.36295397977362      0.89115615729512     -1.46793282344300
  H   0.28025500276472     -0.95914405266435      1.14623141980217
  C   -1.97614720416702     -0.32795971714190     -0.27270643626413
  H   -2.24255919497463     -0.68762711359240      0.72025506538924
  H   -1.90909788862074     -1.16853517837460     -0.96059053055648
  H   -2.73420028870189      0.37741580418717     -0.61949150906908
  N   -0.70891385684610      1.51907795293971      0.73808484404093
  O   -0.93983651867647      1.20205052555648      1.90255788336969
  O   -0.51946616595370      2.65180635838557      0.31659687107058
  C   1.82574140948381      0.30671287383441      0.33598799060710
  H   2.66311082064542     -0.36227900622467      0.54650488874887
  H   2.04307990280781      0.85195210042435     -0.58542888743289
  H   1.76045347185470      1.02522612644907      1.15631899784687
  N   0.63040280328807     -1.59510252157225     -0.79819517361470
  H   1.23848680359584     -2.32500572404189     -0.44871958865063
  H   1.03946415249931     -1.23878321612811     -1.65468162172726
