18
Coordinates from ORCA-job run
  C   -0.58065935230106      0.32144307108448     -0.22929367695610
  C   0.65189701975561     -0.47660944624548      0.23005292122345
  F   -0.32606590726193      0.85298356351134     -1.46557957921949
  H   0.41269283911665     -0.88102337033285      1.21769805028501
  C   -1.88287794633708     -0.43764601455870     -0.28071887333059
  H   -2.11407312122804     -0.86909139627268      0.69223437263865
  H   -1.80762906987664     -1.22660708327502     -1.02912341973537
  H   -2.68872077963668      0.23689949243173     -0.57667159431602
  N   -0.75193148916076      1.48581818024417      0.72603878669784
  O   -0.58551377483655      2.62252468035140      0.30596158115095
  O   -1.01322948841199      1.16360125798294      1.88331938886477
  C   1.87454162094463      0.42642746267824      0.33788410960541
  H   1.75019425088488      1.19605706003574      1.10150034006325
  H   2.73513053546504     -0.18856788484930      0.60009902099545
  H   2.07614254605556      0.91924419035184     -0.61589007643733
  N   0.95482809761270     -1.59114119655995     -0.65278236310468
  H   1.07135874514430     -1.26284873307213     -1.60420332769502
  H   0.22491527407137     -2.29146383350573     -0.63952566073014
