18
Coordinates from ORCA-job run
  C   -0.75611670785170     -0.08435724157350     -0.40913369100561
  C   0.76235755487207     -0.22482243661616     -0.31223214760441
  F   -1.24395473917202     -1.17221636116796     -1.09437852909882
  H   1.08809849699125     -0.46758306815927     -1.33334307000792
  C   -1.49894635817314      0.08602123344419      0.88261572973570
  H   -1.43963222299103     -0.84793331314144      1.44238002845012
  H   -1.05647441055740      0.89402828618552      1.46076469494942
  H   -2.54684353080206      0.31167452632344      0.68673068275640
  N   -1.00338781996619      1.10736453750674     -1.33195373862824
  O   -0.61755104484028      0.97215435528206     -2.49036852984988
  O   -1.51548909389813      2.11633483028314     -0.85626594068801
  C   1.14304795728964     -1.36514460666655      0.61764161676642
  H   2.21200563062105     -1.57393654014956      0.52496743920383
  H   0.93637246441914     -1.10003835383051      1.65658714890896
  H   0.60054163738833     -2.27646221842972      0.36294604610381
  N   1.30638776170329      1.03363185916306      0.18672899075299
  H   2.23091778480854      0.88096466886347      0.56928657207336
  H   1.39866664015864      1.70931984268312     -0.56297330281807
