18
Coordinates from ORCA-job run
  C   -0.55053016957246      0.35589640136578     -0.25008408683896
  C   0.61507586215549     -0.51455697210385      0.25045199803727
  F   -0.20269537803757      0.90900976468912     -1.45379053299142
  H   0.30284779777963     -0.93373478617064      1.21117934685848
  C   -1.88278101077238     -0.33586145807449     -0.39513892726146
  H   -2.63644070203566      0.38530064323402     -0.71750031763898
  H   -2.18997220836753     -0.77847076597537      0.55143224180516
  H   -1.80345637085669     -1.10942471437632     -1.15901956425259
  N   -0.71896097893248      1.50020429445704      0.73006957923216
  O   -0.48264436431814      2.63946452340226      0.35271285900232
  O   -1.06337153771663      1.15945979597082      1.85999348185156
  C   1.87204514857302      0.32316505742170      0.45093655400321
  H   2.68595023227583     -0.34100630854974      0.74081387637028
  H   2.14977430937425      0.83070455597542     -0.47558865522998
  H   1.74299591761816      1.07723327755914      1.22912466974612
  N   0.91270212411644     -1.61807029969457     -0.64800709142898
  H   0.14991235825697     -2.28080000705697     -0.69653164452858
  H   1.09854897045977     -1.26951300207337     -1.58105378673556
