18
Coordinates from ORCA-job run
  C   -0.80906686965745      0.00569476269656     -0.43689821940640
  C   0.57953745210485     -0.62641747639493     -0.27852425619117
  F   -1.41648210520418     -0.57388063402766     -1.51305926453765
  H   0.38541661496340     -1.68522961987982     -0.48433118642584
  C   -1.73869485314447     -0.07708322855871      0.74869607978477
  H   -1.34696530396752      0.48492743208817      1.59495455596345
  H   -2.71087584668014      0.32845199488154      0.46171666123167
  H   -1.86887623428346     -1.12299893980232      1.03332232405502
  N   -0.64232944554031      1.47545689393531     -0.78676704104485
  O   -1.22247333637591      1.91320316205345     -1.76633459614108
  O   0.06011939301136      2.11825974416546     -0.00722433266712
  C   1.19338306925303     -0.50873564281192      1.11409361599751
  H   0.56570981979727     -0.96049027319748      1.88563572548446
  H   2.15226829952046     -1.03277843269261      1.11745963615858
  H   1.36897768213824      0.53596811083679      1.37254420092378
  N   1.42228460773303     -0.12423088422848     -1.35936871275766
  H   1.94836881505523      0.68210317763358     -1.04308948419064
  H   2.08069824127661     -0.83222014669691     -1.65382570623683
