19

C	-0.617672	0.009445	-1.515874
C	0.078206	-0.090571	-0.142153
Cl	-0.452533	-1.564196	-2.413451
H	1.136563	-0.321784	-0.270748
C	-2.098997	0.326316	-1.417182
H	-2.641927	-0.458017	-0.890774
H	-2.215422	1.264859	-0.87144
H	-2.520528	0.439043	-2.419349
C	0.120857	1.06329	-2.325567
H	1.171515	0.788049	-2.439779
H	-0.329395	1.161706	-3.316834
H	0.069644	2.008879	-1.786026
N	-0.464002	-1.311774	0.606387
O	0.19702	-2.346472	0.59403
O	-1.544744	-1.180955	1.189614
N	-0.048406	1.111608	0.584317
H	0.875935	1.189383	1.169773
H	-0.865871	1.074024	1.183448
H	2.186422	1.050134	1.692037
