19

C	-0.4452	-0.07235	-1.510064
C	0.095597	-0.038711	-0.071934
Cl	-2.262405	0.029683	-1.462407
H	1.193061	-0.130394	-0.092839
C	0.062231	1.175626	-2.213023
H	-0.239621	2.057875	-1.653171
H	-0.322856	1.216284	-3.235334
H	1.156272	1.148161	-2.235754
C	-0.084978	-1.321352	-2.29806
H	-0.543106	-2.216389	-1.881999
H	-0.414767	-1.205303	-3.33378
H	1.000009	-1.455846	-2.279903
N	-0.34913	-1.309852	0.657958
O	-1.24773	-1.220018	1.492606
O	0.220998	-2.36161	0.363859
N	-0.193841	1.141479	0.635322
H	0.683472	1.299493	1.204186
H	-1.017192	1.022252	1.211625
H	2.263683	0.997154	1.435501
