14

C	0.0	0.0	0.0
C	-0.576041	-0.216427	-1.419271
Cl	1.789541	0.0	0.0
H	-1.663133	-0.331154	-1.222238
C	-0.421504	1.306081	0.516837
N	-0.627418	2.382819	0.939049
C	-0.408039	-1.08229	0.904004
N	-0.61235	-1.962893	1.654395
C	-0.052968	-1.454455	-1.995263
N	0.399412	-2.407873	-2.514065
N	-0.334725	0.953292	-2.237772
H	-1.215356	1.30165	-2.590135
H	0.300469	0.770383	-3.000058
Br	-3.565113	0.0	0.0
