14

C	0.0	0.0	0.0
C	-0.565694	-0.11439	-1.433679
Cl	1.789441	0.0	0.0
H	-1.656994	-0.200269	-1.250861
C	-0.420792	1.266813	0.606886
N	-0.6145	2.314851	1.101076
C	-0.408548	-1.14716	0.819052
N	-0.612792	-2.095226	1.483292
C	-0.079063	-1.340945	-2.068932
N	0.357958	-2.281857	-2.622706
N	-0.278599	1.089125	-2.180874
H	-1.118811	1.415266	-2.63832
H	0.455256	0.956159	-2.86092
Br	-3.564583	0.0	0.0
