14

C	0.0	0.0	0.0
C	-0.534023	-0.370858	-1.429273
Cl	1.786221	0.0	0.0
H	-1.58678	-0.641648	-1.245394
C	-0.437575	1.344692	0.379453
N	-0.583674	2.476771	0.662329
C	-0.400001	-1.006719	0.988885
N	-0.596365	-1.828778	1.805806
C	0.192039	-1.536437	-1.939496
N	0.74903	-2.472412	-2.379785
N	-0.525653	0.711096	-2.378164
H	-1.315304	1.312233	-2.170685
H	0.335453	1.243432	-2.34312
Br	-3.435235	0.0	0.0
