14

C	0.0	0.0	0.0
C	-0.441997	-0.08354	-1.533215
Cl	1.786241	0.0	0.0
H	0.225563	-0.851881	-1.942093
C	-0.488487	1.20305	0.661398
N	-0.807444	2.20668	1.183957
C	-0.451692	-1.217288	0.671896
N	-0.734047	-2.241897	1.174038
C	-0.067467	1.195792	-2.158534
N	0.239169	2.21458	-2.655171
N	-1.784992	-0.430965	-1.834406
H	-2.503868	0.127687	-1.358898
H	-1.981308	-1.390974	-1.578137
Br	-4.405042	0.0	0.0
