16

C	0.0	0.0	0.0
C	-0.480851	0.030377	-1.442784
Br	1.954384	0.0	0.0
H	-1.536835	0.302816	-1.342827
H	0.067656	0.796866	-1.989583
N	-0.265825	1.438373	0.618314
O	-0.253795	2.41115	-0.126189
O	-0.43503	1.482214	1.831954
N	-0.610915	-0.987874	0.742914
H	-0.405006	-0.851222	1.726581
H	-1.663837	-0.748047	0.542401
C	-0.362496	-1.334423	-2.105721
H	-1.021095	-2.041488	-1.602372
H	0.65949	-1.723241	-2.070016
H	-0.666125	-1.264533	-3.155442
F	-2.825746	0.0	0.0
