16

C	0.0	0.0	0.0
C	-0.468424	0.046726	-1.450237
Br	1.954109	0.0	0.0
H	-1.539039	0.261732	-1.347294
H	0.04189	0.864586	-1.963215
N	-0.295194	1.405268	0.658554
O	-0.452897	1.407905	1.874826
O	-0.318017	2.398209	-0.058313
N	-0.594657	-1.027635	0.709641
H	-1.64502	-0.791159	0.526154
H	-0.38429	-0.925349	1.696746
C	-0.255035	-1.286005	-2.154194
H	-0.600862	-1.215229	-3.186725
H	0.795995	-1.578664	-2.163804
H	-0.824913	-2.061348	-1.648447
F	-2.810923	0.0	0.0
