16

C	0.0	0.0	0.0
C	-0.420802	0.060181	-1.476853
F	1.399068	0.0	0.0
H	-0.161142	1.018019	-1.923067
H	-1.496379	-0.131846	-1.534643
C	-0.449849	1.27	0.691273
H	0.036677	2.133535	0.232135
H	-1.535053	1.366863	0.628397
H	-0.149462	1.203297	1.738377
N	-0.452669	-1.141506	0.729134
H	-0.312961	-1.973344	0.166429
H	-1.459433	-1.031336	0.854404
N	0.298004	-0.958308	-2.282098
O	1.037517	-0.564218	-3.183969
O	0.123361	-2.144672	-1.998055
Br	-3.820547	0.0	0.0
