16

C	0.0	0.0	0.0
C	-0.475714	0.054077	-1.451187
F	1.413696	0.0	0.0
H	-0.296889	-0.898905	-1.943109
H	-1.542615	0.296135	-1.439388
C	-0.46046	1.180145	0.826216
H	-0.069086	2.108973	0.414823
H	-0.089963	1.059381	1.848684
H	-1.552313	1.199116	0.825654
N	-0.507182	-1.21014	0.524526
H	0.030586	-2.006004	0.220698
H	-0.601595	-1.191824	1.527458
N	0.256868	1.069268	-2.249242
O	-0.003451	2.257706	-2.051816
O	1.098393	0.66479	-3.051752
Br	-3.936391	0.0	0.0
