16

C	0.0	0.0	0.0
C	-0.259817	-0.206971	-1.511313
F	1.400067	0.0	0.0
H	-0.302125	-1.274395	-1.715865
H	0.594428	0.23713	-2.023096
C	-0.425978	1.338308	0.564248
H	-1.514784	1.400731	0.562482
H	-0.056066	1.396279	1.593511
H	-0.007756	2.164171	-0.011798
N	-0.479398	-1.146241	0.712965
H	-0.394331	-0.964344	1.708633
H	-1.485775	-1.199266	0.524689
N	-1.431563	0.414111	-2.191772
O	-1.541791	1.634565	-2.112866
O	-2.111874	-0.322874	-2.89774
Br	-3.865699	0.0	0.0
