16

C	0.0	0.0	0.0
C	-0.146383	0.073998	-1.556182
F	1.406104	0.0	0.0
H	0.070011	1.082221	-1.902851
H	0.595066	-0.620654	-1.951579
C	-0.473918	1.252585	0.694021
H	-0.219684	1.184997	1.753606
H	-1.556256	1.34516	0.581729
H	0.024951	2.122562	0.261766
N	-0.511189	-1.16157	0.624214
H	-0.480262	-1.949153	-0.013224
H	-1.50132	-0.99176	0.814739
N	-1.414494	-0.343594	-2.204843
O	-1.674957	-1.544997	-2.15573
O	-2.047832	0.503701	-2.825212
Br	-3.907307	0.0	0.0
