16

C	0.0	0.0	0.0
C	-0.485101	0.039929	-1.440133
F	1.421201	0.0	0.0
H	-1.555163	-0.201682	-1.439132
H	-0.299944	1.013117	-1.888314
C	-0.467798	1.242708	0.721408
H	-1.558831	1.28343	0.670926
H	-0.020756	2.133842	0.274586
H	-0.159929	1.187576	1.769413
N	-0.465204	-1.158573	0.66082
H	-0.1303	-1.190197	1.612806
H	-0.225262	-2.000786	0.158348
N	0.242518	-0.933266	-2.298338
O	0.829486	-0.495833	-3.287248
O	0.214263	-2.121764	-1.978158
Br	-4.035911	0.0	0.0
