15

C	-0.572856	0.043699	-1.3956
C	0.0	0.0	0.0
F	-0.158915	-1.03481	-2.122907
H	1.089125	0.0	0.0
H	-0.343598	-0.955758	0.404726
N	-1.980337	0.107023	-1.382539
H	-2.234588	0.753893	-0.64338
H	-2.33378	0.408298	-2.280576
N	-0.020536	1.251078	-2.189845
O	-0.399116	1.324302	-3.359505
O	0.676935	2.076089	-1.610523
N	-0.576082	1.103528	0.785311
H	0.09754	1.860349	0.783206
H	-0.679159	0.805496	1.745723
Cl	3.52587	0.0	0.0
