15

C	-0.564523	-0.026703	-1.397415
C	0.0	0.0	0.0
F	-1.975647	-0.206806	-1.293763
H	1.089548	0.0	0.0
H	-0.351092	-0.891276	0.525186
N	-0.219605	1.086879	-2.14031
H	-0.296323	1.90271	-1.547291
H	-0.731548	1.155771	-3.00587
N	-0.191026	-1.283385	-2.168919
O	0.093853	-2.286608	-1.523789
O	-0.294451	-1.221902	-3.391198
N	-0.432956	1.263443	0.617075
H	-1.26519	1.124086	1.172389
H	0.311265	1.585072	1.222606
Cl	3.465205	0.0	0.0
