15

C	-0.441563	0.069676	-1.447808
C	0.0	0.0	0.0
F	-1.815204	0.188269	-1.492758
H	1.091778	0.0	0.0
H	-0.390944	-0.909399	0.468707
N	0.133186	1.108547	-2.219984
H	1.111662	0.877569	-2.367178
H	0.10314	1.925381	-1.615053
N	-0.142437	-1.268829	-2.118366
O	0.768221	-1.323945	-2.93623
O	-0.84456	-2.210596	-1.758212
N	-0.428654	1.248695	0.632522
H	-1.330178	1.137146	1.075477
H	0.252967	1.503939	1.334479
Cl	3.418794	0.0	0.0
