15

C	-0.345658	0.382408	-1.419029
C	0.0	0.0	0.0
F	-0.153089	1.719557	-1.582854
H	1.101469	0.0	0.0
H	-0.339607	-1.027077	0.153406
N	0.379565	-0.307185	-2.436706
H	0.14339	-1.290521	-2.383515
H	1.368694	-0.214431	-2.204872
N	-1.828596	0.125281	-1.680809
O	-2.57779	1.076499	-1.846336
O	-2.156098	-1.060669	-1.688393
N	-0.661749	0.883254	0.957695
H	-0.222867	1.793802	0.879843
H	-0.442666	0.546009	1.88789
Cl	3.462026	0.0	0.0
