15

C	-0.563265	0.076242	-1.396539
C	0.0	0.0	0.0
F	-1.976155	-0.100802	-1.307892
H	1.088732	0.0	0.0
H	-0.351344	-0.928057	0.457069
N	-0.207976	1.235691	-2.059819
H	-0.272118	2.008271	-1.409827
H	-0.72301	1.373019	-2.915748
N	-0.196017	-1.12632	-2.253817
O	0.10555	-2.166861	-1.680252
O	-0.315759	-0.9854	-3.468658
N	-0.433838	1.214313	0.706128
H	0.29257	1.470517	1.36189
H	-1.286979	1.043937	1.218856
Cl	3.468312	0.0	0.0
