14

C	0.0	0.0	0.0
C	-0.581225	2.3e-05	-1.403848
Br	1.940275	0.0	0.0
H	-1.703008	0.134559	-1.068479
H	-0.328073	0.892229	0.52538
C	-0.437016	-1.194121	0.717524
N	-0.634835	-2.185272	1.315533
N	-0.312174	-1.209111	-2.12355
H	0.207275	-0.999385	-2.966835
H	-1.191032	-1.641037	-2.374147
N	-0.088717	1.208523	-2.110233
O	-0.077069	2.267772	-1.482388
O	0.263009	1.108381	-3.292118
F	-2.65628	0.0	0.0
