14

C	0.0	0.0	0.0
C	-0.447217	0.214708	-1.472411
Br	1.941812	0.0	0.0
H	0.43315	0.209199	-2.122919
H	-0.316958	0.877752	0.552675
C	-0.443797	-1.185971	0.723314
N	-0.596506	-2.113047	1.429737
N	-1.153691	1.436002	-1.583631
H	-1.984504	1.213922	-0.996114
H	-1.437294	1.565518	-2.546639
N	-1.208813	-1.001051	-2.020945
O	-2.097425	-0.780681	-2.835301
O	-0.761754	-2.110997	-1.746221
F	-2.451059	0.0	0.0
