14

C	0.0	0.0	0.0
C	-0.558512	0.06387	-1.428851
Br	1.947291	0.0	0.0
H	-1.644669	0.264431	-1.157824
H	-0.32951	0.877231	0.548435
C	-0.441861	-1.218919	0.666211
N	-0.618124	-2.24939	1.202745
N	-0.435166	-1.10392	-2.227847
H	-1.174986	-1.736787	-1.953649
H	0.464214	-1.558584	-2.119428
N	0.044366	1.260357	-2.093841
O	-0.037806	2.319047	-1.466723
O	0.561463	1.148994	-3.202779
F	-2.610617	0.0	0.0
