14

C	0.0	0.0	0.0
C	-0.42179	-0.062502	-1.524152
Br	1.947158	0.0	0.0
H	0.500579	-0.047199	-2.111284
H	-0.324072	0.9615	0.383312
C	-0.455317	-1.043411	0.908883
N	-0.622685	-1.897536	1.699888
N	-1.302316	0.943655	-1.991954
H	-0.81572	1.83191	-1.98567
H	-2.063478	0.89886	-1.282408
N	-0.973422	-1.439543	-1.836262
O	-0.273055	-2.37286	-1.440625
O	-1.982748	-1.551148	-2.511585
F	-2.431933	0.0	0.0
