15

C	0.0	0.0	0.0
C	-0.420362	-0.119154	-1.489514
Br	1.952591	0.0	0.0
H	0.342361	0.397308	-2.082692
H	-0.29553	-0.891369	0.55411
C	-0.52752	1.25041	0.673415
H	-0.223302	2.145084	0.128677
H	-1.619646	1.205815	0.695722
H	-0.147979	1.305899	1.696663
N	-1.679029	0.53594	-1.75787
H	-1.939682	0.392067	-2.726032
H	-2.459418	0.211229	-1.173788
C	-0.336918	-1.546752	-1.893997
N	-0.283596	-2.659634	-2.268863
Cl	-4.262285	0.0	0.0
