15

C	0.0	0.0	0.0
C	-0.594288	0.225517	-1.388082
Br	1.945219	0.0	0.0
H	-1.665711	0.40193	-1.187836
H	-0.299443	-0.999715	0.321463
C	-0.488504	1.041682	0.991349
H	-0.085868	0.841879	1.985823
H	-1.580032	0.995274	1.021198
H	-0.168519	2.04057	0.683982
N	-0.385411	-0.945487	-2.251071
H	-0.686189	-0.70501	-3.190072
H	-1.044561	-1.647041	-1.922226
C	-0.04542	1.423342	-2.027458
N	0.363289	2.38138	-2.569916
Cl	-3.726282	0.0	0.0
