15

C	0.0	0.0	0.0
C	-0.303363	0.087562	-1.525679
Br	1.962377	0.0	0.0
H	0.437771	-0.573261	-1.999046
H	-0.287582	-0.985802	0.366441
C	-0.577312	1.102289	0.84776
H	-1.66835	1.029107	0.757525
H	-0.246605	2.078927	0.498836
H	-0.289252	0.965033	1.892906
N	-0.164871	1.472258	-1.983517
H	-0.494498	1.539844	-2.939051
H	0.820186	1.711692	-1.970823
C	-1.562026	-0.469724	-2.054859
N	-2.279965	-0.987828	-2.829212
Cl	-3.780522	0.0	0.0
