15

C	0.0	0.0	0.0
C	-0.389833	0.261941	-1.487926
Br	1.954335	0.0	0.0
H	0.232936	1.102703	-1.818028
H	-0.299437	-1.006645	0.297868
C	-0.572882	1.037639	0.937334
H	-1.663933	0.94746	0.922417
H	-0.220772	0.874676	1.957539
H	-0.28246	2.045498	0.626694
N	-1.758971	0.592042	-1.792343
H	-1.978568	1.516928	-1.445706
H	-2.446093	-0.018075	-1.346818
C	0.018406	-0.900364	-2.301645
N	0.315453	-1.828316	-2.956913
Cl	-4.292886	0.0	0.0
