15

C	0.0	0.0	0.0
C	-0.551331	0.112571	-1.412813
Br	1.957019	0.0	0.0
H	-1.644847	0.087093	-1.26325
H	-0.288647	-0.986756	0.362767
C	-0.497324	1.101155	0.913681
H	-0.152755	0.933622	1.935951
H	-0.136875	2.077124	0.580196
H	-1.5908	1.077934	0.891191
N	-0.164571	-1.031723	-2.229247
H	0.794947	-0.924342	-2.53814
H	-0.76023	-1.070734	-3.047209
C	-0.198462	1.409243	-2.023039
N	0.064021	2.431687	-2.540177
Cl	-3.723791	0.0	0.0
