15

C	0.0	0.0	0.0
C	-0.398097	-0.234253	-1.489292
Br	1.953291	0.0	0.0
H	0.205683	0.467853	-2.077997
H	-0.299019	-0.855981	0.608557
C	-0.572972	1.286494	0.550902
H	-0.199223	1.479594	1.557472
H	-1.663378	1.192939	0.590498
H	-0.301347	2.133143	-0.087086
N	-1.7763	-0.043929	-1.863386
H	-2.035024	0.929618	-1.774235
H	-2.442173	-0.537877	-1.269474
C	0.028182	-1.58756	-1.896495
N	0.354484	-2.666122	-2.224727
Cl	-4.333614	0.0	0.0
