16

C	-0.461117	0.061784	-1.472137
C	0.0	0.0	0.0
Cl	0.380227	1.364941	-2.374115
H	1.091925	0.0	0.0
C	-0.067437	-1.197722	-2.11327
N	0.220975	-2.202832	-2.64905
C	-1.967089	0.265306	-1.617366
H	-2.247613	1.228716	-1.188374
H	-2.24937	0.253879	-2.671542
H	-2.496449	-0.532652	-1.089952
C	-0.518295	-1.212426	0.604098
N	-0.901336	-2.229623	1.05393
N	-0.519275	1.17642	0.743989
O	-1.388141	1.000755	1.60537
O	-0.05111	2.271721	0.441262
F	2.439325	0.0	0.0
