16

C	-0.279833	0.080419	-1.490276
C	0.0	0.0	0.0
Cl	-2.058899	0.138779	-1.852036
H	1.108164	0.0	0.0
C	0.33135	1.258655	-2.114451
N	0.821844	2.10368	-2.767513
C	0.33685	-1.156216	-2.142734
H	-0.174914	-2.055612	-1.798122
H	0.253059	-1.087773	-3.228045
H	1.384418	-1.173364	-1.828123
C	-0.506541	-1.218113	0.589371
N	-0.885765	-2.24088	1.028984
N	-0.45572	1.169594	0.776604
O	-0.522243	2.250161	0.192811
O	-0.670768	1.002329	1.97613
F	2.447164	0.0	0.0
