16

C	-0.439394	0.149843	-1.463701
C	0.0	0.0	0.0
Cl	0.422788	1.515038	-2.257698
H	1.108931	0.0	0.0
C	0.003141	-1.061327	-2.166729
N	0.274832	-2.02546	-2.781267
C	-1.941851	0.318259	-1.674599
H	-2.464281	-0.527364	-1.218734
H	-2.268278	1.249185	-1.215507
H	-2.168292	0.342964	-2.742353
C	-0.463658	-1.260345	0.538527
N	-0.826047	-2.309957	0.928961
N	-0.43576	1.087687	0.896789
O	-0.79458	2.1613	0.40771
O	-0.341481	0.868628	2.103524
F	2.415423	0.0	0.0
