16
Coordinates from ORCA-job run
  C   0.87661431815915     -0.33806558442056     -0.50657038406441
  C   -0.58407986091057      0.08192969589020     -0.66813433107488
  F   1.01093918547714     -1.59175494963496     -1.12778582308392
  H   -0.76331512206066      0.10873371877590     -1.74988449307460
  H   1.51718006800168      0.35036509179329     -1.07032776080985
  C   1.37183600575547     -0.47415813767764      0.91455131490878
  H   1.39248801125909      0.49300674175966      1.42031858751675
  H   2.38480055556894     -0.87974287746987      0.91072624099222
  H   0.73781600558997     -1.15891768500475      1.48031676927146
  C   -0.83743275317295      1.46911667891517     -0.09865787934928
  H   -0.13058377174517      2.20226733268351     -0.49590742591593
  H   -1.84961498608920      1.78768632610490     -0.35071473587057
  H   -0.74890908499115      1.46882609884479      0.99159534511072
  N   -1.54831818302976     -0.86066757462991     -0.11312882488258
  H   -1.49806012951423     -0.86264026667889      0.89890670081302
  H   -1.33036025829775     -1.79598460925085     -0.43630330048693
