14
Coordinates from ORCA-job run
  C   0.95004428290849     -0.53635471711136      0.48104065138001
  C   -0.02952914702921      0.45707603253234     -0.15294815114656
  Br  2.64364371103013      0.33610369235608      0.94294650739859
  H   0.45500597356651      0.86599040681904     -1.05315970877172
  H   0.53351138446012     -0.88523464006928      1.42875454506691
  C   1.24235338775062     -1.66195947849419     -0.39479011446803
  N   1.44514986682595     -2.56358207057569     -1.12037222045523
  N   -0.35230411955299      1.46243445158417      0.85086357926839
  H   0.44309416184334      2.06874539158066      1.01245702111805
  H   -1.11417670467605      2.04009778711879      0.51649817060393
  C   -1.30780524639329     -0.26823109661047     -0.55415210373837
  H   -2.01103710700413      0.44339370710209     -0.99521321962472
  H   -1.11773018958627     -1.04922899175919     -1.29144585103779
  H   -1.78022025414323     -0.70825047447300      0.32752089440655
