14
Coordinates from ORCA-job run
  C   0.91541115855049     -0.86939254134885     -0.15543461840104
  C   -0.23065073672128      0.07740738993283     -0.55732866102815
  Br  0.36937504302073     -2.74432173824657     -0.27265349188890
  H   -0.62857102585965     -0.30573663994965     -1.50787676744360
  H   1.73740022142755     -0.76864562509472     -0.86734591137974
  C   1.40784313635221     -0.58531022197092      1.18550018797295
  N   1.78350890602963     -0.35719578040299      2.27469046558373
  N   0.37908600484657      1.39649912542867     -0.67420628699914
  H   -0.30358794018120      2.12589813782168     -0.51419361023457
  H   0.78068789610467      1.53608339529196     -1.59289706561162
  C   -1.34159369070942      0.11111535632365      0.47718134680644
  H   -0.97166026516017      0.54398033471459      1.40957693662213
  H   -1.72930286252612     -0.88700932922376      0.68146120720785
  H   -2.16794584517401      0.72662813672408      0.11252626879365
