14
Coordinates from ORCA-job run
  C   0.90806222939862     -0.78196414668336     -0.24648374331351
  C   -0.31813043314181      0.09790646986065     -0.59153749057023
  Br  0.50649161830429     -2.69537292296287     -0.31628871381075
  H   -0.67065179207790     -0.24352367986216     -1.57095724106671
  H   1.68343761115034     -0.63221860712114     -1.00150772532486
  C   1.44496901541704     -0.43763652714633      1.06350669600661
  N   1.83919105888063     -0.10359758543970      2.11894456935267
  N   0.05534028019545      1.49620253084661     -0.71212576910746
  H   0.79645891795832      1.63494894171505     -1.38832273091025
  H   0.35540500258832      1.87061496007197      0.18089225936515
  C   -1.43807824856149     -0.03605426434941      0.42574666329340
  H   -1.10548468513481      0.30015552013001      1.41229617465244
  H   -2.27152235159553      0.59433154948867      0.11418424695935
  H   -1.78448822338154     -1.06579223854799      0.51265280447412
