14
Coordinates from ORCA-job run
  C   0.71282568696470     -0.87814424587821      0.23736745564376
  C   -0.22718352323460      0.17005830897987     -0.41473516760415
  Br  0.61637219484743     -0.84243090767594      2.19126755477829
  H   -0.07772863213420      0.02352131365807     -1.49302089453081
  H   0.41927206979666     -1.89023249287917     -0.05240497653464
  C   2.09189826683132     -0.63440871806068     -0.16222480399679
  N   3.17914641023743     -0.38221359760891     -0.52996134023093
  N   0.09023981559732      1.54981325970462     -0.12259039237126
  H   0.00644966810662      1.72993879993585      0.87097569741267
  H   1.03242430477630      1.78365042215072     -0.41272082714982
  C   -1.68532205992985     -0.11156674846984     -0.08775238354714
  H   -1.89283005990565      0.07947537262861      0.96708836964233
  H   -1.95304228107127     -1.14816732173791     -0.30724076798944
  H   -2.31352186088219      0.55070655525290     -0.68404752352209
