14
Coordinates from ORCA-job run
  C   0.71629041710121     -0.88822052382121      0.17107255880163
  C   -0.23623791194385      0.19479257013975     -0.39893956297721
  Br  0.66047208612532     -0.96596177515516      2.12596318394172
  H   -0.11033605636604      0.11095080861250     -1.48692983558856
  H   0.41689355642977     -1.88244562209143     -0.17022832273204
  C   2.08763934595093     -0.62399437761649     -0.24166730373621
  N   3.16994133678831     -0.36839023690477     -0.62136324976794
  N   0.08903542949361      1.55582512147936     -0.03498812388067
  H   1.02474596577233      1.80603546996962     -0.33240017915236
  H   0.02851769566749      1.67792385148337      0.96907144804470
  C   -1.68740109625327     -0.10498250306615     -0.05759612980966
  H   -1.96062404389082     -1.12793310561826     -0.32837722543207
  H   -2.32736768524570      0.58915245838681     -0.60294561723317
  H   -1.87256903962929      0.02724786420205      1.01032835952177
