14
Coordinates from ORCA-job run
  C   0.89035836671108     -0.94102778547821     -0.13132690800905
  C   -0.21935271822927      0.01701393266716     -0.59650604034257
  Br  0.25956841741679     -2.77926531959068      0.06045752243134
  H   -0.59264164794070     -0.39157259960940     -1.54135047594300
  H   1.66538607046264     -0.96388816918765     -0.89773097322435
  C   1.47104639641093     -0.48827838366112      1.12627289580045
  N   1.90660737281576     -0.06632534492769      2.13267327168798
  N   0.46522318776542      1.27266146851180     -0.89954724603140
  H   0.57722589414865      1.82008158782537     -0.05261411720256
  H   -0.08692551891381      1.82203767885097     -1.54638498229196
  C   -1.36631905514321      0.14084429442069      0.39918982267028
  H   -1.85981529093700     -0.81489564812002      0.58292191250034
  H   -2.10948597237660      0.84046020131573      0.00946258945152
  H   -1.00187550219068      0.53015408698305      1.35448272850300
