14
Coordinates from ORCA-job run
  C   0.75949785940607     -0.91375060774364      0.22217285989506
  C   -0.12987235289492      0.18306766362231     -0.37771523112646
  Br  0.64718294004512     -0.95746400850631      2.17909331998609
  H   0.05797142734615      0.12214886497636     -1.45788071320856
  H   0.41910005237925     -1.90017435917690     -0.10136565384635
  C   2.15371431554323     -0.73840502627979     -0.16249482392588
  N   3.26993078164193     -0.62885976398842     -0.51071090453479
  N   0.35890263168848      1.47916305576666      0.06154191812937
  H   0.05993924535865      1.66204829169228      1.01250715637771
  H   -0.01280273209698      2.21200626870289     -0.52920836766553
  C   -1.61236591827174     -0.08590308721709     -0.12914999283654
  H   -1.84618923832303     -0.01631534043278      0.93516869961577
  H   -1.91316677545706     -1.07604409394643     -0.48463839834007
  H   -2.21084223636519      0.65948214253085     -0.65831986851978
