14
Coordinates from ORCA-job run
  C   0.72330023394707     -0.87956594544087      0.18790423395366
  C   -0.22974493089011      0.19144548762228     -0.40409154672388
  Br  0.62632760462913     -0.95645861037820      2.14096784704933
  H   -0.07878916641509      0.10774757691493     -1.48889116739952
  H   0.44344192879666     -1.87765411045722     -0.15868322302855
  C   2.09975006139911     -0.59880111527415     -0.19622218452011
  N   3.18578446798669     -0.32815006736450     -0.55424930652357
  N   0.07109093973592      1.55643645521561     -0.03477914286450
  H   -0.01306666745173      1.67924647023615      0.96744612024275
  H   1.00959260294251      1.81830468831810     -0.31255219483618
  C   -1.68414071658578     -0.12572906912408     -0.09383063929842
  H   -1.89373401734780      0.00478045057624      0.96979054677099
  H   -2.32060274709081      0.56042032751542     -0.65322035458373
  H   -1.93920959365574     -1.15202253835971     -0.36958898823829
