13

C	-0.354458	-0.036077	-1.477222
C	0.0	0.0	0.0
Br	0.08409	1.666915	-2.356202
H	1.093277	0.0	0.0
H	0.289875	-0.768872	-1.970134
H	-0.421162	0.897171	0.463204
C	-1.755528	-0.325858	-1.774868
N	-2.88776	-0.584295	-1.960186
C	-0.466	-1.272861	0.698403
H	-0.001329	-2.145619	0.228152
H	-1.553289	-1.415801	0.702454
H	-0.113646	-1.252623	1.73297
F	2.659779	0.0	0.0
