13

C	-0.287563	0.012335	-1.46925
C	0.0	0.0	0.0
Br	-2.220357	0.387382	-1.944529
H	1.096479	0.0	0.0
H	0.253183	0.828455	-1.950227
H	-0.331379	0.955792	0.418295
C	0.043921	-1.23895	-2.140833
N	0.300179	-2.25186	-2.67935
C	-0.57585	-1.181064	0.755784
H	-0.16949	-2.116655	0.3618
H	-1.670841	-1.230873	0.711363
H	-0.276233	-1.119056	1.805646
F	2.620334	0.0	0.0
