13

C	-0.328472	-0.003578	-1.460036
C	0.0	0.0	0.0
Br	-2.277026	0.343836	-1.87578
H	1.096504	0.0	0.0
H	0.186572	0.813834	-1.964932
H	-0.329186	0.957275	0.418334
C	-0.004642	-1.256395	-2.132753
N	0.249916	-2.266986	-2.674943
C	-0.547195	-1.176487	0.784386
H	-1.64252	-1.223181	0.796143
H	-0.192457	-1.113022	1.816377
H	-0.163838	-2.11497	0.375083
F	2.619031	0.0	0.0
