18

C	-0.633778	0.013501	-1.473948
C	0.020923	-0.125064	-0.082654
Cl	-0.487525	-1.519357	-2.439151
H	1.082737	-0.356153	-0.196794
N	-2.036868	0.290066	-1.298671
H	-2.074128	1.015727	-0.585822
H	-2.412841	0.665518	-2.162687
C	0.13904	1.07833	-2.240359
H	0.087234	2.007989	-1.672936
H	-0.30574	1.211203	-3.231164
H	1.188649	0.800374	-2.35427
N	-0.56341	-1.319031	0.645183
O	-1.532005	-1.130668	1.382196
O	-0.032675	-2.412011	0.459082
N	-0.147431	1.094783	0.634755
H	0.876317	1.355874	0.923747
H	-0.700753	0.919008	1.466325
H	2.2989	1.368776	1.042713
