15

C	-0.462008	-0.065253	-1.447159
C	0.0	0.0	0.0
Br	0.166166	1.432157	-2.526393
H	1.090407	0.0	0.0
H	0.045919	-0.932399	-1.877775
C	-1.901245	-0.232246	-1.622233
N	-3.049929	-0.4376	-1.761644
C	-0.470276	-1.216099	0.789418
H	-0.02897	-1.17075	1.784713
H	-0.108666	-2.125296	0.303376
H	-1.560873	-1.25592	0.867911
N	-0.503387	1.215846	0.702688
O	-0.017261	1.446938	1.806492
O	-1.398684	1.875786	0.170204
Cl	3.271	0.0	0.0
