15

C	-0.408468	-7e-05	-1.462594
C	0.0	0.0	0.0
Br	-2.359805	0.211226	-1.700142
H	1.097895	0.0	0.0
H	0.032189	0.861612	-1.962428
C	-0.01825	-1.231404	-2.132647
N	0.273818	-2.221189	-2.694912
C	-0.523569	-1.147121	0.829358
H	-0.216861	-2.085399	0.362541
H	-0.081089	-1.104691	1.822849
H	-1.610992	-1.122938	0.92216
N	-0.375443	1.32767	0.582705
O	-0.248656	2.316081	-0.137183
O	-0.739949	1.360836	1.75611
Cl	3.212394	0.0	0.0
