15

C	-0.567312	0.001822	-1.419139
C	0.0	0.0	0.0
Br	-0.125279	-1.653326	-2.36236
H	1.107643	0.0	0.0
H	-1.65831	0.033352	-1.373903
C	-0.094056	1.128335	-2.215155
N	0.24317	2.043873	-2.870633
C	-0.523639	-1.141896	0.85086
H	-0.257586	-0.958004	1.893758
H	-0.036125	-2.066545	0.544603
H	-1.608587	-1.245411	0.772011
N	-0.487206	1.294521	0.595757
O	-1.710985	1.397973	0.744528
O	0.332033	2.157715	0.885239
Cl	3.366103	0.0	0.0
