15

C	-0.470108	-0.01938	-1.447004
C	0.0	0.0	0.0
Br	0.231974	1.443484	-2.530117
H	1.095029	0.0	0.0
H	-0.020179	-0.912715	-1.888831
C	-1.91877	-0.10473	-1.602909
N	-3.077429	-0.259308	-1.721987
C	-0.474797	-1.236486	0.753068
H	-0.114451	-2.131009	0.24057
H	-0.037314	-1.222443	1.750399
H	-1.565526	-1.275781	0.829267
N	-0.484909	1.203712	0.738395
O	-0.096158	1.32113	1.897314
O	-1.254216	1.981892	0.170311
Cl	3.263152	0.0	0.0
