15

C	-0.417683	-0.044304	-1.458974
C	0.0	0.0	0.0
Br	-2.365811	0.201375	-1.689947
H	1.109241	0.0	0.0
H	0.03763	0.788377	-1.993348
C	-0.064717	-1.309413	-2.085076
N	0.178834	-2.336019	-2.601667
C	-0.527378	-1.115205	0.869256
H	-0.225298	-2.070449	0.435603
H	-0.083895	-1.039834	1.860283
H	-1.614464	-1.083013	0.962344
N	-0.364012	1.348398	0.540652
O	-0.216717	2.313031	-0.207572
O	-0.73813	1.420665	1.709688
Cl	3.20948	0.0	0.0
