15
Coordinates from ORCA-job run
  C   -0.42864362338676      0.16168625801427     -0.17566860333336
  C   0.75222193638538     -0.77877383856777     -0.08422813936357
  F   -0.64413274264026      0.48576806227081     -1.47854773233413
  H   0.49785033342667     -1.74601379599733     -0.51426881009707
  H   1.07558128070846     -0.88782990521551      0.95039771960364
  C   -1.68798043157998     -0.41550295780938      0.42477032632168
  H   -2.48818546838695      0.32206906679062      0.34090434744856
  H   -1.97651078753019     -1.30843507181888     -0.13155525437536
  H   -1.53690103232732     -0.66606169207717      1.47435336143595
  N   -0.12387102923016      1.45319000432666      0.57696419018983
  O   -0.35741590179282      2.50863743055539      0.01382331638690
  O   0.26993964948788      1.29331673163550      1.72739619410495
  N   1.92197167862464     -0.26525894287635     -0.85897355531421
  O   2.55664136864728     -1.08813687882568     -1.50969390039090
  O   2.17143476959411      0.93134552959481     -0.75367346028290
