15
Coordinates from ORCA-job run
  C   -0.42405416695497      0.14096294409335     -0.20060234930555
  C   0.78094074199928     -0.75502657333339     -0.01911808707551
  F   -0.58365709437134      0.41521533016933     -1.52293243043503
  H   0.57931496110727     -1.74518231582042     -0.42421949952441
  H   1.05782597427440     -0.81527775964789      1.03284148139985
  C   -1.69280028513168     -0.45896333576846      0.35596075624629
  H   -1.58663873422744     -0.67044365418215      1.41955479040680
  H   -1.92389094352883     -1.37850824098850     -0.18357171125770
  H   -2.51116375080792      0.24796456484282      0.20794861786197
  N   -0.19917370523761      1.46584321243057      0.52151442197904
  O   0.13675749327307      1.35683155849091      1.69597247887537
  O   -0.43272350797587      2.49418317175875     -0.08975543393489
  N   1.96780278610090     -0.22802700969716     -0.75766638184164
  O   2.18031601719824      0.97717003965272     -0.67007241384871
  O   2.65014421428250     -1.04674193200049     -1.36385423954587
