15
Coordinates from ORCA-job run
  C   -0.43248357008359      0.15667796800788     -0.16773057685297
  C   0.76234105004079     -0.76827624910298     -0.09802719168579
  F   -0.66864720818690      0.48695092825822     -1.46550160760798
  H   1.10309046422721     -0.87582711750001      0.93115071469743
  H   0.51490718989335     -1.73714121279139     -0.52834920924539
  C   -1.67640465994468     -0.44146349530602      0.44412933702998
  H   -2.48675171527418      0.28682978674413      0.37862532921808
  H   -1.96141879439634     -1.33242392970595     -0.11714864536833
  H   -1.50808013989789     -0.70022717759600      1.48908264122023
  N   -0.13497367441735      1.44689919544309      0.59010386607903
  O   -0.38357772118584      2.50322424480374      0.03512214064021
  O   0.26980949508003      1.28420467207818      1.73631440547380
  N   1.91156778126845     -0.23392151158928     -0.88918523506492
  O   2.15470169378503      0.96251266123590     -0.76830388435448
  O   2.53691980909191     -1.04001876297953     -1.56928208417889
