15
Coordinates from ORCA-job run
  C   -0.58240522264383      0.24891443041903     -0.33107574662491
  C   0.68258646247478     -0.34017973969139     -0.94487751046269
  F   -1.39211986746399      0.54140550313488     -1.39017176350132
  H   1.11036078092259      0.37751047104166     -1.64385844537589
  H   0.42359957204285     -1.27208493654543     -1.44682799043827
  C   -1.32535171375028     -0.60010679744786      0.66193444818834
  H   -0.71207600917001     -0.82174262438850      1.53051746144918
  H   -2.22444303182747     -0.06664170644040      0.97539690810451
  H   -1.61648702503403     -1.53390853664249      0.17911079028228
  N   -0.19681547904008      1.57838691042962      0.31201850488749
  O   -0.37289383232848      2.59640226827553     -0.34134269122500
  O   0.29776331297060      1.49064275506849      1.43184120557868
  N   1.71428137695640     -0.65412947320345      0.08069274059920
  O   2.65223843395970      0.13108014677578      0.18663670667363
  O   1.53976224193125     -1.67654867078547      0.74000538186474
