15
Coordinates from ORCA-job run
  C   -0.40641053610600      0.25184041094867     -0.10576528916910
  C   0.71854406449463     -0.72159795905597     -0.37894159213869
  F   -0.51222301661082      1.11877641048863     -1.14794226700852
  H   0.96533600069540     -1.28320798024266      0.52139017604323
  H   0.44824069016547     -1.39218153573476     -1.19280233852841
  C   -1.73181257867569     -0.43141957549038      0.13035607165538
  H   -1.66756527209647     -1.12108829355458      0.97145418394412
  H   -2.48692373707845      0.32764501174639      0.34247121246624
  H   -2.02395864818160     -0.97229673366141     -0.77086531278656
  N   -0.09328571643232      1.06897395604183      1.14419192528896
  O   0.20469750291328      0.40188454235945      2.12921591682764
  O   -0.22929423959316      2.27868016159546      1.08216164940774
  N   1.96043334604104     -0.01135357125038     -0.80961067791339
  O   2.58848647283227     -0.50942252356171     -1.73747746783129
  O   2.26673566763242      0.99476767937143     -0.17783619025736
