15
Coordinates from ORCA-job run
  C   -0.57083986004432      0.26486030464962     -0.28417686944072
  C   0.62440632731417     -0.37778526816167     -0.96063819703174
  F   -1.46806380498896      0.51681724640591     -1.29848019540416
  H   1.08818882182658      0.33684829596716     -1.64049908234129
  H   0.30506801062669     -1.26603497445322     -1.50269649843941
  C   -1.23274468864686     -0.54705589609042      0.78913562115435
  H   -2.13254760123805     -0.03592722272016      1.12689954860995
  H   -0.57079083886487     -0.68449480288014      1.64198879211924
  H   -1.50705366878574     -1.51755984496093      0.37112651246990
  N   -0.18501342719408      1.65593766413114      0.22204962408464
  O   0.45081526135526      2.34636929025553     -0.56636686151117
  O   -0.58671977360802      1.99375780223441      1.32821330849017
  N   1.66222707780525     -0.79868444317971      0.01839980263560
  O   1.85813043197686     -0.04620579603145      0.97116267051919
  O   2.26393773246610     -1.84084235516608     -0.21711817591454
