15
Coordinates from ORCA-job run
  C   -0.34109957784278      0.38488063207725     -0.15562222924278
  C   1.13000139536225      0.00177640281753     -0.09590652373903
  F   -0.66922922022613      0.64820648352766     -1.44793877462095
  H   1.43571316401541     -0.20431148960821      0.92661020621317
  H   1.73301397932613      0.78794372456595     -0.54896927623676
  C   -1.33209158206338     -0.57868847159404      0.44301189560784
  H   -1.08306652343373     -0.79078022326620      1.48162787614961
  H   -2.32652123182952     -0.13175664903051      0.38670995162730
  H   -1.32695459661585     -1.50819742787291     -0.12411498718834
  N   -0.44380262393349      1.70113298465802      0.61444214734407
  O   -0.92486621962446      2.66462923462911      0.03844618140590
  O   -0.04246324430659      1.65402882802912      1.77381779214380
  N   1.34907776512243     -1.23366804606966     -0.89914268741617
  O   1.03047175764398     -2.29551935474299     -0.36583863849726
  O   1.81281675840571     -1.09767662812012     -2.02713293355040
