15
Coordinates from ORCA-job run
  C   -0.48270842571000      0.07161606826320     -0.04246467768234
  C   0.81486628810400     -0.68767062131191     -0.20900841414845
  F   -1.14527591194011      0.09276036321767     -1.22971300832357
  H   1.45921541171487     -0.53878188315557      0.65673261333482
  H   0.61482298766408     -1.74615055746405     -0.36631683583999
  C   -1.37123209065764     -0.50944713500105      1.03098149902121
  H   -2.27419812958832      0.09888012605270      1.10823811368424
  H   -1.65698192696575     -1.52470430188457      0.75229053529066
  H   -0.85982128087757     -0.51974640300025      1.99305207645762
  N   -0.19154143164414      1.51698709417327      0.34934939360449
  O   0.55817836731386      1.64431454611184      1.31152642177420
  O   -0.76628270165334      2.39983317062277     -0.26377677808221
  N   1.57165666378016     -0.21636076433746     -1.40781772221791
  O   1.63760712776083      0.99718957616702     -1.57575376006155
  O   2.09169505269907     -1.07871927845360     -2.10731945681120
