17

C	-0.544932	-0.006421	-1.414707
C	0.0	0.0	0.0
Cl	0.028018	1.399582	-2.33598
H	1.091254	0.0	0.0
H	-0.323704	-0.940097	0.458415
N	-0.043395	-1.282587	-2.111612
O	0.598721	-1.21783	-3.14777
O	-0.400285	-2.322427	-1.559803
C	-2.061724	-0.061356	-1.517786
H	-2.433847	-0.910348	-0.943253
H	-2.369404	-0.163692	-2.561727
H	-2.485581	0.861053	-1.121845
C	-0.478458	1.18029	0.836133
H	-1.555328	1.173126	1.035448
H	-0.214936	2.127531	0.361699
H	0.047013	1.1471	1.793558
H	2.967293	0.0	0.0
