17

C	-0.547619	0.058161	-1.412309
C	0.0	0.0	0.0
Cl	0.079958	1.468832	-2.291875
H	1.091262	0.0	0.0
H	-0.328963	-0.955771	0.420839
N	-0.096778	-1.21469	-2.146448
O	-0.534553	-2.253879	-1.653405
O	0.587951	-1.147534	-3.153336
C	-2.06597	0.066846	-1.512956
H	-2.378241	-0.003144	-2.558164
H	-2.450403	0.99883	-1.100159
H	-2.473417	-0.776196	-0.953636
C	-0.472424	1.149165	0.882583
H	-1.546917	1.130317	1.095011
H	-0.219052	2.112891	0.436079
H	0.065915	1.087101	1.831719
H	2.965269	0.0	0.0
