17

C	0.0	0.0	0.0
C	-0.576376	0.109906	-1.411719
F	1.389716	0.0	0.0
H	-1.681833	0.176341	-1.151577
C	-0.463099	1.141721	0.886678
H	-0.097427	2.08274	0.4673
H	-1.556855	1.08682	0.880339
H	-0.047812	1.014579	1.889622
C	-0.40519	-1.294543	0.589158
N	-0.561812	-2.346944	1.085867
C	-0.276631	-1.111226	-2.281468
H	-0.626455	-0.944553	-3.302984
H	-0.805112	-1.97757	-1.8787
H	0.795488	-1.32904	-2.313021
C	-0.091022	1.328465	-2.043798
N	0.289205	2.298468	-2.589709
F	-2.809681	0.0	0.0
