17

C	0.0	0.0	0.0
C	-0.255444	-0.17521	-1.54425
F	1.377954	0.0	0.0
H	0.53988	0.458412	-1.95816
C	-0.57435	1.285614	0.531684
H	-0.240138	1.439263	1.561677
H	-0.230522	2.121138	-0.086021
H	-1.671795	1.13478	0.471977
C	-0.44839	-1.152831	0.797292
N	-0.644465	-2.081292	1.488802
C	-1.579378	0.239012	-2.187431
H	-1.661961	1.328412	-2.149904
H	-1.567383	-0.074762	-3.236463
H	-2.418618	-0.148732	-1.590523
C	0.109708	-1.542797	-1.931632
N	0.403044	-2.621996	-2.290903
F	-2.980811	0.0	0.0
