17

C	0.0	0.0	0.0
C	-0.432512	0.061957	-1.496221
F	1.389667	0.0	0.0
H	0.515547	-0.045474	-2.043065
C	-0.411332	1.171432	0.877071
H	-0.010468	2.097032	0.457346
H	-1.50273	1.154765	0.907973
H	0.031659	1.020907	1.865285
C	-0.403563	-1.267222	0.637593
N	-0.538269	-2.296122	1.188279
C	-1.114206	1.366905	-1.915184
H	-1.34282	1.328078	-2.983879
H	-0.465664	2.230227	-1.737681
H	-2.033005	1.410785	-1.32755
C	-1.259282	-1.071319	-1.923021
N	-1.782572	-1.976961	-2.458576
F	-2.607521	0.0	0.0
