18
Coordinates from ORCA-job run
  C   0.64774871085480     -0.04047633120849      0.43019997518057
  C   -0.68702985592971     -0.18707696746326     -0.31624246004852
  H   0.47545299437295      0.63459511170448      1.28185786258598
  H   -0.45650712127037     -0.52148503281335     -1.33888536568552
  C   1.71358640161791      0.58585115888238     -0.46917905765069
  H   1.41231191071719      1.56041466553711     -0.86196079939330
  H   1.92641860206645     -0.07815121504000     -1.31234411166961
  H   2.64339331820145      0.73147531326069      0.08891157538007
  N   1.05039471534994     -1.33358714046827      0.98889262335990
  H   0.84961528378445     -2.07478747349305      0.32859065650236
  H   2.04420897089253     -1.33319476659399      1.18457199021054
  C   -1.41670315954686      1.15345048893050     -0.40411154120237
  H   -2.34010590705233      1.04584257276674     -0.98114105774768
  H   -0.81665593864209      1.92758573851035     -0.88936716847285
  H   -1.68387643004625      1.49845256292103      0.59923917712601
  N   -1.49126539095485     -1.24280606209769      0.30425904493406
  H   -2.46641768925678     -1.12856553824028      0.05536288360342
  H   -1.40556941515843     -1.19753708509488      1.31234577298765
