18
Coordinates from ORCA-job run
  C   -0.69282855895222     -0.22753710604704     -0.23629178984301
  C   0.72329702902915     -0.16932488406329      0.33784657529434
  H   -0.61609291985993     -0.77694636752661     -1.18254129131759
  H   0.63792074812393      0.28572204979202      1.34443373998376
  C   -1.29499421291649      1.15168666440196     -0.49242726549438
  H   -1.27583752364181      1.75512518110849      0.42192213260854
  H   -2.33751355742276      1.05389449975877     -0.80752844435752
  H   -0.76182194902229      1.69870216075542     -1.27282649351200
  N   -1.50387642386990     -1.05805865330184      0.66613914926804
  H   -2.36556770604476     -1.32667863524456      0.20531235152663
  H   -1.76247648861544     -0.50626534108964      1.47856777122789
  C   1.66875612924855      0.68234109627874     -0.49642683718087
  H   1.66523919343076      0.33359960220916     -1.53247443552445
  H   1.40359951461523      1.74115718846368     -0.46990838106074
  H   2.69095231950014      0.58842563198353     -0.11912040943067
  N   1.23029004468204     -1.53835827292590      0.38137492766574
  H   2.06984382360320     -1.57745593901824      0.94784812320809
  H   0.52011053811258     -2.11002887553466      0.82610057693820
