18
Coordinates from ORCA-job run
  C   -0.63012787897954      0.23674524071875     -0.37829791589177
  C   0.82251181197706      0.33630822142770      0.12540749535844
  H   -0.68056972399093      0.77437423294542     -1.34094574108576
  H   1.05741565643873      1.40412091190472      0.22467712785811
  C   -1.60735470386856      0.89512362432866      0.58290063418155
  H   -2.61656488815994      0.91839866420037      0.16087311516569
  H   -1.64920523955184      0.33717803063254      1.52078882132199
  H   -1.31215584555493      1.92545346608379      0.79776011613385
  N   -0.98384724852686     -1.18071762530515     -0.51246572190246
  H   -0.57238049103196     -1.56435332949387     -1.35494116247515
  H   -1.98844047446431     -1.27698345938160     -0.60522811872762
  C   1.79537014746994     -0.27884270450659     -0.87418830388014
  H   1.67310432637669     -1.36520517453367     -0.90284801280467
  H   2.82121018772726     -0.07649714338777     -0.56363519376564
  H   1.64540722611766      0.11871234845759     -1.88303590539795
  N   1.04317164583346     -0.28638087096267      1.42880322243510
  H   0.57196069806574     -1.18614696875031      1.41660281227886
  H   0.61149479412233      0.26871253562208      2.15777273119756
