14

C	-0.454101	0.110666	-1.422357
C	0.0	0.0	0.0
F	-1.823031	0.274758	-1.524109
H	1.092408	0.0	0.0
H	0.031576	0.914356	-1.975541
H	-0.366677	-0.942619	0.412509
N	-0.152011	-1.152844	-2.18818
O	-0.69766	-2.179452	-1.790324
O	0.588209	-1.058076	-3.163914
C	-0.488462	1.192371	0.818654
H	-0.126021	2.129169	0.386744
H	-0.083909	1.128119	1.83007
H	-1.578274	1.234808	0.877095
Cl	3.473044	0.0	0.0
