14

C	-0.558224	0.000147	-1.398974
C	0.0	0.0	0.0
F	-0.121797	-1.07415	-2.112053
H	1.093313	0.0	0.0
H	-1.651566	0.006925	-1.421282
H	-0.313597	-0.961489	0.422697
N	-0.176626	1.247196	-2.166198
O	-0.870925	2.234882	-1.919105
O	0.754931	1.194827	-2.953417
C	-0.518389	1.144227	0.865871
H	-0.127036	2.103299	0.527399
H	-1.611498	1.206783	0.868937
H	-0.176244	0.993975	1.891513
Cl	3.510225	0.0	0.0
