14

C	-0.424587	-0.024605	-1.44011
C	0.0	0.0	0.0
F	-0.201824	1.173392	-2.052107
H	1.093707	0.0	0.0
H	0.042205	-0.819244	-2.022004
H	-0.362359	0.936909	0.431929
N	-1.913085	-0.282287	-1.530307
O	-2.666208	0.643351	-1.245401
O	-2.260162	-1.426213	-1.823579
C	-0.502797	-1.208364	0.783458
H	-0.21448	-2.141427	0.293307
H	-0.046174	-1.206139	1.774249
H	-1.589909	-1.208447	0.90445
Cl	3.483779	0.0	0.0
