14
Coordinates from ORCA-job run
  C   -0.84196645377456     -0.39277786219307      0.35513629894797
  C   0.36547568603457      0.17405224333865     -0.39440838727742
  Cl  -0.56653335631027     -0.34241669359897      2.11834614607379
  H   0.10176215232063      0.13246663105509     -1.46061987413577
  H   -0.91524303152096     -1.46112514488210      0.11171151498672
  N   -2.01523553453311      0.38970456744246      0.05803067021586
  H   -2.22705822516775      0.32778138189682     -0.93166921835736
  H   -2.81262979541945      0.04690039161691      0.57960272846277
  C   1.64407445718557     -0.63843145523037     -0.18191896514020
  H   1.96415389294141     -0.58899377683275      0.85865274377411
  H   2.44675711739325     -0.24991192119185     -0.81030254491404
  H   1.47189736521553     -1.68452090247276     -0.44742405063728
  C   0.57369623994777      1.58337370058560     -0.05595061471713
  N   0.80984948568736      2.70389884046634      0.20081355271798
