14
Coordinates from ORCA-job run
  C   -1.01824072865920      0.07674298377929      0.03747639589963
  C   0.39140231976719     -0.11147315250015     -0.53417447294842
  Cl  -2.21994287688987     -0.34627199333397     -1.27829889211040
  H   0.47805158772411     -1.15287682192876     -0.86847016671378
  H   -1.19783835947659      1.13275193587192      0.24413241424683
  N   -1.18598014791819     -0.67822338533440      1.22663314466127
  H   -2.07426823527408     -0.47537071454586      1.66626362618047
  H   -1.14276805101586     -1.67235363037764      1.03459575117668
  C   1.46959367132413      0.19635722863399      0.51061549604205
  H   2.46182877842273      0.09045206010015      0.06874513775563
  H   1.37497763418791     -0.47965818279291      1.35808415674815
  H   1.36350224993177      1.22082900661163      0.87402621792422
  C   0.57679660327748      0.74196672495965     -1.70960983679514
  N   0.72288555459846      1.45812794085707     -2.62801897206718
