14
Coordinates from ORCA-job run
  C   -1.05072448897831     -0.30092576021105     -0.20677300284202
  C   0.38226834461570     -0.04246794530129     -0.69160005609080
  Cl  -1.25449742803381     -2.12942172237532     -0.07579816795266
  H   0.55878863921607     -0.69044615655403     -1.55576026070543
  H   -1.75792282262784     -0.01844364801714     -0.98618223173803
  N   -1.34624518534931      0.40554876771570      0.97848844817049
  H   -0.82152733799416      0.06140951552766      1.77134880444452
  H   -2.33247774259913      0.37684137729902      1.19866885654687
  C   1.44857753635683     -0.31646608109697      0.37135122915959
  H   1.36761440296417      0.39473248727809      1.19481578171977
  H   2.44301803081829     -0.20782250902780     -0.06352012432486
  H   1.34959492963611     -1.33356372152594      0.75307553232794
  C   0.46626745450048      1.34576741548670     -1.15504283741293
  N   0.54626566747491      2.45425798080236     -1.53307197130243
