14
Coordinates from ORCA-job run
  C   -0.89646103893751     -0.51704704744354      0.24495210347521
  C   0.35131306575003      0.16136849103629     -0.35886821635108
  Cl  -0.59242115199342     -0.87161941655259      1.97192650918978
  H   0.11230391897567      0.30471923429610     -1.42134908458976
  H   -1.01978188261436     -1.48381583360717     -0.25029405004044
  N   -2.12661085735035      0.21248725494115      0.13552870828180
  H   -2.03904487193413      1.13761492636625      0.54037516291000
  H   -2.40846072030481      0.29200784910712     -0.83391680011843
  C   1.63194355438765     -0.66722614660797     -0.25170139684329
  H   1.95538647321463     -0.75083297780332      0.78479875168931
  H   1.45487143695812     -1.67210111239603     -0.64327398733603
  H   2.43270640339527     -0.20650469910545     -0.83249701655925
  C   0.51703533522245      1.49491752927054      0.22146051581473
  N   0.62722033523076      2.56503194849861      0.69185880047745
