14
Coordinates from ORCA-job run
  C   -1.10137026580922     -0.12135207481919     -0.15565342037473
  C   0.39987723145975     -0.13509234730745     -0.51328009013346
  Cl  -1.98958448936656     -0.90019605711432     -1.50614297367072
  H   0.68016884246486     -1.17815132295821     -0.70408978796806
  H   -1.44993483907354      0.91353731739134     -0.11520574822629
  N   -1.45347183190135     -0.76743358344819      1.07191456350786
  H   -1.03245590694877     -1.68415849432977      1.15506089936678
  H   -1.21994677223522     -0.19789560160897      1.87322351500691
  C   1.25521070384561      0.43583318254563      0.62193723884356
  H   1.17313973532558     -0.18634377198469      1.51362590094264
  H   0.93935439131793      1.45284100350125      0.86829723664912
  H   2.30489316402673      0.47134678892860      0.32720645936127
  C   0.64131872968370      0.62321085282619     -1.74193770533741
  N   0.85380130721053      1.27385410837778     -2.69595608796747
