14
Coordinates from ORCA-job run
  C   -1.06525767106855     -0.44219298606288     -0.25032086569489
  C   0.38579961422875     -0.08201688061938     -0.65679740098699
  Cl  -1.14941962646218     -2.22335528214417     -0.05575813974156
  H   0.63223727248732     -0.65661696240557     -1.55635217979100
  H   -1.72374034165352     -0.20334544702745     -1.08775578361759
  N   -1.58993179786969      0.19065930537941      0.92078677623569
  H   -0.99650448995808      0.05384737089395      1.72780581401163
  H   -1.73933210823498      1.17899494433071      0.76052410157416
  C   1.43171322698582     -0.35938592677133      0.42424936330243
  H   1.41723223930593     -1.41287216709534      0.70342927616843
  H   2.42738057659297     -0.11318013292913      0.05266756259021
  H   1.25130769180066      0.24887549781208      1.31223665558222
  C   0.38547825703337      1.33882542416122     -1.01477902379828
  N   0.33303715681216      2.48176324247789     -1.27993615583444
