14
Coordinates from ORCA-job run
  C   -0.83374888823605     -0.39491780666441      0.37178222222369
  C   0.36301114696416      0.16163976251027     -0.40203113186017
  Cl  -0.56793012709355     -0.24661608301877      2.13084687060700
  H   0.10647280602289      0.05608503447934     -1.46561304153658
  H   -0.87990219165145     -1.47590052164491      0.18349860711143
  N   -2.02446927526332      0.34197749625626      0.03027524032314
  H   -2.81576503500344      0.00562796278572      0.56534113707628
  H   -2.22929300679043      0.22387103620558     -0.95584942663345
  C   1.66082096811025     -0.60482049832089     -0.14048824279416
  H   1.51587138551963     -1.66866709508062     -0.34354926686838
  H   1.97661766515605     -0.48559324815331      0.89550342791513
  H   2.45520158332331     -0.23426725865021     -0.78980315540245
  C   0.53377220584184      1.59202129492258     -0.13908873941538
  N   0.73934076310010      2.73055992437335      0.05717549925390
