14
Coordinates from ORCA-job run
  C   -1.11723599133021     -0.02091280035035     -0.05307393034459
  C   0.33724419041060     -0.13453244773827     -0.55716941693517
  Cl  -2.19145084850410     -0.64118493588626     -1.34881940891190
  H   0.50627755638792     -1.18204820187824     -0.83464434898874
  H   -1.36883505144589      1.03455275297474      0.07595178430668
  N   -1.40972405394814     -0.70954684930981      1.16688929693738
  H   -1.04405982518245     -0.21641198430228      1.96963494709782
  H   -1.07325900733533     -1.66395478793197      1.15575722099332
  C   1.34209758535804      0.28933575648069      0.51846991908352
  H   1.29001040952684     -0.38127860883893      1.37678195581353
  H   1.14123123952534      1.31046125525831      0.85278025410141
  H   2.35845818608053      0.25791610312588      0.12347565141995
  C   0.52680820014821      0.68154648175093     -1.75763789021810
  N   0.70343741030863      1.37505826664556     -2.68839603435511
