14
Coordinates from ORCA-job run
  C   -1.07415692458114     -0.44291469239390     -0.22939864887029
  C   0.36219711482686     -0.06760196235576     -0.67188886643897
  Cl  -1.14507577544886     -2.22878976073457     -0.07104595037636
  H   0.58417433531520     -0.62410190820742     -1.58894991193375
  H   -1.75930185417800     -0.18963320934604     -1.04080093854172
  N   -1.56501897521539      0.16206206921834      0.97045265030067
  H   -1.72910865803031      1.15176980080197      0.83544275184538
  H   -0.94511204025738      0.01480898895731      1.75536142152964
  C   1.44066829055732     -0.36012515141580      0.37268581445407
  H   1.43637810064503     -1.41811762065000      0.63478796622978
  H   1.28562370308391      0.23353937002373      1.27519809755605
  H   2.42414323989076     -0.10529858641062     -0.02458262530194
  C   0.35006079245960      1.36068266611007     -0.99924706503072
  N   0.33352865093238      2.51471999640271     -1.21701469542183
