15

C	0.0	0.0	0.0
C	-0.697016	-0.053816	-1.322767
F	1.337252	0.0	0.0
H	-1.771673	0.056102	-1.101786
H	-0.354252	0.818392	-1.882611
N	-0.416799	1.264338	0.749836
O	-0.101044	2.299049	0.165281
O	-0.971458	1.164273	1.833347
N	-0.358876	-1.188197	0.898559
O	0.35148	-1.318192	1.892011
O	-1.29049	-1.905086	0.558954
N	-0.342878	-1.292464	-2.016282
H	-1.09452	-1.953048	-1.854908
H	-0.317778	-1.108394	-3.010423
Cl	-3.930046	0.0	0.0
