15

C	0.0	0.0	0.0
C	-0.681514	0.216329	-1.341185
F	1.339849	0.0	0.0
H	0.131175	0.340647	-2.061336
H	-1.246983	1.147863	-1.268767
N	-0.355048	1.031129	1.078296
O	-0.963789	2.041132	0.752561
O	0.104967	0.780374	2.187364
N	-0.385021	-1.351721	0.603354
O	0.404011	-2.259365	0.389548
O	-1.436411	-1.395683	1.217377
N	-1.491733	-0.940794	-1.693248
H	-2.405007	-0.824163	-1.239714
H	-1.645045	-0.930639	-2.691232
Cl	-4.139746	0.0	0.0
