15

C	0.0	0.0	0.0
C	-0.718987	0.34996	-1.287214
F	1.339858	0.0	0.0
H	-1.431795	1.140353	-1.044952
H	0.047457	0.730349	-1.96807
N	-0.324674	0.949114	1.16638
O	0.106905	0.587218	2.256377
O	-0.861218	2.018972	0.914794
N	-0.373289	-1.396367	0.504
O	-1.441491	-1.494536	1.07874
O	0.439106	-2.277089	0.267115
N	-1.364383	-0.835322	-1.843955
H	-1.566577	-0.643533	-2.817925
H	-2.280125	-0.881957	-1.380919
Cl	-4.021731	0.0	0.0
