15

C	0.0	0.0	0.0
C	-0.675561	0.339118	-1.293326
F	1.33704	0.0	0.0
H	-1.75429	0.385085	-1.077391
H	-0.317139	1.33571	-1.562672
N	-0.418948	0.994647	1.0782
O	-0.110252	2.152311	0.812423
O	-0.963807	0.588637	2.092722
N	-0.364896	-1.396109	0.505985
O	-1.277361	-1.983794	-0.058894
O	0.326365	-1.820565	1.424695
N	-0.290362	-0.634174	-2.315874
H	-0.338408	-0.184643	-3.219336
H	-0.985707	-1.370011	-2.30996
Cl	-3.924503	0.0	0.0
