13

C	-0.614027	0.019038	-1.377565
C	0.0	0.0	0.0
Br	-0.098189	1.632613	-2.325496
H	1.091054	0.0	0.0
H	-0.353464	-0.903249	0.508828
H	-0.354863	0.878537	0.546997
N	-0.113077	-1.21519	-2.141183
O	-0.545164	-2.26748	-1.670274
O	0.622013	-1.115085	-3.107404
N	-2.060811	-0.085187	-1.468686
H	-2.454574	0.761877	-1.07673
H	-2.335684	-0.86465	-0.87903
H	2.974172	0.0	0.0
