13

C	-0.213492	0.063856	-1.489092
C	0.0	0.0	0.0
Br	-0.574008	-1.920497	-2.186137
H	1.089401	0.0	0.0
H	-0.355631	0.927551	0.455047
H	-0.447265	-0.863105	0.480626
N	-1.534085	0.679214	-1.959121
O	-1.567569	1.128682	-3.100778
O	-2.465307	0.691289	-1.162529
N	0.834052	0.688515	-2.08965
H	0.82622	0.724683	-3.09646
H	1.745154	0.487016	-1.630506
H	2.910821	0.0	0.0
