12
Coordinates from ORCA-job run
  C   0.43953543417872     -0.05705568941784      0.61916888892763
  C   -0.42871914602427      0.10333800388771     -0.60290661528725
  F   0.26878144933255      0.98601034795483      1.45941254459757
  H   -0.24060056407111     -0.69829807940575     -1.31657652242578
  H   0.26136365844136     -0.99420817475994      1.14394225948950
  H   -0.28782428433146      1.08218835651451     -1.05906682908726
  N   1.87975883319650     -0.09145412058357      0.15202410938317
  O   2.16304348475335     -1.07412935548425     -0.52563414570245
  O   2.61361771739569      0.83019828557541      0.47243847909966
  N   -1.86763941310764      0.00486893864225     -0.20407648602705
  O   -2.16142781480969     -0.90428253399400      0.56680736252614
  O   -2.63988935495399      0.81382402107063     -0.70453304549387
