12
Coordinates from ORCA-job run
  C   0.52472564606540     -0.61849183452015      0.47563425421903
  C   -0.54346563234401     -0.52954324768926     -0.58426560625263
  F   -0.01996306588455     -0.64583709600387      1.71095296478469
  H   -1.15411356934235     -1.43058503057914     -0.58808211341144
  H   1.13995767597807     -1.50893934026648      0.32561187892860
  H   -0.09406626752961     -0.36527238113247     -1.56309777125963
  N   1.49818567412637      0.54125040033477      0.38017683774034
  O   1.99358327013182      0.68098936433520     -0.73206747403702
  O   1.74000108049315      1.17520200552793      1.39106839119366
  N   -1.46950677535622      0.61517269957915     -0.32392937358354
  O   -2.65813663920283      0.42585290702111     -0.55404436321042
  O   -0.95620139713523      1.66020155339321      0.06304237488837
