12
Coordinates from ORCA-job run
  C   0.59602570440316     -0.53060965303251      0.49759360878382
  C   -0.63031118569363     -0.61588662117901     -0.37475962293504
  F   0.25982702418476     -0.30418997154109      1.78561580106184
  H   -1.23243132451391     -1.48134677577703     -0.10410873561165
  H   1.18014457729998     -1.45136621274259      0.42679256729874
  H   -0.34585961420828     -0.65926920812923     -1.42560101012720
  N   1.53857863823737      0.55966998876832      0.02407594872361
  O   1.84372212802923      0.47027019829284     -1.15956784286968
  O   1.94336452948939      1.36609396873954      0.84147616704660
  N   -1.50354628817336      0.58524786406254     -0.20123479809675
  O   -0.93594010216640      1.66858925740226     -0.10354885912686
  O   -2.71357408688831      0.39179716513598     -0.20873322414744
