12
Coordinates from ORCA-job run
  C   0.73414195715638     -0.51801550465090     -0.22776164509170
  C   -0.74455741431264     -0.52172022048917      0.08910153011988
  F   1.24692114568758     -1.75346780708375     -0.01695522440366
  H   -0.94033152922885     -0.49751228598128      1.15859999002640
  H   0.93655279817350     -0.19626209119547     -1.24915696784365
  H   -1.18752172165607     -1.41322086995032     -0.35863070264241
  N   1.44949070087631      0.46118185878725      0.67535243461979
  O   2.53581341627090      0.13636905671620      1.12717403555040
  O   0.86263231373976      1.52799295559296      0.83024144492797
  N   -1.44663253739672      0.64896830313296     -0.51883624729251
  O   -1.11437018859551      0.96035594514216     -1.65828708609315
  O   -2.33213894071465      1.16733065997935      0.14815843812265
