12

C	0.0	0.0	0.0
C	-0.465001	0.202474	-1.433261
Cl	1.797415	0.0	0.0
H	-0.058483	1.131391	-1.834606
H	-0.110258	-0.643082	-2.024034
H	-1.556082	0.23664	-1.435786
C	-0.335395	1.183062	0.829103
N	-0.548176	2.126016	1.497267
N	-0.512844	-1.236414	0.511876
H	-0.313968	-1.303553	1.503853
H	-1.532553	-1.171265	0.404256
Cl	-3.599829	0.0	0.0
