13

C	0.0	0.0	0.0
C	-0.550118	0.010841	-1.445267
Br	1.947213	0.0	0.0
H	-1.61307	-0.258534	-1.323979
H	-0.360255	0.888502	0.517898
C	-0.384695	-1.20197	0.739854
N	-0.583344	-2.179885	1.360349
C	0.105735	-1.004933	-2.27499
N	0.614096	-1.818601	-2.952746
N	-0.51099	1.309019	-2.087397
H	0.366732	1.780986	-1.901152
H	-1.280396	1.853896	-1.712236
Br	-3.521966	0.0	0.0
