13

C	0.0	0.0	0.0
C	-0.594704	0.061961	-1.417275
Br	1.940413	0.0	0.0
H	-1.631273	-0.292188	-1.285473
H	-0.349255	0.880302	0.537032
C	-0.386381	-1.220438	0.706696
N	-0.61792	-2.208085	1.298662
C	0.089338	-0.828344	-2.354016
N	0.609402	-1.51054	-3.157024
N	-0.608906	1.45041	-1.871755
H	-1.577426	1.747892	-1.876671
H	-0.227526	1.542812	-2.803021
Br	-3.593325	0.0	0.0
