13

C	0.0	0.0	0.0
C	-0.420977	0.338314	-1.495008
Br	1.946077	0.0	0.0
H	0.379506	-0.0832	-2.11157
H	-0.364178	0.73552	0.71777
C	-0.429201	-1.347406	0.345829
N	-0.663332	-2.481516	0.54532
C	-0.335873	1.800922	-1.639271
N	-0.282263	2.966179	-1.766332
N	-1.665147	-0.150283	-2.001379
H	-2.473094	0.105305	-1.417666
H	-1.641259	-1.16276	-2.044116
Br	-4.238305	0.0	0.0
