13

C	0.0	0.0	0.0
C	-0.207291	0.007249	-1.58192
Br	1.953998	0.0	0.0
H	0.53431	0.744475	-1.915196
H	-0.372979	0.895177	0.494604
C	-0.372066	-1.241875	0.667838
N	-0.602609	-2.282476	1.16356
C	-1.424846	0.502549	-2.256133
N	-2.221074	1.091827	-2.883941
N	0.119444	-1.316867	-2.104534
H	-0.491455	-1.563698	-2.869101
H	1.083493	-1.37843	-2.393706
Br	-3.209292	0.0	0.0
