10
Coordinates from ORCA-job run
  C   -0.55765052048464     -0.46779131080372      0.15605103385059
  C   0.52694917826001      0.55087076244503     -0.22100103965645
  Br  0.00377459302981     -1.54523225370985      1.67836304434878
  H   0.14494697420572      1.19375968801106     -1.02101249259283
  H   -0.72519412617062     -1.17009102140761     -0.66282207353411
  H   0.75171398192337      1.18487441735967      0.64023145542672
  C   -1.80482208767002      0.21577240194176      0.47176202514700
  N   -2.80050904955098      0.79478983160529      0.70377380029651
  C   1.74593240157100     -0.10975960467038     -0.68012379696218
  N   2.71485865488636     -0.64719291077125     -1.06522195632402
