10
Coordinates from ORCA-job run
  C   -0.73773269525155     -0.38207745016229     -0.04500662866089
  C   0.77246998867960     -0.33251296660630     -0.31628438277823
  Br  -1.27832967106253     -2.23275399850383      0.24537005442892
  H   1.31614596295797     -0.69619012339237      0.55891386510490
  H   -1.29343921708974     -0.03924326284662     -0.91957567388449
  H   1.00722716909618     -0.99025824927403     -1.15653136628403
  C   -1.10512221147322      0.42368777329574      1.11153949199981
  N   -1.38055205788877      1.08452179287956      2.04297057297359
  C   1.19178914796722      1.03282466262675     -0.63040318848651
  N   1.50654358406482      2.13300182198339     -0.89099274441306
