10
Coordinates from ORCA-job run
  C   -0.68812997780362     -0.27933099345829      0.07513564861379
  C   0.68444963754075      0.38725516611983     -0.09265046873599
  Br  -0.50144418525431     -2.07500467033560      0.80559071646370
  H   0.53679089464869      1.41974189650334     -0.42646590221410
  H   -1.17780220558440     -0.39852670078606     -0.89325486748207
  H   1.19865311146093      0.41645610300431      0.87115803745487
  C   -1.53208706659261      0.52210917166118      0.95167381019099
  N   -2.19127217284789      1.20023496305688      1.64859263897957
  C   1.50922248026175     -0.31761045527428     -1.07043169613328
  N   2.16261948417072     -0.87532448049132     -1.86934791713748
