16

C	-0.568638	0.003102	-1.412765
C	0.0	0.0	0.0
Cl	0.14254	1.349615	-2.312988
H	1.087705	0.0	0.0
N	-0.134496	-1.290909	-2.151955
O	0.76477	-1.937068	-1.649306
O	-0.7184	-1.499077	-3.20451
C	-2.02254	0.084637	-1.491013
N	-3.188116	0.191562	-1.594613
N	-0.504082	-1.165923	0.782392
O	-1.283309	-1.940788	0.230422
O	-0.087173	-1.245223	1.928948
N	-0.496294	1.218768	0.727899
O	0.235302	2.199789	0.729883
O	-1.611028	1.130896	1.244078
Cl	3.127829	0.0	0.0
