16

C	-0.584147	-0.014899	-1.41305
C	0.0	0.0	0.0
Cl	-2.297548	0.394427	-1.454727
H	1.089392	0.0	0.0
N	0.211861	1.029199	-2.301657
O	-0.363228	2.044965	-2.642267
O	1.344505	0.665439	-2.56229
C	-0.354444	-1.298348	-2.064193
N	-0.157095	-2.325179	-2.601996
N	-0.450361	-1.173441	0.808385
O	0.154769	-1.335406	1.860463
O	-1.375438	-1.864643	0.383204
N	-0.439236	1.245903	0.706016
O	-1.120643	1.149913	1.718693
O	-0.063942	2.280168	0.166996
Cl	3.104823	0.0	0.0
