14

C	-0.502823	-0.088696	-1.436152
C	0.0	0.0	0.0
F	-0.070198	1.032717	-2.136386
H	1.093349	0.0	0.0
H	-0.304415	-0.90052	0.545261
C	0.069004	-1.283752	-2.096327
N	0.393056	-2.26266	-2.65782
C	-2.018456	-0.135723	-1.57033
H	-2.41889	-1.019211	-1.069169
H	-2.43969	0.761007	-1.112602
H	-2.296538	-0.165614	-2.626336
C	-0.542172	1.172451	0.661723
N	-0.976511	2.125517	1.195842
H	2.722173	0.0	0.0
