14

C	-0.408424	0.036762	-1.472192
C	0.0	0.0	0.0
F	-0.058983	-1.197327	-2.022276
H	1.093775	0.0	0.0
H	-0.365287	-0.922757	0.459108
C	-1.872413	0.161398	-1.655585
N	-3.033394	0.259569	-1.808611
C	0.34509	1.122264	-2.213385
H	1.408105	0.972445	-1.999806
H	0.043962	2.107727	-1.852062
H	0.144502	1.050843	-3.284649
C	-0.504152	1.157211	0.716255
N	-0.909838	2.103966	1.282842
H	2.777166	0.0	0.0
