14

C	-0.525188	-0.014767	-1.431104
C	0.0	0.0	0.0
F	-0.074751	1.150304	-2.048397
H	1.093064	0.0	0.0
H	-0.321496	0.94419	0.454461
C	0.010088	-1.162222	-2.194704
N	0.330447	-2.084049	-2.847741
C	-2.04404	-0.013131	-1.538024
H	-2.429832	0.857876	-1.003315
H	-2.463146	-0.918942	-1.098569
H	-2.339775	0.051211	-2.587693
C	-0.531663	-1.112337	0.76554
N	-0.962791	-2.01364	1.385258
H	2.728543	0.0	0.0
