15

C	0.0	0.0	0.0
C	-0.496497	0.082044	-1.430252
Br	1.936593	0.0	0.0
H	-1.570268	0.30514	-1.311554
H	0.00942	0.89225	-1.95553
N	-0.277769	1.405376	0.674356
O	-0.274978	2.405651	-0.034057
O	-0.441329	1.395814	1.889516
N	-0.649881	-1.020792	0.67423
H	-0.442273	-0.978545	1.667614
H	-1.698411	-0.775053	0.516833
N	-0.23259	-1.195076	-2.104765
H	-0.611837	-1.916619	-1.498693
H	-0.79776	-1.206617	-2.948194
H	-3.006786	0.0	0.0
