15

C	0.0	0.0	0.0
C	-0.232003	-0.023097	-1.52186
Br	2.04404	0.0	0.0
H	-1.299911	0.10911	-1.683082
H	0.294491	0.83705	-1.942309
N	-0.606727	1.158799	0.639082
O	-0.576898	1.1463	1.904923
O	-0.562207	2.230299	-0.037321
N	-0.332097	-1.20852	0.677694
H	0.09825	-1.969268	0.168427
H	0.021918	-1.14167	1.624657
N	0.179674	-1.316835	-2.08084
H	-0.364717	-1.500996	-2.913252
H	1.155431	-1.274546	-2.343796
H	-2.059885	0.0	0.0
