14

C	-0.212423	0.035169	-1.499448
C	0.0	0.0	0.0
Br	-0.255187	-1.888349	-2.231401
H	1.0944	0.0	0.0
H	-0.308844	0.969796	0.40068
N	-1.594211	0.526653	-1.944186
O	-2.499752	0.485403	-1.119034
O	-1.689419	0.940773	-3.094897
N	0.760133	0.839508	-2.047726
H	0.771054	0.849935	-3.056791
H	1.680079	0.648046	-1.60309
C	-0.610726	-1.068844	0.754654
N	-1.05958	-1.922082	1.426285
H	2.708645	0.0	0.0
