14

C	-0.269754	0.147699	-1.49538
C	0.0	0.0	0.0
Br	-0.021938	-1.554946	-2.395018
H	1.092863	0.0	0.0
H	-0.29409	0.942663	0.476763
N	-1.723834	0.60955	-1.696859
O	-2.6107	-0.214129	-1.878767
O	-1.8962	1.820622	-1.551778
N	0.591686	1.11506	-2.100319
H	0.361858	2.017566	-1.694692
H	1.537974	0.873771	-1.773552
C	-0.622092	-1.116232	0.675411
N	-1.110192	-2.010359	1.262772
H	2.691177	0.0	0.0
