14

C	-0.22029	-0.042865	-1.488106
C	0.0	0.0	0.0
Br	-2.134507	-0.414517	-2.02918
H	1.092514	0.0	0.0
H	-0.28128	-0.985391	0.380649
N	-0.001097	1.357224	-2.148373
O	0.479207	1.34684	-3.277872
O	-0.333434	2.354537	-1.523762
N	0.639701	-1.003802	-2.010136
H	1.562974	-0.87742	-1.549169
H	0.723079	-0.911114	-3.014326
C	-0.630028	1.018334	0.807296
N	-1.124057	1.770535	1.563236
H	2.658281	0.0	0.0
