14

C	-0.217586	0.019598	-1.494638
C	0.0	0.0	0.0
Br	-0.068547	-1.960955	-2.13436
H	1.093779	0.0	0.0
H	-0.413736	-0.880526	0.484408
N	-1.645431	0.315138	-1.946667
O	-2.546228	0.016183	-1.171878
O	-1.786376	0.817623	-3.057226
N	0.675992	0.879932	-2.073817
H	0.661025	0.893823	-3.081975
H	1.612478	0.748686	-1.650883
C	-0.483145	1.219973	0.62138
N	-0.860299	2.194203	1.160094
H	2.694721	0.0	0.0
