14

C	-0.551669	-0.004854	-1.39882
C	0.0	0.0	0.0
Br	0.35933	1.503886	-2.406382
H	1.089345	0.0	0.0
H	-0.279909	0.954216	0.461417
N	-0.146382	-1.25583	-2.165759
O	-0.677491	-1.402069	-3.266879
O	0.665898	-2.007647	-1.643327
N	-1.953722	0.069922	-1.500234
H	-2.304567	0.846169	-0.957595
H	-2.24726	0.144722	-2.467336
C	-0.536079	-1.089172	0.796159
N	-0.945916	-1.952004	1.480814
H	2.663241	0.0	0.0
