14

C	-0.421075	0.006179	-1.447437
C	0.0	0.0	0.0
Br	-2.393499	0.264393	-1.655509
H	1.097147	0.0	0.0
H	-0.336047	0.901457	0.516869
N	0.232678	1.250731	-2.069128
O	1.064504	1.062461	-2.946643
O	-0.091382	2.334332	-1.597753
N	-0.046867	-1.12654	-2.217896
H	-0.490453	-1.944101	-1.812702
H	0.965315	-1.226203	-2.127332
C	-0.488739	-1.190137	0.65996
N	-0.88074	-2.178553	1.161526
H	2.641423	0.0	0.0
