14

C	-0.594443	0.007435	-1.386751
C	0.0	0.0	0.0
Br	0.203679	1.467791	-2.432975
H	1.089189	0.0	0.0
H	-0.30677	0.93608	0.477426
N	-0.176871	-1.274596	-2.149468
O	-0.821591	-1.526736	-3.167147
O	0.753609	-1.932517	-1.7056
N	-2.004446	0.169951	-1.412889
H	-2.422904	-0.526922	-0.804662
H	-2.344149	0.037554	-2.359808
C	-0.535737	-1.116367	0.759442
N	-0.986955	-2.023773	1.355814
H	2.669928	0.0	0.0
