14

C	-0.234531	0.016482	-1.493795
C	0.0	0.0	0.0
Br	-0.225516	-1.908035	-2.209322
H	1.094422	0.0	0.0
H	-0.307958	0.973264	0.393132
N	-1.636241	0.464914	-1.919563
O	-1.762458	0.861338	-3.073664
O	-2.52666	0.408173	-1.078801
N	0.706129	0.850389	-2.062394
H	0.703485	0.844036	-3.072052
H	1.635932	0.677128	-1.635953
C	-0.598992	-1.062901	0.773147
N	-1.033376	-1.914363	1.456727
H	2.704024	0.0	0.0
