13
Coordinates from ORCA-job run
  C   0.66204307229656      0.00874714630251     -0.42510557925254
  C   -0.74883919993888     -0.53834188747310     -0.50815340735280
  Br  1.44760516699367     -0.12849920591561     -2.19860775492423
  H   -1.34442406388240      0.05140864196896     -1.20377080210642
  H   -0.74074456689643     -1.58453544979726     -0.81288206881314
  C   1.49934654993622     -0.69935792073367      0.52655993933634
  N   2.16083632794909     -1.33820679627321      1.25919742030327
  N   0.63770942568119      1.50978737166120     -0.08246282379435
  O   1.58414171982341      1.93601674215498      0.55659270775957
  O   -0.30923081520839      2.13514997747262     -0.53239950552891
  N   -1.44005700766438     -0.47075690436270      0.82096026912798
  O   -2.50904801195658     -1.06096806301947      0.89008049029724
  O   -0.89733859713309      0.18055634801476      1.70999111494800
