13
Coordinates from ORCA-job run
  C   0.58023024022450     -0.01463301662927     -0.42685451481970
  C   -0.50760517986041     -0.75974457180364      0.33507968099192
  Br  0.19692138200760      0.06905529502660     -2.30768304319085
  H   -0.30440463026465     -0.69803924549135      1.40576695559848
  H   -0.56165970974819     -1.79690705355658      0.00969501995939
  C   1.84960089038995     -0.69571247340062     -0.21439187508900
  N   2.85892654684505     -1.26907040819926     -0.02483638372114
  N   0.75834069857588      1.41423988986551      0.18414690834937
  O   0.78113204746219      2.37106832436122     -0.55995148855177
  O   0.90079586428619      1.39046546240612      1.39739640524569
  N   -1.85331503762708     -0.15271627476900      0.10924438769242
  O   -2.79392641182306     -0.93019061566003      0.00183730281583
  O   -1.90603670046799      1.07318468785029      0.09155064471935
