13
Coordinates from ORCA-job run
  C   0.66437394754315      0.00029416905679     -0.42107392558061
  C   -0.75426343324406     -0.52471489296971     -0.51444058203594
  Br  1.45717645912950     -0.14097451308106     -2.19120718706938
  H   -0.76079312311479     -1.56929252220845     -0.82469539492664
  H   -1.33596907817452      0.07769690030877     -1.21104393884619
  C   1.48570128139006     -0.72503477968734      0.53148442219678
  N   2.13319722322114     -1.37738116957481      1.26478650845307
  N   0.66130195747912      1.49998848308150     -0.07173351558587
  O   -0.27345674335199      2.14195494616862     -0.52364642654918
  O   1.61088562671647      1.90838158493952      0.57430140434881
  N   -1.45214934469763     -0.45230434010998      0.81064068845071
  O   -0.90392636751935      0.18555996049878      1.70611956618742
  O   -2.53107840537709     -1.02517382642262      0.87050838095701
