13

C	0.0	0.0	0.0
C	-0.354515	0.148451	-1.497256
Br	1.943625	0.0	0.0
H	0.528596	-0.161742	-2.08489
H	-0.369847	0.839688	0.581191
C	-0.412995	-1.285565	0.550369
N	-0.528462	-2.373253	0.983734
N	-0.485682	1.628249	-1.870333
O	-0.383949	2.464305	-0.971277
O	-0.605805	1.861647	-3.082665
C	-1.461764	-0.627945	-2.078625
N	-1.999988	-1.31048	-2.883682
Cl	-3.005169	0.0	0.0
