13

C	0.0	0.0	0.0
C	-0.440901	-0.050642	-1.486044
Br	1.933872	0.0	0.0
H	0.464517	-0.034134	-2.105119
H	-0.353295	0.923538	0.450069
C	-0.404364	-1.165917	0.780084
N	-0.49304	-2.137034	1.437343
N	-1.111464	1.235788	-1.926472
O	-1.790939	1.174027	-2.938056
O	-0.774512	2.253401	-1.336155
C	-1.185638	-1.230241	-1.902782
N	-1.546763	-2.245055	-2.373679
Cl	-2.938409	0.0	0.0
