14
Coordinates from ORCA-job run
  C   -0.51573613713266      0.22245344171184      0.17332559265919
  C   0.90503639677679     -0.35987107137092      0.19066719081503
  Br  -0.86824929248613      1.11877676736086      1.88157504714947
  H   0.98706748292289     -0.99229524755070     -0.70792063845434
  H   0.97554817045418     -1.01409713931629      1.06344269181206
  C   -1.56532687699402     -0.86391525064697     -0.03430544446176
  H   -1.40288771478448     -1.35178543242286     -0.99953394675218
  H   -1.48507252510719     -1.60707479318136      0.76153729524472
  H   -2.56995315555117     -0.44146002278415     -0.01837901385969
  C   -0.60186145603986      1.23120165437188     -0.87996217529460
  N   -0.64832133746300      1.99050859835022     -1.77604347203256
  N   1.90721700360255      0.68155610909679      0.28169627543993
  H   2.12702138707808      1.05480113810662     -0.63242366857859
  H   2.75851805472403      0.33020124827504      0.69632426631333
