14
Coordinates from ORCA-job run
  C   -0.52177299382135      0.21066444446736      0.17311236949575
  C   0.91218142037236     -0.33856610406116      0.19113110513188
  Br  -0.89561335276599      1.10183962657264      1.87935278779125
  H   1.00849685276392     -0.97008885795086     -0.70673899029072
  H   0.99750866584962     -0.98966775998817      1.06496281228505
  C   -1.54539131496082     -0.90072251462028     -0.03228445723810
  H   -2.55977350827257     -0.50209169451530     -0.01756223322947
  H   -1.44798208591752     -1.63986529372901      0.76540535019809
  H   -1.37135496886743     -1.38716744839910     -0.99622837976139
  C   -0.63063143143966      1.21534705469068     -0.88190816594633
  N   -0.68295322594048      1.97541612275298     -1.77710856188783
  N   1.89018393934677      0.72551821371639      0.28135673364642
  H   2.09649302769146      1.10736215172589     -0.63244095188782
  H   2.75160897596171      0.39202205933795      0.68995058169322
