14
Coordinates from ORCA-job run
  C   -0.55462877890826      0.35329571487003      0.33013925039074
  C   0.92516085450675      0.03144742782470      0.59999556888669
  Br  -1.34031879552399      0.98598560183372      2.01774101121393
  H   0.95012633964354     -0.79837825982154      1.31137752876589
  H   1.38826774679217      0.90066943306023      1.08370742696230
  C   -1.33395074077288     -0.85685772384683     -0.16460717896625
  H   -1.29999886490702     -1.64365338433211      0.59187586544653
  H   -0.86504261997515     -1.21746398093486     -1.08081076367937
  H   -2.37528873903940     -0.59695165717092     -0.35703538031665
  C   -0.63257941306144      1.45365360039558     -0.62774087104419
  N   -0.64182423166851      2.31562929440298     -1.42697120831600
  N   1.55257736316585     -0.37666337733138     -0.64813067451054
  H   1.88500967451666      0.43095999789951     -1.15993850965285
  H   2.34249020523168     -0.98167268684912     -0.46960206518023
