14
Coordinates from ORCA-job run
  C   -0.49214436137124      0.23526137779965      0.08196021212679
  C   0.91953267559939     -0.35550664732888      0.10769898010139
  Br  -0.74314121644481      1.30656501856201      1.72004435062970
  H   1.01149904899114     -0.97501373759116     -0.79142355296441
  H   0.97481249188338     -1.02235534236828      0.98100050898200
  C   -1.56024922276789     -0.85134758851623      0.05505519025093
  H   -2.55924317572118     -0.41542722919923      0.06984787589090
  H   -1.44844330040534     -1.44319775849330     -0.85806677649978
  H   -1.44762743311337     -1.50434952587831      0.92242648661325
  C   -0.64438185041985      1.13785584861494     -1.05559702296895
  N   -0.81166686564466      1.80371074240062     -2.00909523301019
  N   1.92936860722835      0.68262822096617      0.05527787442207
  H   2.81507087450346      0.30028558202616     -0.24690817315625
  H   2.05761372768261      1.09989103900584      0.96777927958256
