15

C	-0.567319	0.038294	-1.411939
C	0.0	0.0	0.0
Cl	0.107291	1.474858	-2.232825
H	1.089141	0.0	0.0
H	-1.64907	0.214466	-1.355367
N	-0.212472	-1.155956	-2.147442
H	-0.085907	-0.947682	-3.128608
H	-0.950994	-1.837644	-2.03197
N	-0.481438	-1.29403	0.624901
O	-1.569258	-1.744798	0.235939
O	0.181271	-1.770081	1.533859
N	-0.467636	1.053119	0.859716
H	0.304619	1.664396	1.080996
H	-1.219407	1.585088	0.441882
Cl	3.393841	0.0	0.0
