15

C	-0.529927	-0.048933	-1.426826
C	0.0	0.0	0.0
Cl	0.032071	1.46506	-2.289983
H	1.089113	0.0	0.0
H	-1.621098	0.020678	-1.445318
N	-0.088569	-1.251696	-2.03035
H	-0.327388	-1.274606	-3.011614
H	0.918518	-1.334785	-1.922634
N	-0.448592	-1.325869	0.61481
O	0.368134	-2.222726	0.772993
O	-1.647023	-1.390862	0.914153
N	-0.477307	1.102741	0.757737
H	0.156944	1.271424	1.526461
H	-1.409216	0.91061	1.09868
Cl	3.40625	0.0	0.0
