15

C	-0.456061	0.004481	-1.457257
C	0.0	0.0	0.0
Cl	-0.185099	1.679525	-2.157468
H	1.096846	0.0	0.0
H	-1.535176	-0.137356	-1.538681
N	0.244859	-1.026266	-2.124882
H	1.245513	-0.939307	-1.959753
H	0.055665	-1.032937	-3.11727
N	-0.45661	-1.36841	0.513504
O	-1.671669	-1.477941	0.722356
O	0.367521	-2.252165	0.698852
N	-0.529161	1.046597	0.798409
H	-1.494797	0.863663	1.037932
H	0.02927	1.154838	1.633638
Cl	3.367749	0.0	0.0
