15

C	-0.323311	0.069913	-1.476442
C	0.0	0.0	0.0
Cl	-2.097601	0.224433	-1.78535
H	1.102731	0.0	0.0
H	-0.048585	-0.876219	-1.941122
N	0.350504	1.239744	-1.992628
H	0.314031	1.232692	-3.004667
H	1.328988	1.17573	-1.707452
N	-0.424812	-1.313546	0.59136
O	-0.426932	-2.302881	-0.141459
O	-0.668351	-1.330258	1.79313
N	-0.575745	1.083417	0.747178
H	0.043259	1.306585	1.516261
H	-0.602584	1.884684	0.1259
Cl	3.295964	0.0	0.0
