16
Coordinates from ORCA-job run
  C   1.03188655230421     -0.15955057134762     -0.05788799308907
  C   -0.38668526492179     -0.05061781766648     -0.65984137489114
  Cl  2.25722958324713      0.08470355776876     -1.35047645259128
  H   -0.37552364572992     -0.54575654087494     -1.63107612109972
  C   1.21663222829535     -1.54567874689361      0.41588163718788
  N   1.35333204610723     -2.62750614058629      0.85667164860729
  N   1.24717315292671      0.84179157138535      0.94198760710285
  H   2.12565188498401      0.69694470867074      1.42319909311616
  H   0.48477308706371      0.88632639783968      1.60644161617975
  N   -0.65537380575466      1.39838419758129     -0.95913344426137
  O   -1.14516467141901      2.07257479711287     -0.05668496030855
  O   -0.36256626782444      1.79560954034321     -2.08274302384489
  C   -1.48367022530890     -0.60630074997793      0.23009737705429
  H   -2.45378698112052     -0.41547176267825     -0.23163951471215
  H   -1.49173095069274     -0.14136681209836      1.21536837699702
  H   -1.36217672215637     -1.68408562857841      0.34183552855291
