16
Coordinates from ORCA-job run
  C   0.97524577566559     -0.39208748476002      0.09096448809339
  C   -0.34381015651662      0.06255530994847     -0.57693266520756
  Cl  1.52966387160650     -1.79204567393220     -0.90740795668383
  H   -0.14468377197964      0.20304834045432     -1.64115283449908
  C   0.74943596765761     -0.88864431901781      1.45220200827712
  N   0.56445971553660     -1.31103435120080      2.53249764004523
  N   2.03412794185048      0.57402189253265      0.11208103403197
  H   2.18245377570828      0.97791592989639     -0.80536875630854
  H   1.84938424138462      1.29728657822857      0.79674517044301
  N   -0.69028238660206      1.43083407095754     -0.07045910371470
  O   -1.06361168421604      2.25280517043751     -0.90287297274801
  O   -0.59787063665176      1.62068047517017      1.14118058939714
  C   -1.53941590710664     -0.84226356491120     -0.34453828695066
  H   -1.32677737384643     -1.84547293393554     -0.71370398443834
  H   -2.40514782044328     -0.45051509820220     -0.88206714379919
  H   -1.77417155204721     -0.89708434166585      0.71983277406202
