16
Coordinates from ORCA-job run
  C   0.97507595412248     -0.26517098004522      0.08297820251106
  C   -0.38468206390000     -0.06599924387505     -0.61193308950988
  Cl  2.26417934685585      0.22034453531492     -1.15066543386394
  H   -0.39605379098625     -0.67783671218541     -1.51400536457126
  C   1.15768361906915     -1.70701090522571      0.28461994931125
  N   1.27241022710034     -2.86382740544394      0.45402866977655
  N   1.07310783421366      0.39735173999135      1.32343512067102
  H   0.91414251572363      1.39184727517848      1.22096429662251
  H   1.95577898825345      0.21336774724037      1.78216901167477
  N   -0.51728760719888      1.34110572189581     -1.11519745618239
  O   -0.28709665529784      2.25187335016771     -0.32038015819681
  O   -0.89646579807736      1.48045960244767     -2.27248805031978
  C   -1.56420111182817     -0.36785391441347      0.29507263784976
  H   -1.57022773245199      0.30427348620196      1.15174290683311
  H   -1.49919798704104     -1.39532900602686      0.65660157413572
  H   -2.49316573855705     -0.25659529122262     -0.26794281674168
