16
Coordinates from ORCA-job run
  C   0.82875615050378     -0.08787276585099      0.42987917032929
  C   -0.47123958242986      0.39270046231706     -0.24868986608104
  Cl  0.40640211265199     -1.38072922549956      1.66000988516539
  H   -0.21163003599562      1.31233363585053     -0.77877509646609
  C   1.48625408513647      0.98877294653764      1.17784966532587
  N   2.09409101868712      1.81833876886239      1.74545692699720
  N   1.72704179194917     -0.54120792443053     -0.57833755758368
  H   1.39667281522432     -1.40254831716800     -0.99615300261760
  H   2.65243322904422     -0.69611510097911     -0.19659788805406
  N   -1.44945278200736      0.82670320072616      0.81046172877197
  O   -2.42813797525313      0.11728211097928      1.02063568827162
  O   -1.17658560120571      1.87501985148629      1.39133007023093
  C   -1.09158217180746     -0.62483532483814     -1.17941549985007
  H   -1.26149768778853     -1.57591437548842     -0.67607558505578
  H   -0.44788805141265     -0.76497629807448     -2.04863021091305
  H   -2.05463731529672     -0.25695164443011     -1.53294842847088
