13
Coordinates from ORCA-job run
  C   -0.30316582803375     -0.15860976333743     -0.33282687972685
  C   0.97686129540670     -0.18899974106625      0.52528668468843
  H   -0.34098469893036     -1.07687907481485     -0.92889108727610
  H   1.06901831775115      0.74622073613786      1.08527267358087
  H   0.89885404920471     -1.00241533588690      1.25278497383809
  C   -0.25375819181414      0.97201058794947     -1.26405361224093
  N   -0.22829509427760      1.89823219971774     -1.98510819854190
  C   -1.55022455224221     -0.07328146443108      0.55191718517680
  H   -2.45527625707351     -0.05279352426098     -0.05671455445936
  H   -1.52745995455086      0.83211735486296      1.16218190048545
  H   -1.59895653919690     -0.94107493115933      1.21354827054697
  C   2.17963410800026     -0.38895831237447     -0.28057386263864
  N   3.13275334575649     -0.56556873133676     -0.94182349343284
