15

C	-0.583536	-0.019959	-1.391135
C	0.0	0.0	0.0
Cl	0.367323	-0.989036	-2.540336
H	1.085217	0.0	0.0
H	-0.383828	0.869332	0.53413
N	-1.931693	-0.443088	-1.436882
H	-2.325469	-0.279859	-2.354422
H	-2.471757	0.035127	-0.72543
N	-0.456947	1.433888	-1.964487
O	-1.201964	1.695617	-2.909807
O	0.347803	2.202085	-1.458793
N	-0.486559	-1.177581	0.736203
O	-1.199484	-0.980425	1.73073
O	-0.143342	-2.288754	0.343973
F	2.518424	0.0	0.0
