15

C	-0.530967	0.020604	-1.428086
C	0.0	0.0	0.0
Cl	-0.04439	-1.445397	-2.276255
H	1.089033	0.0	0.0
H	-0.415664	0.873157	0.506525
N	-1.93928	0.238979	-1.662387
H	-2.18496	1.090108	-1.166181
H	-2.438068	-0.518072	-1.20793
N	0.14528	1.24473	-2.074373
O	0.910152	1.115059	-3.011216
O	-0.204829	2.308016	-1.564219
N	-0.575359	-1.176848	0.691202
O	-1.789727	-1.148893	0.952961
O	0.158936	-2.119	0.971963
F	2.541225	0.0	0.0
