15

C	-0.441673	-0.01303	-1.429219
C	0.0	0.0	0.0
Cl	-2.338629	0.245496	-1.529976
H	1.091054	0.0	0.0
H	-0.41873	-0.832445	0.55176
N	0.265534	0.822486	-2.252243
H	-0.13569	0.969915	-3.163414
H	0.566338	1.656073	-1.76909
N	-0.369886	-1.443256	-1.995134
O	-0.266402	-1.529722	-3.212004
O	-0.453705	-2.382018	-1.215817
N	-0.414856	1.226748	0.683826
O	-0.850653	1.123445	1.831605
O	-0.242576	2.307865	0.110159
F	2.497997	0.0	0.0
