15

C	-0.114838	0.106158	-1.516195
C	0.0	0.0	0.0
Cl	-1.733583	0.621167	-2.107809
H	1.091975	0.0	0.0
H	-0.493981	-0.856881	0.43926
N	0.906893	0.873236	-2.129634
H	1.76423	0.629356	-1.596116
H	0.697177	1.841431	-1.912337
N	0.037812	-1.36677	-2.004898
O	0.931453	-1.614984	-2.801195
O	-0.75575	-2.179549	-1.537832
N	-0.464246	1.202693	0.690392
O	-0.987336	1.047448	1.798618
O	-0.27033	2.305233	0.168089
F	2.574203	0.0	0.0
