13
Coordinates from ORCA-job run
  C   0.86101905408284      0.68777304274643      0.00030534569057
  C   -0.60086358206251      0.60155302863898      0.36957661491659
  F   1.02010807715909      1.00325983619173     -1.31135114977117
  H   -1.03173843356604      1.58689732400732      0.16920833034859
  H   1.42605780295428      1.39470826880221      0.60978093435579
  H   -0.66585612315348      0.42460756989455      1.44544128496304
  N   1.50338975151851     -0.65894518404616      0.24551433817215
  O   1.81839083402739     -1.34186299017719     -0.71834905594976
  O   1.60996826879494     -0.95859803025459      1.43100907824262
  C   -1.34004207117533     -0.47902755205956     -0.41292983953499
  H   -0.99090010394661     -1.47755367851989     -0.14288836653041
  H   -1.20171924416102     -0.34889044498294     -1.48686589594910
  H   -2.40881423047206     -0.43292119024090     -0.19845161895394
