13
Coordinates from ORCA-job run
  C   0.73498144524448      0.45772497750895     -0.06540790851277
  C   -0.44349522280412     -0.46005181239280      0.14974150174450
  F   0.93830410782342      0.69160854642666     -1.38786750710338
  H   -0.52030038164845     -0.66400155413438      1.22021798089545
  H   0.64893980789258      1.41154942327017      0.45816444764754
  H   -0.22134987267749     -1.40384897569373     -0.35841415919970
  N   1.97416696149634     -0.19944296319946      0.49860839064476
  O   2.04530426470536     -0.18168041623484      1.72382930696368
  O   2.76270607230540     -0.71660583881023     -0.27941176562554
  C   -1.73212352638987      0.15186794382601     -0.38866255915509
  H   -1.65490567467287      0.34496760616247     -1.45897569112797
  H   -1.96179996033832      1.09426255020579      0.11467402074851
  H   -2.57142802093645     -0.52634948693462     -0.22649605791999
