13
Coordinates from ORCA-job run
  C   0.86803840949055      0.67815476986237     -0.03395037654330
  C   -0.58528492555093      0.61559268317809      0.37200275477924
  F   0.99922818775982      0.96642615221348     -1.35474824452082
  H   -0.62613795390199      0.46090502567292      1.45244410563448
  H   1.45621556235749      1.38941066257337      0.54801472251602
  H   -1.01047044219492      1.60155164760115      0.16247005272937
  N   1.50083928496729     -0.67134124615697      0.22193959296999
  O   1.62985322531514     -0.95101288578258      1.41007903338475
  O   1.78849266500322     -1.37457139176996     -0.73582416477845
  C   -1.35451638339741     -0.47192800655407     -0.37087281938939
  H   -2.41774857757152     -0.40799716254182     -0.13461763222057
  H   -1.01134372522046     -1.46863184599422     -0.08679456901249
  H   -1.23816532705629     -0.36655840230177     -1.45014245554882
