19

C	-0.03539	-0.005453	-0.01853
C	-0.338118	0.378424	-1.477806
F	1.365659	-0.152478	0.066016
H	0.474388	1.02371	-1.827163
C	-0.428707	1.128658	0.905491
H	-0.017011	2.076056	0.549926
H	-0.023622	0.914183	1.898229
H	-1.514776	1.205621	0.967554
C	-0.658323	-1.319184	0.399459
H	-0.417879	-1.500738	1.449819
H	-1.74517	-1.277153	0.297805
H	-0.254537	-2.142801	-0.192433
N	-1.601302	0.972575	-1.628617
H	-2.360704	0.531101	-1.101896
H	-1.871852	1.067646	-2.596553
N	-0.119734	-0.885799	-2.345508
O	1.046552	-1.185101	-2.602933
O	-1.108687	-1.513229	-2.714647
Cl	-4.078134	0.010283	0.309145
