19

C	0.012306	0.012628	0.028142
C	-0.501155	0.20087	-1.401508
F	1.429831	-0.00556	-0.044484
H	-1.597431	0.248513	-1.365046
C	-0.394695	1.127986	0.964895
H	-1.483771	1.212267	0.961796
H	0.040532	2.081683	0.667728
H	-0.04969	0.883971	1.972899
C	-0.452268	-1.333983	0.539641
H	-1.544608	-1.359476	0.516694
H	-0.098562	-1.471633	1.565196
H	-0.064098	-2.128896	-0.094767
N	-0.048066	-0.841291	-2.25824
H	-0.541514	-0.804981	-3.139747
H	0.943847	-0.733412	-2.426274
N	-0.03533	1.573211	-1.903238
O	-0.695789	2.5566	-1.577505
O	0.979437	1.613822	-2.603097
Cl	-3.802661	-0.096349	-0.526876
