14

C	0.0	0.0	0.0
C	-0.32334	-0.570414	-1.418954
Br	1.994253	0.0	0.0
H	0.368179	-0.059858	-2.096908
H	-0.264465	-0.707266	0.793701
N	-0.538226	1.320443	0.121072
H	-1.557466	1.217233	0.14268
H	-0.258163	1.721759	1.009158
N	-1.649745	-0.392215	-1.950775
H	-2.382486	-0.677131	-1.300137
H	-1.805417	0.59529	-2.111365
C	0.030904	-2.001513	-1.442987
N	0.295495	-3.145208	-1.449169
Cl	-4.047973	0.0	0.0
