14

C	0.0	0.0	0.0
C	-0.394445	0.342014	-1.477074
Br	1.941323	0.0	0.0
H	0.381821	0.998396	-1.882069
H	-0.270459	-1.029253	0.235126
N	-0.547387	0.915223	0.936495
H	-1.218576	0.445361	1.528722
H	-1.048299	1.641018	0.433643
N	-1.637568	1.076526	-1.521947
H	-1.887148	1.288488	-2.48009
H	-2.427713	0.581216	-1.08392
C	-0.334625	-0.902815	-2.275619
N	-0.277393	-1.891202	-2.908233
Cl	-4.167	0.0	0.0
