14

C	0.0	0.0	0.0
C	-0.551696	0.175466	-1.418235
Br	1.991873	0.0	0.0
H	-1.638963	0.280472	-1.241345
H	-0.288453	-0.988199	0.355441
N	-0.512006	0.994331	0.845322
H	-0.109567	1.908464	0.709433
H	-0.586422	0.737712	1.813243
N	-0.212206	-0.970251	-2.267502
H	-0.880202	-1.700332	-2.035343
H	-0.387647	-0.724579	-3.23546
C	-0.059152	1.420056	-2.008457
N	0.31498	2.421178	-2.496016
Cl	-3.758733	0.0	0.0
