14

C	0.0	0.0	0.0
C	-0.553027	-0.201738	-1.414451
Br	1.93887	0.0	0.0
H	-1.600727	0.124453	-1.34923
H	-0.278916	-0.88281	0.584821
N	-0.472192	1.261984	0.504828
H	-1.494039	1.197775	0.490513
H	-0.183038	1.367976	1.47055
N	-0.464829	-1.619976	-1.788513
H	-1.298703	-2.054875	-1.401694
H	-0.539777	-1.701769	-2.795713
C	0.115696	0.641447	-2.405072
N	0.588131	1.298356	-3.256231
Cl	-3.541463	0.0	0.0
