14

C	0.0	0.0	0.0
C	-0.502855	-0.165313	-1.442689
Br	1.953364	0.0	0.0
H	-1.591781	-0.030215	-1.367356
H	-0.274911	-0.909555	0.548699
N	-0.482506	1.233845	0.543913
H	-1.505291	1.17812	0.483963
H	-0.231984	1.297551	1.523718
N	-0.264086	-1.471721	-2.03926
H	0.68108	-1.774812	-1.833542
H	-0.91462	-2.126203	-1.621318
C	0.029295	0.890017	-2.313868
N	0.432937	1.717767	-3.041916
Cl	-3.513279	0.0	0.0
