17

C	-0.52801	0.05925	-1.437436
C	0.0	0.0	0.0
F	-0.415975	-1.272727	-1.889683
H	1.089034	0.0	0.0
H	-0.389094	-0.890367	0.489894
C	-2.003518	0.404967	-1.509058
H	-2.353889	0.27822	-2.536119
H	-2.580548	-0.258574	-0.859638
H	-2.177651	1.438444	-1.205173
C	0.337919	0.907424	-2.341641
H	0.27493	1.95586	-2.05057
H	0.006384	0.792348	-3.377617
H	1.378105	0.590651	-2.243529
N	-0.476099	1.152895	0.79745
O	-0.220738	2.284724	0.385774
O	-1.116412	0.917465	1.824976
Cl	3.3964	0.0	0.0
