17

C	-0.519225	0.073578	-1.4407
C	0.0	0.0	0.0
F	-0.380451	-1.248297	-1.91725
H	1.088999	0.0	0.0
H	-0.393862	-0.89452	0.476407
C	-2.000066	0.396408	-1.515563
H	-2.570011	-0.299329	-0.893511
H	-2.339485	0.300143	-2.549561
H	-2.196441	1.417318	-1.177603
C	0.338445	0.95391	-2.324246
H	1.384485	0.656748	-2.219942
H	0.25041	1.998948	-2.021863
H	0.020124	0.843649	-3.364838
N	-0.494538	1.145256	0.794424
O	-1.240058	0.905417	1.751221
O	-0.16305	2.277289	0.439384
Cl	3.399945	0.0	0.0
