19

C	-0.338512	-0.061214	-1.486413
C	0.0	0.0	0.0
F	-0.032943	1.239594	-2.037603
H	1.098283	0.0	0.0
N	0.477929	-1.032867	-2.127441
H	1.434773	-0.91647	-1.796286
H	0.474984	-0.862177	-3.127126
N	-1.727653	-0.3138	-1.750724
H	-2.245214	0.526783	-1.520823
H	-1.847563	-0.484096	-2.743213
C	-0.470143	-1.265231	0.709289
H	-0.064172	-1.287133	1.725012
H	-0.119076	-2.153278	0.182301
H	-1.561885	-1.307206	0.758932
C	-0.522997	1.255319	0.681097
H	-1.620367	1.280396	0.692453
H	-0.182798	1.272796	1.719849
H	-0.152826	2.153766	0.188192
Br	3.685881	0.0	0.0
