19

C	-0.33688	-0.075908	-1.486701
C	0.0	0.0	0.0
F	-1.680139	-0.545898	-1.646113
H	1.097035	0.0	0.0
N	-0.257896	1.211453	-2.120687
H	-0.41412	1.092768	-3.116219
H	-0.995794	1.806671	-1.762207
N	0.50153	-1.057964	-2.100055
H	0.424292	-1.014901	-3.110665
H	1.466623	-0.878378	-1.828933
C	-0.478347	-1.254211	0.723047
H	-0.168133	-2.148555	0.18214
H	-0.037868	-1.287484	1.72334
H	-1.568465	-1.265781	0.817033
C	-0.51136	1.26379	0.67537
H	-0.03115	2.153409	0.264874
H	-1.600438	1.356806	0.576607
H	-0.276734	1.22779	1.742132
Br	3.682885	0.0	0.0
