19

C	-0.480957	-0.037445	-1.444847
C	0.0	0.0	0.0
F	-0.006247	-1.179461	-2.069865
H	1.095119	0.0	0.0
N	-1.935547	-0.192469	-1.50192
H	-2.364763	0.638572	-1.112567
H	-2.200736	-0.242077	-2.48076
N	0.078839	1.052095	-2.215159
H	-0.125517	0.902048	-3.197602
H	-0.321996	1.933515	-1.924599
C	-0.468057	-1.23376	0.766883
H	-1.552025	-1.237293	0.912109
H	-0.191757	-2.140448	0.227199
H	0.027008	-1.260868	1.741961
C	-0.431743	1.28205	0.713055
H	-0.035083	1.270587	1.731152
H	-0.018898	2.172098	0.231403
H	-1.522358	1.379307	0.789535
Br	3.841565	0.0	0.0
