19

C	-0.359444	0.034192	-1.487022
C	0.0	0.0	0.0
F	0.014551	-1.22539	-2.015204
H	1.097646	0.0	0.0
N	-1.749497	0.264886	-1.722952
H	-2.289448	-0.457693	-1.264798
H	-1.89899	0.197835	-2.72328
N	0.384602	0.985642	-2.269512
H	1.372057	0.852496	-2.060252
H	0.126695	1.916283	-1.967113
C	-0.506461	-1.248701	0.712274
H	-1.600747	-1.253734	0.806182
H	-0.19266	-2.151267	0.188685
H	-0.090668	-1.283843	1.722693
C	-0.458302	1.266285	0.717182
H	-0.095604	1.251387	1.748321
H	-0.046961	2.163591	0.248952
H	-1.548581	1.353477	0.72577
Br	3.678787	0.0	0.0
