19

C	-0.359517	0.064496	-1.489807
C	0.0	0.0	0.0
F	-0.163888	-1.240065	-2.011566
H	1.09869	0.0	0.0
N	-1.729689	0.36836	-1.851385
H	-1.937563	1.304175	-1.528535
H	-2.346986	-0.281923	-1.379567
N	0.478986	1.010795	-2.127145
H	1.448304	0.849383	-1.861023
H	0.370724	0.925454	-3.130104
C	-0.519525	-1.253844	0.685446
H	-0.218836	-1.24886	1.73649
H	-1.615903	-1.308678	0.654262
H	-0.113769	-2.150806	0.219892
C	-0.456397	1.262284	0.724981
H	-0.130747	2.155461	0.188677
H	-0.013818	1.291548	1.724005
H	-1.547194	1.292421	0.839153
Br	3.674001	0.0	0.0
