19

C	-0.368686	-0.002301	-1.485831
C	0.0	0.0	0.0
F	-0.041723	1.251039	-1.998696
H	1.098002	0.0	0.0
N	0.413761	-0.922616	-2.29099
H	1.399799	-0.749984	-2.094115
H	0.214907	-1.867719	-1.984123
N	-1.781269	-0.171751	-1.703098
H	-1.915721	-0.393249	-2.683243
H	-2.134628	-0.935636	-1.143499
C	-0.442478	-1.275543	0.714611
H	-0.137932	-2.17838	0.177624
H	0.035812	-1.319681	1.695875
H	-1.527232	-1.308175	0.876039
C	-0.512891	1.23553	0.727396
H	-0.134539	2.140642	0.253645
H	-1.607115	1.272867	0.722976
H	-0.164079	1.225933	1.764371
Br	3.689332	0.0	0.0
