19

C	-0.339828	0.073478	-1.492105
C	0.0	0.0	0.0
F	-1.6629	0.609359	-1.616724
H	1.097297	0.0	0.0
N	0.500517	0.966736	-2.253736
H	1.466146	0.703697	-2.05669
H	0.374765	1.905495	-1.892823
N	-0.268977	-1.195233	-2.124099
H	-0.428604	-1.055655	-3.114041
H	-0.965626	-1.821126	-1.745537
C	-0.516588	-1.256285	0.688439
H	-1.606848	-1.34366	0.597764
H	-0.044769	-2.149745	0.275995
H	-0.271887	-1.222389	1.753433
C	-0.460348	1.251303	0.742026
H	-0.127405	2.1649	0.243735
H	-1.549474	1.288268	0.829408
H	-0.023103	1.258165	1.743626
Br	3.676131	0.0	0.0
