15
Coordinates from ORCA-job run
  C   -0.94363833077044     -0.01245132584473      0.04742155206338
  C   0.47613895147096     -0.16630890865208      0.63781539790475
  F   -1.76696990006502     -0.74658662033223      0.92009521433431
  H   0.40025541043941     -0.07872295260927      1.72070573091889
  C   -1.44861479677483      1.37155999087158      0.08255782054185
  N   -1.91366293543016      2.44940734338388      0.09140072568138
  N   -0.97281727868606     -0.49983849278308     -1.27214614729454
  H   -0.75073699018674     -1.48854883694861     -1.26750579240905
  H   -1.86853314856750     -0.34106956179239     -1.71453620674900
  N   1.32056138674977      1.02962930633025      0.20021677695070
  O   2.02801173636722      0.88443585648781     -0.79170318400410
  O   1.21555971266844      2.04550103772647      0.88154692013186
  N   1.03127376879277     -1.40979931754689      0.23726326446468
  H   1.72393608903408     -1.73168567509266      0.89876350660298
  H   1.46823632495811     -1.30452184319803     -0.67189557913810
