15
Coordinates from ORCA-job run
  C   -0.89228711175412     -0.17911028897164      0.15686611047643
  C   0.60877821280675     -0.05982889408909      0.48717182632584
  F   -1.25722231106111     -1.39219572065397      0.79777065352557
  H   0.72874493813591      0.06730176471136      1.56867017585100
  C   -1.73661953704289      0.85338101567784      0.77730955652278
  N   -2.46630008426293      1.61940586035344      1.28575509279181
  N   -1.05706029119820     -0.19835678207942     -1.23052647443697
  H   -0.44985338176106     -0.89964166157044     -1.63869748432112
  H   -2.01977236254609     -0.31056176258795     -1.51594677539283
  N   1.13151855167082      1.21716670187563     -0.12046623102927
  O   0.63984643684744      2.24726911563543      0.32424283422013
  O   1.99786781513467      1.13834957112372     -0.98419451454581
  N   1.27445860074310     -1.19032381168100     -0.09927708919355
  H   1.27462090866466     -1.96588279511461      0.54858357335201
  H   2.22127961562304     -0.94697231262930     -0.35826125414602
