15
Coordinates from ORCA-job run
  C   -0.87178986956749      0.05058578834716     -0.01610001028624
  C   0.57039837340516     -0.12422423031333      0.45534017900111
  F   -1.59234908825136      0.54296017720988      1.07259184270551
  H   0.55570714321711     -0.81217268299520      1.31328322462768
  C   -1.01138184942949      1.00099374145376     -1.13240953484599
  N   -1.21757746637125      1.69556774732978     -2.05549982137909
  N   -1.34310607954732     -1.22061829540690     -0.44533399928424
  H   -1.41334307157685     -1.85427990336491      0.34295143908597
  H   -2.24443084670697     -1.14757491570129     -0.90045697949024
  N   1.12835114991595      1.15249366028305      1.03317757226958
  O   2.10376330279664      0.98784462104154      1.76240310040147
  O   0.62930418621789      2.22283709859297      0.71218442436163
  N   1.41563532245656     -0.48296474630546     -0.64207724239985
  H   2.31723547412234     -0.80157979272977     -0.31139032440933
  H   0.97158331931909     -1.20986826744128     -1.18866387035797
