15
Coordinates from ORCA-job run
  C   -0.80982692425183     -0.31756975459318      0.16994630518285
  C   0.65347727598891     -0.01696256119039      0.55733729882500
  F   -1.19565266752750     -1.37654446366095      0.97308268940808
  H   0.69306190122679      0.13922451140936      1.63539934924154
  C   -1.68851414629092      0.82321680300235      0.52375632833418
  N   -2.38415897743529      1.74083215707532      0.75844272540854
  N   -0.90337893343733     -0.75665547801776     -1.18292248812884
  H   -0.54101096512981     -0.04795055626620     -1.81052218619523
  H   -1.86259296374904     -0.97877360996640     -1.42026801870438
  N   1.03759539441961      1.32630744849468     -0.03847942993797
  O   1.41346113940205      2.19920625833952      0.73566782008901
  O   0.96533642292594      1.42634220697388     -1.26253562005365
  N   1.56809435802239     -1.00676986036112      0.11834573320982
  H   1.87672568847931     -1.59579900292540      0.87566162064497
  H   1.17738339735676     -1.55910409831374     -0.63391212732393
