15
Coordinates from ORCA-job run
  C   -0.78208645574239     -0.26471158277818     -0.26535766944194
  C   0.51852018557445      0.10571478227645      0.46843089130673
  F   -0.53985725671718     -1.43904498755573     -0.97103621254101
  H   0.33056084550895      0.92490057180026      1.16482428515354
  C   -1.79641403206691     -0.60669253223002      0.76014868746262
  N   -2.64335279469558     -0.81450326865878      1.54691243639943
  N   -1.18931549767667      0.73581287875946     -1.17512640702627
  H   -2.16931421198321      0.68248745161963     -1.41030313052636
  H   -0.91216914704811      1.67242951006961     -0.92104360459614
  N   1.46508318575288      0.71722744820089     -0.57620547054577
  O   2.23318253839548     -0.04386064918482     -1.15060872760700
  O   1.36197634169528      1.92919301642708     -0.75783854036468
  N   1.03056410324402     -1.02920128236390      1.12476015843310
  H   1.83385849509809     -0.81100445790379      1.69698292077225
  H   1.26076370066097     -1.75874689847817      0.46346038312153
