15
Coordinates from ORCA-job run
  C   -0.90607477136979     -0.21847855409056      0.14746181657298
  C   0.57884486078796     -0.11182822782240      0.56113551823552
  F   -1.44176383355881     -1.18680061189399      1.01557789117762
  H   0.62603709104806     -0.13266036235119      1.64902002747456
  C   -1.67810104404692      1.01286775027897      0.39029006611148
  N   -2.36173220298776      1.95089090985680      0.56569908077187
  N   -1.00301015312007     -0.58461273591866     -1.20773043104607
  H   -0.58374745975110     -1.49792412668188     -1.33749024913857
  H   -1.96107958195129     -0.58603876395096     -1.53214580807183
  N   1.09818617056486      1.27014782166935      0.16662834614764
  O   0.86099186678637      2.18218174473020      0.95321919418409
  O   1.70119369774319      1.36109035592177     -0.89814098491415
  N   1.31957849689896     -1.16899519372185     -0.02918471857814
  H   1.61061399949259     -0.89526578779520     -0.96133152150795
  H   2.13906286346374     -1.39257421823037      0.51799177258093
