15
Coordinates from ORCA-job run
  C   -0.81695913449741     -0.30515756435278      0.15701787484876
  C   0.66979292486505     -0.11261770270199      0.52387486133269
  F   -1.21978827131785     -1.44357245647674      0.83267913057262
  H   0.75168128051727     -0.10415937661752      1.61086568334187
  C   -1.63285395470791      0.81330858854044      0.68804712275112
  N   -2.27325607951938      1.71846917335445      1.07732065929822
  N   -0.97576967891061     -0.56433897084859     -1.23617330733323
  H   -0.62630968147204      0.21552460669331     -1.78115959132158
  H   -1.94926603519672     -0.73785230527820     -1.45551872400743
  N   1.09439709608848      1.28102447402785      0.09655749756962
  O   0.94231174878626      1.56336471016377     -1.09141795082151
  O   1.58505483620177      2.00737101168612      0.95294797881767
  N   1.52787592897748     -1.06830844066149     -0.07669079814217
  H   1.83232774142002     -1.76697314295462      0.58292980925246
  H   1.08876127876559     -1.49708260457404     -0.88128024615909
