15
Coordinates from ORCA-job run
  C   -0.90247429326116     -0.23380322733580      0.14362390971133
  C   0.58219732878624     -0.09906952812876      0.53335278053530
  F   -1.33130451575515     -1.34359242228726      0.91722686940421
  H   0.65942068625120      0.08136615188087      1.60987847973631
  C   -1.70777110983229      0.90767722611172      0.60698870598755
  N   -2.38069944025496      1.80823070537579      0.94563639159651
  N   -1.05839915600490     -0.46536118221297     -1.21910114557152
  H   -0.20732122472102     -0.66820405466438     -1.72039351734890
  H   -1.74487784643266      0.07708008773072     -1.71201508566040
  N   1.11737332803337      1.17042214300586     -0.09533947288884
  O   1.61417109445418      1.10509476644173     -1.21406933280835
  O   0.98131808874580      2.18560592602546      0.58412390629859
  N   1.27452383209684     -1.23170905697357      0.00102667246226
  H   2.25375827560258     -1.21614704853523      0.25552002766498
  H   0.85008495229188     -2.07759048643419      0.36154081088095
