15
Coordinates from ORCA-job run
  C   -0.88687220301770     -0.19755603961019      0.15557772905350
  C   0.61013544587609     -0.04107396068111      0.48857397041516
  F   -1.22487921054534     -1.41576816971611      0.80214955082814
  H   0.72460745962272      0.10011592764573      1.56909441935097
  C   -1.75611645386004      0.81823147015220      0.76946906633544
  N   -2.50690738618255      1.56797251669545      1.27144121451048
  N   -1.04827997480830     -0.22708381215754     -1.23160522529243
  H   -2.00713239758624     -0.36165478216013     -1.52008009290196
  H   -0.42175482668730     -0.91207462994701     -1.63795839054914
  N   1.10526423976686      1.24132979880068     -0.13033314267980
  O   1.97610578286883      1.17347513232832     -0.99049062861964
  O   0.58896188311361      2.26425387250011      0.30286858584191
  N   1.30203716681250     -1.16130979748281     -0.08692271469036
  H   2.25315878357810     -0.90817619208132     -0.31961019902079
  H   1.29267169104875     -1.93968133428632      0.55782585741849
