15
Coordinates from ORCA-job run
  C   -0.82712468004150     -0.22528282424830      0.15268794112943
  C   0.64352268471414      0.01317854302597      0.58181749802143
  F   -1.16137691774172     -1.43197577006844      0.81780769244332
  H   0.64781545052209      0.18840126426438      1.65839969145349
  C   -1.74406846118156      0.79490412369868      0.68341840195748
  N   -2.50277568891863      1.57742591362706      1.11979445713519
  N   -0.95308763529230     -0.30632573503374     -1.24064171142007
  H   -0.34415312051008     -1.00916741489194     -1.63671800763731
  H   -1.90782634985731     -0.45218784595958     -1.53961526570524
  N   1.09870255702837      1.29529866339495     -0.05511098581175
  O   1.73452366823242      1.20958622572051     -1.09987622360312
  O   0.75986358001572      2.32916762670753      0.51233214085367
  N   1.56070543211094     -1.02569960255918      0.23815614209252
  H   1.22536663213874     -1.92323603521853      0.55903227844516
  H   1.77091284878067     -1.03408713245942     -0.75048404935425
