15
Coordinates from ORCA-job run
  C   -0.93959982722140     -0.24698204771524      0.10883634965414
  C   0.52371443561799     -0.02559853263578      0.53215239929055
  F   -1.30539518912504     -1.34608071617295      0.91549221681568
  H   0.56448923672574      0.22419862883885      1.60122755860472
  C   -1.81002114272237      0.86442988141766      0.52198928197991
  N   -2.52209583740474      1.71907820188447      0.89605149342024
  N   -1.11446493492021     -0.57671889837082     -1.24528365027004
  H   -0.27334424455210     -0.97674447596788     -1.63985615864929
  H   -1.48580583976449      0.17349935224036     -1.80557854978959
  N   1.12860775609391      1.16641297636858     -0.16583817579956
  O   0.39042578794570      1.94072420753523     -0.76645018927248
  O   2.34445071112486      1.27788524459315     -0.04387064710661
  N   1.28735149919664     -1.17571443227991      0.12320313035414
  H   2.26464323174433     -1.03108744149128      0.34502307127015
  H   0.94904435726121     -1.98830194824440      0.62390186949799
