15
Coordinates from ORCA-job run
  C   -0.93655366274347     -0.22777247401943      0.15834578342080
  C   0.56084713023045     -0.09098887046299      0.48689009837845
  F   -1.28367999208556     -1.38398945596991      0.89082849201119
  H   0.68857827460340      0.05555559052427      1.56818323426746
  C   -1.73326461730492      0.86710122801545      0.73276195179227
  N   -2.38885135927438      1.70677286521671      1.22525462625370
  N   -1.22006742256326     -0.42657859158782     -1.20247843681760
  H   -0.42233429300320     -0.80257471714959     -1.69753316758830
  H   -1.61940620143969      0.37578315383889     -1.66193826594779
  N   1.15718790421201      1.14280891652033     -0.14237434618636
  O   0.40682272092834      1.99069194969384     -0.61494411317623
  O   2.38179739743467      1.20664801569597     -0.10022524901191
  N   1.24974718377276     -1.21935928187682     -0.08312215904906
  H   2.24474012991070     -1.12919424021789      0.08128631688813
  H   0.91443680732211     -2.06590408822103      0.36006523476524
