15
Coordinates from ORCA-job run
  C   -0.82217489891104     -0.30848865890175      0.12492117641258
  C   0.62983550142556     -0.05151045982912      0.57949671764786
  F   -1.25749540327583     -1.38999407572229      0.87042418977843
  H   0.63049864702220      0.05793181078665      1.66408373225977
  C   -1.69260654806489      0.83493613272981      0.49054927409178
  N   -2.37601993415115      1.75747113432549      0.74126565118562
  N   -0.87170146581513     -0.69329774104361     -1.24685819401038
  H   -0.47801810550500      0.03552042872435     -1.83108833786121
  H   -1.82451442018408     -0.89184983869906     -1.52703656697453
  N   1.06267166988260      1.30759757832284      0.05756569732259
  O   1.45602860162755      2.12701846244727      0.87968395780447
  O   1.01328800494982      1.47117050557011     -1.16087421748987
  N   1.54325334188779     -1.03933815726279      0.13254719929183
  H   1.82041946640016     -1.65997802405666      0.87660174514562
  H   1.16753554271145     -1.55718909739127     -0.65128202460462
