15
Coordinates from ORCA-job run
  C   -0.87083607920720      0.02835749884661     -0.05547216903445
  C   0.55225607658642     -0.12271900913943      0.47807401303072
  F   -1.65379351164782      0.46866670620889      1.01242546800171
  H   0.51701462829081     -0.83641991958244      1.31399066929163
  C   -0.98489796864700      1.00823588078845     -1.14899166204525
  N   -1.15982341785895      1.72200168312769     -2.06388256472780
  N   -1.28708638882814     -1.24077718684638     -0.54336458808073
  H   -1.37501722133419     -1.90037901670786      0.22149560128127
  H   -2.16862878476854     -1.17727309255173     -1.03701907520677
  N   1.04610290403697      1.15018350510352      1.11950538655893
  O   0.53562159028602      2.21668241454477      0.80385086279592
  O   1.98755111175427      0.98865879422471      1.89278803097254
  N   1.45795159183570     -0.42530077092229     -0.58734566904782
  H   1.05643213450048     -1.13938053769408     -1.18166755010194
  H   2.34815333500112     -0.73953694940038     -0.22338675368801
