15
Coordinates from ORCA-job run
  C   -0.80449767544410     -0.23924128915564     -0.12683604812989
  C   0.51519888489970      0.38350404018657      0.36275204297305
  F   -0.43784253753997     -1.53039497910495     -0.59007926278537
  H   0.36384461900518      1.44413305209211      0.56841472728875
  C   -1.70280309545219     -0.46334537495268      1.02139619136844
  N   -2.46940102078738     -0.64330369431081      1.89152398293017
  N   -1.46859709955501      0.53858188146959     -1.08412134638287
  H   -2.32694043932137      0.10549440448422     -1.39633845880832
  H   -0.87118196358990      0.79797405129236     -1.85734031016751
  N   1.48810896880349      0.35646737740128     -0.84433502501661
  O   2.46618378897377     -0.37336324663535     -0.76105079177770
  O   1.21093451709748      1.08505303954634     -1.79555442549993
  N   1.00240634234455     -0.31127431555659      1.48439979822592
  H   1.20848318035385     -1.27501950204304      1.25531014353656
  H   1.82710353021191      0.12373455528654      1.87285878224534
