15
Coordinates from ORCA-job run
  C   -0.88394637437563     -0.27010960095967      0.12048494679155
  C   0.56719471017511     -0.06123319368476      0.64030067183805
  F   -1.29377477174477     -1.40074954258966      0.84983913630241
  H   0.50759411102259      0.14646190490614      1.70866597976913
  C   -1.75836903141339      0.83929529565545      0.53375701784264
  N   -2.43997626523840      1.74253073970489      0.84790140864341
  N   -0.99440069447111     -0.50722141364448     -1.25958705430864
  H   -0.11971017750446     -0.69213944729497     -1.72446795696101
  H   -1.55618756053738      0.15449911996935     -1.76903730800277
  N   1.11875946155670      1.17332903241973     -0.00151758222807
  O   1.58631581945946      1.03783435281244     -1.13190578395945
  O   1.02259359634014      2.22503861543321      0.62246017960491
  N   1.46950306541693     -1.14267259200401      0.39333055598640
  H   1.68860698716851     -1.23888443531424     -0.58903620603790
  H   1.08779712414575     -2.00497883540950      0.75881199471932
