15
Coordinates from ORCA-job run
  C   -0.80424729112396     -0.18950898682862     -0.19691270388492
  C   0.50800927854937      0.28934866472233      0.44986969892242
  F   -0.44218411323704     -1.35986343919287     -0.91367987269005
  H   0.36342215269123      1.28504768206479      0.87153981897016
  C   -1.74055077953056     -0.63501043689373      0.85217639304459
  N   -2.52352920072443     -1.00833316886321      1.64260475890818
  N   -1.42724425093333      0.78735394764927     -0.98466366548989
  H   -0.80325542365780      1.19390099132861     -1.66831724443860
  H   -2.28147797012371      0.44771509420711     -1.40516218385930
  N   1.51704972577845      0.49985885683864     -0.70815529719945
  O   2.48040176998991     -0.25226950358918     -0.75765881176266
  O   1.28073190236667      1.42117423947089     -1.48783524337362
  N   0.95138828252857     -0.63629119219338      1.41162330529103
  H   1.76968026190954     -0.30927127896888      1.90529739755433
  H   1.15080565551704     -1.53385146975181      0.98927365000779
