15
Coordinates from ORCA-job run
  C   -0.75084915791235     -0.27419606131963     -0.19107792977193
  C   0.61137326047872      0.25024557565871      0.33297952985260
  F   -0.52062541138654     -1.60592577666287     -0.58472425007864
  H   0.47268140989500      1.25754682050447      0.72662502848584
  C   -1.65956739752774     -0.35729544958357      0.97241648703515
  N   -2.36650975875392     -0.37177676362456      1.91015076700704
  N   -1.28304768798030      0.48858106146844     -1.22512098827919
  H   -2.28058416680789      0.58248151038947     -1.28551148299556
  H   -0.73717073716713      1.25192466553475     -1.58659179873113
  N   1.49894541213663      0.40928657690225     -0.88403226714387
  O   2.21552558134190     -0.53275288315263     -1.18632797135253
  O   1.39769850549686      1.47659742627820     -1.49293169691956
  N   1.27127914094812     -0.57841989194853      1.27634067078089
  H   1.22402138122748     -1.55260390448893      1.01052754727947
  H   0.90582962601117     -0.44369290595553      2.20827835483136
