15
Coordinates from ORCA-job run
  C   -0.82980439954100      0.06295559751354     -0.02557255414109
  C   0.58960617237581     -0.24815758445371      0.49724238633488
  F   -1.52484683425643      0.71060410333117      1.00144446223442
  H   0.49457328337967     -1.00563042247400      1.27801705125460
  C   -0.79665737089541      0.97370229585744     -1.18330886502176
  N   -0.77875534346489      1.67119091003887     -2.12729996048878
  N   -1.42779448327809     -1.16037091920723     -0.41269174414650
  H   -1.57361343728427     -1.75522215926639      0.39487557876725
  H   -2.30779749930074     -1.01667485820542     -0.89188298293140
  N   1.10812007448077      0.97635064552493      1.19086027170249
  O   1.45906136008913      1.89481901902257      0.45457599748795
  O   1.13182694956324      0.96799265759611      2.41588314917955
  N   1.54847374874498     -0.64509852944971     -0.48254040252895
  H   1.65685252797060      0.07679589632434     -1.18585811912402
  H   1.25175525141662     -1.50525665215249     -0.92474426857867
