13
Coordinates from ORCA-job run
  C   -0.53248065784277     -0.51672322619575      0.22842855551417
  C   0.89860276772722      0.05834060737508      0.25421139828742
  F   -0.58490946339709     -1.44905589005139     -0.79157223131550
  H   0.96629821616858      0.77152140854290      1.08533885038190
  H   -0.69311847048770     -1.05281984026906      1.16923514443970
  C   -1.58669957183743      0.53895067721947      0.00032494609228
  H   -1.56385803267106      1.29102516840792      0.79247101869361
  H   -1.43460878094155      1.02828928642771     -0.96312761398096
  H   -2.57127051257587      0.06947372937443     -0.00235941557058
  C   1.19548482711119      0.77456614463210     -0.99100661008450
  N   1.38941842196090      1.36821388773966     -1.98440593103497
  C   1.87787876702218     -1.00855399831396      0.48748086009638
  N   2.63926248976340     -1.87222795488911      0.71398102848105
