13
Coordinates from ORCA-job run
  C   -0.60056299618364     -0.67315781239682     -0.08077273014372
  C   0.91696911456303     -0.45354415785040     -0.27266977188535
  F   -1.08649028593141     -1.08285136097968     -1.31244278218471
  H   1.33197206445019     -1.37787922090092     -0.69117828658255
  H   -0.72931622076358     -1.50702813443288      0.61632612087714
  C   -1.34356202885386      0.55640375392999      0.37582187837333
  H   -0.97430250549705      0.89598701755410      1.34564480894958
  H   -1.23078971963465      1.36065584285760     -0.35324103179021
  H   -2.40443016699839      0.32136626585335      0.47111682552049
  C   1.55639060269843     -0.19055488542010      1.01901398995719
  N   2.02660088915641      0.00152275862612      2.07717045276455
  C   1.17689315781636      0.63767013629929     -1.21727703518438
  N   1.36062809517816      1.51340979686036     -1.97651243867135
