16

C	0.0	0.0	0.0
C	-0.385764	-0.019602	-1.482603
Br	2.043613	0.0	0.0
H	-0.237146	-1.057001	-1.839032
H	0.317319	0.608489	-2.03585
C	-0.413684	1.273082	0.711592
H	-0.049209	2.147274	0.173763
H	-1.504139	1.304344	0.743653
H	-0.00805	1.285825	1.72708
N	-0.523923	-1.121102	0.653282
H	-0.239233	-2.002623	0.252375
H	-0.408186	-1.111178	1.655882
N	-1.717317	0.529321	-1.645342
H	-2.023449	0.434281	-2.604405
H	-2.423681	0.078488	-1.062018
Br	-4.739246	0.0	0.0
