16

C	0.0	0.0	0.0
C	-0.46446	-0.244652	-1.432543
Br	1.963863	0.0	0.0
H	-1.553186	-0.099909	-1.405718
H	-0.025443	0.525285	-2.074457
C	-0.44123	1.380743	0.46305
H	-0.066586	1.582477	1.470141
H	-0.069813	2.159834	-0.207283
H	-1.535329	1.389183	0.471175
N	-0.484844	-1.081677	0.828383
H	-0.240797	-0.896303	1.794992
H	-1.508842	-1.037922	0.759433
N	-0.07173	-1.573032	-1.914949
H	-0.776733	-1.879407	-2.575639
H	-0.140425	-2.197599	-1.115598
Br	-3.919765	0.0	0.0
