16

C	0.0	0.0	0.0
C	-0.39104	-0.097158	-1.478786
Br	2.043661	0.0	0.0
H	-0.256601	-1.154497	-1.777444
H	0.316673	0.490687	-2.0685
C	-0.4072	1.311778	0.64297
H	-0.00193	1.375109	1.656837
H	-0.034137	2.153765	0.0609
H	-1.4971	1.35589	0.671871
N	-0.528463	-1.081093	0.713262
H	-0.40673	-1.020128	1.713405
H	-0.255502	-1.985543	0.357705
N	-1.714788	0.458902	-1.664071
H	-2.433539	0.029167	-1.07976
H	-2.009865	0.364733	-2.62709
Br	-4.734935	0.0	0.0
