16

C	0.0	0.0	0.0
C	-0.427886	-0.225365	-1.449122
Br	1.996838	0.0	0.0
H	-0.033497	0.581565	-2.082792
H	-1.520395	-0.151483	-1.418094
C	-0.4388	1.361983	0.497411
H	-0.033676	2.158955	-0.129626
H	-0.100148	1.504719	1.525024
H	-1.532556	1.38927	0.466733
N	-0.457157	-1.026319	0.886997
H	-0.380359	-1.903643	0.378612
H	-1.45473	-0.850022	1.023531
N	-0.061752	-1.565884	-1.901975
H	-0.723618	-1.878684	-2.599681
H	0.863651	-1.555967	-2.311511
Br	-3.918231	0.0	0.0
