16

C	0.0	0.0	0.0
C	0.05753	-0.125019	-1.554234
Br	1.984325	0.0	0.0
H	0.378739	-1.06305	-1.886384
H	0.529925	0.750471	-1.969647
C	-0.327954	1.344178	0.684533
H	0.217935	2.136977	0.103155
H	-1.357813	1.686129	0.801603
H	0.176199	1.362183	1.672847
N	-0.197217	-1.171829	0.837479
H	-1.122569	-1.61083	0.541666
H	-0.311182	-0.93305	1.787538
N	-1.264581	0.058862	-2.454999
H	-2.112775	0.604137	-2.134493
H	-1.813447	-0.791127	-2.581142
Br	-3.281588	0.0	0.0
