16

C	0.0	0.0	0.0
C	-0.453449	0.330696	-1.417891
Br	1.982386	0.0	0.0
H	-1.548326	0.327879	-1.369455
H	-0.133682	-0.49868	-2.063243
C	-0.434515	1.060313	0.995359
H	-0.053415	2.041952	0.718382
H	-1.529601	1.070174	0.98497
H	-0.085874	0.800382	1.999132
N	-0.457014	-1.334481	0.300744
H	-1.474924	-1.311368	0.185817
H	-0.282166	-1.530701	1.281406
N	-0.005722	1.648759	-1.856719
H	-0.627042	1.976134	-2.58538
H	0.926376	1.579806	-2.244512
Br	-3.925387	0.0	0.0
