15
Coordinates from ORCA-job run
  C   0.85133365013905      0.31638321605134     -0.00445289620918
  C   -0.61096025612806      0.20530216766764      0.40857988109442
  Cl  1.45189526576708      1.90151364129876      0.50199812455591
  H   -0.72344515974943      0.36053800157365      1.47925774223244
  N   1.65152571738660     -0.73613092921933      0.81405970799941
  O   1.21287993466145     -0.97079578178881      1.92884537654362
  O   2.65877500676025     -1.17238608775076      0.29003426790940
  C   1.10315863538603      0.10943584228579     -1.41848831924442
  N   1.33914670584849     -0.01577735134394     -2.56388442757761
  N   -1.18780518058107     -1.14352930031757      0.07363005305472
  O   -0.42680404730867     -1.98048455463312     -0.39831544088277
  O   -2.37578119307428     -1.26935825563978      0.33322884436356
  N   -1.44940818510621      1.22307760961443     -0.30854824698625
  O   -1.85588351397731      2.15976729642865      0.36748256674167
  O   -1.63962738002389      1.01244448577307     -1.50142723359493
