15
Coordinates from ORCA-job run
  C   0.81301697319603      0.31468701446355      0.12207906252900
  C   -0.60869491574851     -0.09456639141064     -0.27397485163149
  Cl  0.87433966546174      1.45859284138305      1.43554563892298
  H   -0.60412618337310     -0.66634486358758     -1.19978723221442
  N   1.56392408577221     -1.01683010453417      0.49628225192736
  O   1.31447424195176     -1.93382002615588     -0.27206481983906
  O   2.32476712565249     -0.99673653518842      1.43741315563866
  C   1.52066544884880      0.83267108902569     -1.04213100865809
  N   2.12107205365960      1.22994019584097     -1.97257422441474
  N   -1.44489717320850      1.13789203918863     -0.50727767848727
  O   -2.19730680634858      1.48968859668190      0.38936195136907
  O   -1.25228722573817      1.67705965075259     -1.59062307863211
  N   -1.29975059759374     -0.93973546622772      0.75524049485173
  O   -2.37268200166408     -1.39421100834439      0.38156076362048
  O   -0.75251469086793     -1.09928703188758      1.83894957501790
