15
Coordinates from ORCA-job run
  C   0.86216991907336      0.34697287929594     -0.29205689188252
  C   -0.65895566536595      0.22312922767297     -0.42572363207279
  Cl  1.29390133626498      2.02812281713320     -0.55528727187403
  H   -0.95872347697419      0.54446141557424     -1.42297381553983
  N   1.33421583243473     -0.13234583425246      1.12299759701653
  O   2.04732580618726      0.59801728915446      1.77347083650695
  O   0.93766334979193     -1.25730493399116      1.38264822533838
  C   1.56430084956537     -0.50024756458262     -1.24489094037314
  N   2.19053598117053     -1.15470218966338     -1.99543530262447
  N   -1.37827069311509      1.09160326659276      0.55731642180741
  O   -0.87533895486632      1.21176272013153      1.66767678894608
  O   -2.43160665296267      1.56994630168112      0.15356343860216
  N   -1.18274116996317     -1.19283951253397     -0.26184522349503
  O   -0.84148446566484     -1.95180145441593     -1.15618191177596
  O   -1.90299199557593     -1.42277442779669      0.69572168142025
