15
Coordinates from ORCA-job run
  C   0.88679630095064      0.29717066160363     -0.29468977468306
  C   -0.63962944939502      0.22144876477283     -0.43375227039058
  Cl  1.47170580075799      1.91697836270370     -0.67695692309334
  H   -0.92931799152083      0.54766952363181     -1.43291644313336
  N   1.35250133630578     -0.01920604730567      1.14511460850694
  O   2.30090385448862     -0.77377656674523      1.25870761516630
  O   0.73997866224339      0.57307673686375      2.01749416368581
  C   1.47983716723684     -0.66398511599184     -1.21415584548116
  N   1.90813933237179     -1.40751506638316     -2.01847273103082
  N   -1.42633281209768      1.08166625679280      0.54220446744551
  O   -1.38798940428518      2.27838652018953      0.30356275177565
  O   -2.03772663150063      0.50483981233353      1.42679240876260
  N   -1.11605808267631     -1.18641646177243     -0.25696366510097
  O   -2.15412789709631     -1.46515445739622     -0.84312599866578
  O   -0.44768018578308     -1.90718292329701      0.47715763623627
