15
Coordinates from ORCA-job run
  C   0.78897345268173      0.21000640670198     -0.32915902261472
  C   -0.58965087483706     -0.31783690435046      0.08004692827386
  Cl  0.72853207109774      1.66909126578490     -1.27995932753861
  H   -0.51043010120535     -1.31274725239661      0.51350709142446
  N   1.58582491336113      0.43911652772581      1.00824546050844
  O   1.41763239205764     -0.45840173444345      1.82054399784991
  O   2.30218373200657      1.41193350652360      1.08479325435799
  C   1.52675671441615     -0.83172272148677     -1.03288920522575
  N   2.15222132108316     -1.66661683585693     -1.57669503540162
  N   -1.47352070186929     -0.42284654388177     -1.13637374558295
  O   -2.28898664518743      0.46838104873983     -1.32226910878860
  O   -1.25175697450867     -1.40502777285272     -1.83437473956373
  N   -1.28642753430802      0.54331964921732      1.09150753963699
  O   -2.31357617140093      0.04941548119489      1.53709438185769
  O   -0.78777559338739      1.62493587938037      1.37598153080662
