15
Coordinates from ORCA-job run
  C   0.85675814976419      0.36806596838033     -0.28280202144217
  C   -0.66062433422151      0.21500348006764     -0.42766206297398
  Cl  1.25593908099682      2.06031685714651     -0.52494357900706
  H   -0.96099945227550      0.54243525118010     -1.42272499532444
  N   1.32888822280215     -0.11672174323201      1.13017705816214
  O   0.95013031413201     -1.25089974124910      1.37630104082699
  O   2.02557821029500      0.61911509166404      1.79215085879189
  C   1.58350187761197     -0.45436585525240     -1.23887101198088
  N   2.23131818234801     -1.09081362375428     -1.98649216465930
  N   -1.40457206801774      1.05619637130717      0.56053499448558
  O   -0.90940991350740      1.17944806106034      1.67405712854246
  O   -2.46826479732692      1.51096974800933      0.15663087349370
  N   -1.15659375682108     -1.21360566991118     -0.28489189994583
  O   -1.88063086745428     -1.46937888357043      0.66305901539509
  O   -0.79101884832575     -1.95476531184607     -1.18452323436419
