15
Coordinates from ORCA-job run
  C   0.83672186359259      0.13989798558529     -0.19476843624957
  C   -0.63592159286100     -0.17460381657523      0.07498620828903
  Cl  1.09466659954242      1.52195889334726     -1.21934557792555
  H   -0.70804813903338     -0.95222769974111      0.83556695339012
  N   1.52539945354021      0.35705511951228      1.21631382291970
  O   2.27487587308865      1.29884931374377      1.33903643961983
  O   1.24064526434726     -0.50969729293827      2.02682189815046
  C   1.47951040845083     -1.04691101711513     -0.74546910239246
  N   1.99959912839680     -2.00469805802213     -1.18881803302362
  N   -1.30465599028936     -0.69739620214701     -1.16161733082911
  O   -1.56288464063543     -1.89733291756316     -1.14778392804750
  O   -1.50822923759014      0.10512304105749     -2.06315375957330
  N   -1.39532945735767      1.01781123997679      0.59389365908856
  O   -0.74394442178681      1.79885476857579      1.27608753244651
  O   -2.59340511140497      1.04431664230338      0.35924965413691
