15
Coordinates from ORCA-job run
  C   0.79337850047541      0.34505936404154      0.15514377640241
  C   -0.59730167408180     -0.11433618734517     -0.29413718046661
  Cl  0.76614347150110      1.44118291569510      1.50989176903211
  H   -0.54151551454633     -0.65214651866948     -1.23846385361122
  N   1.59726372722438     -0.96238311841905      0.50251022264228
  O   2.33630260284176     -0.93883325252900      1.46097357280071
  O   1.40768180494575     -1.86375974147518     -0.30064594645750
  C   1.50567548828213      0.93887371385744     -0.96924834560390
  N   2.11146367499225      1.40660782344950     -1.86257147072495
  N   -1.48172760693525      1.08715836554534     -0.50834650052822
  O   -1.28421919832616      1.67328844324522     -1.56605645814428
  O   -2.27118325796249      1.37447997305696      0.37938451322484
  N   -1.27488699651799     -1.02525864100894      0.68625188762790
  O   -0.74715542004354     -1.20135377957273      1.77711213006220
  O   -2.31891960184922     -1.50957935987155      0.27020188374423
