15
Coordinates from ORCA-job run
  C   0.85941812804846      0.29077979758471     -0.04138247316944
  C   -0.59328393337916      0.24468646642720      0.41514254092209
  Cl  1.52328507458889      1.87481898596395      0.38374700816249
  H   -0.67285929384789      0.45537245059819      1.47918676145815
  N   1.64826160283519     -0.75378657820136      0.79888952616924
  O   1.23344911060578     -0.92444068877953      1.93438590697174
  O   2.62540353918678     -1.24620405572983      0.26806347010167
  C   1.06572327836461      0.01968617617273     -1.45177471714055
  N   1.27940002886013     -0.18348877301235     -2.59030786081741
  N   -1.21982956222861     -1.09898757641227      0.16146310281185
  O   -0.50339885305530     -1.97739812054429     -0.30464112828370
  O   -2.39989662606334     -1.17719937268310      0.47152378899437
  N   -1.41971408701465      1.25245372466249     -0.32976464280299
  O   -1.65004595221313      0.98884748578967     -1.50503403504334
  O   -1.77891245468777      2.23386007816379      0.30850275166584
