15
Coordinates from ORCA-job run
  C   0.87166886996543      0.33600968913703     -0.27497403928722
  C   -0.64972294283732      0.24277754854104     -0.42633041013685
  Cl  1.33684663464529      2.01373377656489     -0.49952748407071
  H   -0.93336949831884      0.58836200796365     -1.42023499834723
  N   1.32036552463234     -0.18042027795913      1.13417641360208
  O   2.04053164716738      0.52284253586249      1.80654448573165
  O   0.90099356995972     -1.30322040582817      1.36662744947892
  C   1.56745262587623     -0.50395607359589     -1.23895047056886
  N   2.18664225409626     -1.13828427580573     -2.01225862941782
  N   -1.36442154666673      1.10411426272328      0.56609891042473
  O   -0.87030582666663      1.19546040230242      1.68313421431112
  O   -2.40700616988376      1.60506531350529      0.16198272461076
  N   -1.20070608646465     -1.16686232335875     -0.29542048719574
  O   -1.93599841712056     -1.40205485084118      0.64921703842194
  O   -0.86197063838417     -1.91456732921126     -1.20008471755678
