15
Coordinates from ORCA-job run
  C   0.89191009065180      0.28948214861127     -0.28140928334365
  C   -0.63467939923339      0.24475622505837     -0.42971094752752
  Cl  1.50585409983501      1.90960525047273     -0.61363913073380
  H   -0.91395215531348      0.60658462887604     -1.41952803701076
  N   1.34511547525096     -0.07636109894104      1.15068986860268
  O   2.27888659981069     -0.85148060020477      1.24631656588984
  O   0.73986160711008      0.50209941168735      2.03730609944214
  C   1.47397809986397     -0.65432249817894     -1.22561168898797
  N   1.90554551411812     -1.37149405745947     -2.05185887679641
  N   -1.41080422406824      1.08856165853653      0.56838602299782
  O   -1.35403466720027      2.29091197587876      0.36398689298851
  O   -2.03246675334221      0.49596944289257      1.43525633668537
  N   -1.13601372785349     -1.15917971577434     -0.29826581272260
  O   -0.48441445920735     -1.91257738339770      0.41807190284113
  O   -2.17378610042219     -1.40355538805735     -0.89998991232480
