15
Coordinates from ORCA-job run
  C   0.90622700165334      0.28062934251846     -0.24475673005637
  C   -0.61499754922599      0.26434940388938     -0.44547862291736
  Cl  1.55814792006274      1.89613616419470     -0.52148674319290
  H   -0.85401974758642      0.64851817021484     -1.43742796742184
  N   1.30391418914981     -0.12275352191159      1.19346994659870
  O   2.22450380560758     -0.91154420953020      1.30415952934340
  O   0.67496890900913      0.44383888236873      2.07127828963363
  C   1.50421402302149     -0.65333774841756     -1.18897153505473
  N   1.94872301197521     -1.36263481913318     -2.01512783692042
  N   -1.41197454482858      1.10183518731435      0.54176061032506
  O   -1.32552786331024      2.30689313900895      0.36554213343953
  O   -2.07600060688622      0.50338813386988      1.37235513168507
  N   -1.14352316773929     -1.13348637841781     -0.35859685170007
  O   -0.52692932729914     -1.91331055283513      0.36037338990412
  O   -2.16672605360342     -1.34652119313382     -0.99609274366581
