15
Coordinates from ORCA-job run
  C   0.86559321545999      0.35435419543035     -0.27221371130095
  C   -0.65613937602088      0.24632923256517     -0.41385562924645
  Cl  1.30900706049831      2.04295479035791     -0.45674779673874
  H   -0.95199581968326      0.61796477703564     -1.39461673784558
  N   1.33172691851500     -0.19324019117760      1.11906405207165
  O   2.05364438358298      0.49837504173051      1.80147800354601
  O   0.92216551809899     -1.32432548041915      1.32781832708683
  C   1.56341835965814     -0.45101313795437     -1.26385639980275
  N   2.18353470333710     -1.05523568166154     -2.06026058358151
  N   -1.37398071035772      1.06904331953842      0.60877845238368
  O   -2.43503825746465      1.55217115047867      0.23182083935140
  O   -0.86307053405506      1.15167790569868      1.71882851107239
  N   -1.18849348800732     -1.17266414803071     -0.32002552478573
  O   -0.84991084812935     -1.88892421935208     -1.24997045998493
  O   -1.91046112543227     -1.44546755423990      0.62475865777470
