15
Coordinates from ORCA-job run
  C   0.90134883494357      0.28081439649946     -0.25975338798597
  C   -0.62044768469556      0.24001595125064     -0.45299012318513
  Cl  1.53264185470562      1.89241099835944     -0.60154879603831
  H   -0.86741820225387      0.58440953407090     -1.45751401407140
  N   1.30987489435558     -0.06186242343772      1.19122956752543
  O   0.67971555376848      0.53307198398235      2.04916173876244
  O   2.23831020120380     -0.83712793424880      1.32832194454064
  C   1.50693833004947     -0.68149680391950     -1.16982025534240
  N   1.96075627022454     -1.41644081048749     -1.96808128702477
  N   -1.42276158984731      1.10441889550029      0.50565222444284
  O   -1.35257040394302      2.30288737506491      0.28315598856440
  O   -2.07504086469699      0.53011567525908      1.36225476327257
  N   -1.13227798827144     -1.15960074008921     -0.31135593057875
  O   -2.15450990599023     -1.40897758411657     -0.93705479225163
  O   -0.50455929955263     -1.90363851368779      0.43534235937003
