15
Coordinates from ORCA-job run
  C   0.84769840787563      0.36490280378495     -0.30990656477769
  C   -0.67317699905399      0.21183213675452     -0.40690205724227
  Cl  1.24000744059208      2.05589312088922     -0.57160391073966
  H   -1.00422357160396      0.53282583113241     -1.39430392682960
  N   1.36372629630322     -0.11406793165543      1.08995033944581
  O   2.07745167373014      0.62607074919159      1.72863069276670
  O   0.99691134518078     -1.24904168147241      1.35052881754026
  C   1.54302751325326     -0.46173312861423     -1.28560536674404
  N   2.16103639906683     -1.08465276766786     -2.06910121041823
  N   -1.38532890861712      1.05897878033396      0.59910265014726
  O   -0.85824453676957      1.18201681234104      1.69800714409816
  O   -2.45740596647496      1.51919978126670      0.22435223479708
  N   -1.16453232265191     -1.21563929447405     -0.23920863764924
  O   -1.85794135848723     -1.46523919516332      0.73303367977709
  O   -0.82900541234320     -1.96234601664710     -1.14597388417161
