15
Coordinates from ORCA-job run
  C   0.84593394935738      0.23290113509041      0.05044496346899
  C   -0.63323055282987     -0.04089265524507     -0.24043137937920
  Cl  1.10558421381347      1.45650936037104      1.26452219159765
  H   -0.74799248646398     -0.65647344875084     -1.13030085616918
  N   1.46688012696769     -1.14325452739530      0.49343040630940
  O   1.06843948698124     -2.08161815631274     -0.18071399067568
  O   2.28643005389920     -1.13849722379872      1.38440631030616
  C   1.54210409352556      0.57817108182665     -1.18246121500298
  N   2.14020903418262      0.83016429560503     -2.16379069096936
  N   -1.34628033292005      1.26284126447701     -0.49624515115991
  O   -1.11870780093317      1.74816130290537     -1.59753499326511
  O   -2.04160979586864      1.71535095148105      0.40086962352718
  N   -1.34181065229565     -0.75093346976826      0.87442413800305
  O   -2.45867877247860     -1.15130580963663      0.57436118500270
  O   -0.76727056493719     -0.86212410084902      1.95001945840632
