15
Coordinates from ORCA-job run
  C   0.85868059160309      0.34966714943831     -0.29945871015362
  C   -0.66239550521235      0.21549916923788     -0.42403230475068
  Cl  1.27902253756081      2.03084351158270     -0.58047044029787
  H   -0.96929521036598      0.52606323472990     -1.42251142293230
  N   1.34113266570362     -0.11386749381242      1.11701988315826
  O   0.95144740027921     -1.23808092466561      1.39005525065178
  O   2.05487918874348      0.62592228419951      1.75614038147712
  C   1.56086324667300     -0.50201147154776     -1.24828420891659
  N   2.18634801876721     -1.16078848665367     -1.99568320057751
  N   -1.38209017288263      1.08781680194523      0.55516108716707
  O   -0.87310333806557      1.22322516052424      1.66101981459116
  O   -2.44179195904333      1.55375899330684      0.15350921027279
  N   -1.17699125653102     -1.20218527444072     -0.24527548845963
  O   -0.83639823572222     -1.96639380631173     -1.13544414713264
  O   -1.89030797150733     -1.42846884753268      0.71825429590266
