15
Coordinates from ORCA-job run
  C   0.84412425367421      0.33425244606187     -0.00232356149617
  C   -0.61872127696087      0.19729430357900      0.40064687777309
  Cl  1.40552822215468      1.93919723319075      0.48658684795995
  H   -0.74359273987278      0.36689537004115      1.46773927666136
  N   1.66002786226022     -0.68846142555175      0.83729047147154
  O   2.68224196498577     -1.10818710779174      0.32881839425376
  O   1.21629738027320     -0.91801342793139      1.95127324793009
  C   1.11286219098340      0.11431621837419     -1.41134987102322
  N   1.36279224835090     -0.01615393354323     -2.55309157522127
  N   -1.16286948281704     -1.16874892216859      0.08224021048772
  O   -2.34888770429330     -1.31819229152031      0.33795113970849
  O   -0.38088921848840     -1.99391631957897     -0.37588752248422
  N   -1.47347738401226      1.18498801240613     -0.33911509153984
  O   -1.90947996901792      2.12063153924422      0.31979676046301
  O   -1.64695634721981      0.95309830518869     -1.53057560494430
