15
Coordinates from ORCA-job run
  C   0.86862058896368      0.34562581556106     -0.27351445503752
  C   -0.65241868918999      0.24069233907778     -0.42296948222580
  Cl  1.31898077250465      2.02898783910485     -0.48341572520787
  H   -0.94104042199007      0.59528589677922     -1.41215788092682
  N   1.32335872201154     -0.17961979843892      1.13080787735373
  O   0.91517205302178     -1.30854050934349      1.35256506975378
  O   2.03617507438146      0.52472117608027      1.80963221257373
  C   1.56942953514595     -0.48028197579479     -1.24592478162339
  N   2.19193772599666     -1.10145463980422     -2.02721554946973
  N   -1.37199395815978      1.08666233578061      0.57983150526598
  O   -2.41801063775887      1.58554028030287      0.18193623168306
  O   -0.87746817518974      1.16962271684740      1.69730779388061
  N   -1.19155453177401     -1.17379755087767     -0.30560173854476
  O   -1.92000550210010     -1.42627075419828      0.63994750977477
  O   -0.85218255586315     -1.90817317107670     -1.22122858724977
