15
Coordinates from ORCA-job run
  C   0.82574321191685      0.36380835764799      0.10100925603178
  C   -0.65521193940735      0.12767369692810      0.36942363849991
  Cl  1.27492336811732      1.92322289452567      0.80564442270940
  H   -0.86660968775192      0.17085517903564      1.43550365066833
  N   1.62305711595767     -0.71574028150070      0.88576815729700
  O   1.10840261322369     -1.08623999413830      1.92902748558681
  O   2.69909860615930     -1.03598216637747      0.41751588535526
  C   1.20864124055549      0.31402715844500     -1.29784951605016
  N   1.54792106463649      0.32155283502505     -2.42390238952813
  N   -1.11085674038779     -1.21307020085424     -0.13897536020276
  O   -0.25953406096421     -1.95205052920703     -0.62018726910844
  O   -2.30472347862534     -1.43411567805023      0.00313129201291
  N   -1.49685374154545      1.16004777547588     -0.32279826646328
  O   -1.56999784390354      1.05810467185291     -1.54253126217252
  O   -2.02399972798121      1.99790628119172      0.39822027536388
