15
Coordinates from ORCA-job run
  C   0.82129262473418      0.16751281448412     -0.26997415421096
  C   -0.61000904454409     -0.28319993746056      0.03771609893452
  Cl  0.90877507430809      1.63323028075949     -1.20841450643807
  H   -0.61661978611939     -1.28069800902221      0.47266025545866
  N   1.53499496724365      0.34372624769388      1.12195336989102
  O   2.28905309773495      1.28014062680305      1.26148626601568
  O   1.26747649126279     -0.55252988541506      1.90840652116239
  C   1.54547793273328     -0.91060615180288     -0.93154682441152
  N   2.15498442296392     -1.77710850971882     -1.44281018200295
  N   -1.40882676142819     -0.34040735573011     -1.23929260911614
  O   -2.14980475941066      0.59980521603229     -1.48608951525161
  O   -1.20078500952923     -1.33983143622907     -1.91695563231040
  N   -1.33000060320086      0.61516972462421      0.99986102415067
  O   -2.42009350889091      0.18670773511939      1.35419506016597
  O   -0.78591513785751      1.65808863986227      1.33980482796275
