16

C	-0.303107	-0.07067	-1.480206
C	0.0	0.0	0.0
Br	-2.240107	-0.393289	-1.844227
H	1.093572	0.0	0.0
H	-0.159173	0.95217	-1.824492
C	0.578087	-1.017657	-2.266779
H	0.296017	-2.055872	-2.110945
H	1.586634	-0.85939	-1.865048
H	0.536737	-0.783185	-3.334714
N	-0.436818	-1.252818	0.710935
O	-1.099098	-1.13645	1.746858
O	-0.091902	-2.33585	0.242512
N	-0.510248	1.184275	0.610047
H	-1.462519	1.044333	0.925231
H	0.05946	1.392231	1.420792
F	2.586476	0.0	0.0
