16

C	-0.328626	-0.027792	-1.474242
C	0.0	0.0	0.0
Br	-2.284083	-0.264452	-1.80579
H	1.093836	0.0	0.0
H	-0.152491	0.996988	-1.799635
C	0.493444	-0.995734	-2.299164
H	0.182447	-2.025759	-2.1471
H	0.42495	-0.747178	-3.359656
H	1.517355	-0.876707	-1.931553
N	-0.438938	-1.269855	0.678486
O	-0.049174	-2.338532	0.211776
O	-1.152577	-1.184794	1.682529
N	-0.495961	1.168903	0.651296
H	0.092618	1.35608	1.450112
H	-1.44067	1.022915	0.981392
F	2.578845	0.0	0.0
