16

C	-0.474278	-0.014461	-1.458147
C	0.0	0.0	0.0
Br	0.056769	1.672649	-2.310117
H	1.090648	0.0	0.0
H	0.097524	-0.775703	-1.984832
C	-1.968341	-0.210125	-1.653449
H	-2.262552	-1.187016	-1.259242
H	-2.542768	0.563323	-1.135972
H	-2.232528	-0.172552	-2.712638
N	-0.46765	-1.324234	0.547834
O	-0.129168	-2.325162	-0.096456
O	-1.162305	-1.367979	1.563613
N	-0.439176	1.069417	0.827355
H	0.332023	1.719109	0.91334
H	-1.26799	1.545531	0.496985
F	2.561267	0.0	0.0
