11

C	-0.539808	0.011933	-1.402251
C	0.0	0.0	0.0
F	-0.237278	-1.192836	-2.052
H	1.100413	0.0	0.0
H	-1.631153	0.096562	-1.407527
H	-0.087375	0.817181	-1.985943
H	-0.334984	0.929622	0.478974
N	-0.576744	-1.140386	0.739998
H	-0.10872	-1.162998	1.640723
H	-0.243802	-1.968902	0.257384
H	3.169929	0.0	0.0
