13

C	0.0	0.0	0.0
C	-0.223628	-0.496919	-1.505721
Br	1.932618	0.0	0.0
H	0.122187	-1.543231	-1.451011
H	-0.393623	-0.615925	0.797033
H	0.549434	0.04184	-2.06828
N	-0.43662	1.411629	0.249146
O	-0.573624	1.737113	1.425426
O	-0.533261	2.15622	-0.721489
N	-1.47957	-0.357253	-2.24152
H	-1.731727	-1.26963	-2.596974
H	-2.173296	-0.103129	-1.496068
F	-2.440204	0.0	0.0
