13

C	0.0	0.0	0.0
C	-0.286338	0.17411	-1.551439
Br	1.932458	0.0	0.0
H	-0.204639	1.254889	-1.706141
H	-0.387128	-0.903956	0.45231
H	0.567542	-0.281382	-2.058629
N	-0.46721	1.1288	0.868646
O	-0.556376	2.245427	0.374212
O	-0.63607	0.859129	2.052018
N	-1.490345	-0.321118	-2.167593
H	-1.435321	-1.334813	-2.177557
H	-2.225922	-0.105571	-1.447994
F	-2.592987	0.0	0.0
