13

C	0.0	0.0	0.0
C	-0.429717	-0.062582	-1.521664
Br	1.930874	0.0	0.0
H	-0.873142	-1.055025	-1.613517
H	-0.376167	-0.823312	0.591515
H	0.484161	-0.031002	-2.121758
N	-0.391505	1.231629	0.753346
O	-0.317521	2.30996	0.168342
O	-0.660937	1.092887	1.939849
N	-1.376497	0.885091	-2.054957
H	-1.000481	1.81549	-1.926378
H	-2.164407	0.761739	-1.393294
F	-2.506625	0.0	0.0
