16

C	0.0	0.0	0.0
C	-0.582652	-0.077301	-1.403055
Cl	1.757072	0.0	0.0
H	-1.646758	0.162852	-1.287558
H	-0.367291	-0.827977	0.599755
N	-0.417204	1.250672	0.733071
O	-0.568943	2.276186	0.079297
O	-0.497611	1.151431	1.95148
N	-1.517941	-1.828479	-2.596175
O	-0.471972	-1.483888	-1.715199
O	-1.501673	-2.990555	-2.826615
C	0.097722	0.736899	-2.48155
H	-0.507411	0.676086	-3.388204
H	1.091573	0.340237	-2.696337
H	0.177399	1.781075	-2.183673
Cl	-3.534048	0.0	0.0
