16

C	0.0	0.0	0.0
C	-0.377472	-0.337117	-1.475636
Cl	1.763177	0.0	0.0
H	0.493941	-0.075759	-2.081587
H	-0.401757	-0.730156	0.693299
N	-0.338702	1.348183	0.607188
O	-0.733224	1.309583	1.765984
O	-0.059054	2.35237	-0.032822
N	-1.448211	0.421187	-2.247691
O	-2.098969	-0.246885	-3.042452
O	-1.428454	1.6401	-2.198442
C	-0.635992	-1.831526	-1.534425
H	-0.664917	-2.182103	-2.563963
H	0.161841	-2.359998	-1.005829
H	-1.596691	-2.025737	-1.055659
Cl	-3.125193	0.0	0.0
