15

C	-0.474633	0.017046	-1.430213
C	0.0	0.0	0.0
F	-0.060541	1.126415	-2.091756
H	1.095088	0.0	0.0
H	-0.339839	-0.937183	0.446818
N	0.081007	-1.203549	-2.179239
O	-0.290082	-2.284119	-1.734898
O	0.810087	-0.999175	-3.13319
C	-1.943319	-0.073773	-1.555971
N	-3.114548	-0.118878	-1.632355
C	-0.519394	1.207678	0.770931
H	-1.611446	1.223538	0.844609
H	-0.182063	2.133116	0.302124
H	-0.105439	1.183901	1.780201
Cl	3.403741	0.0	0.0
