15

C	-0.561796	0.009243	-1.39841
C	0.0	0.0	0.0
F	-1.929496	-0.127886	-1.374562
H	1.092021	0.0	0.0
H	-0.319798	-0.958844	0.423609
N	-0.287677	1.35885	-2.070442
O	-1.159591	2.210374	-1.952496
O	0.79571	1.47777	-2.623525
C	-0.027865	-1.039739	-2.274881
N	0.324316	-1.930221	-2.95361
C	-0.515032	1.159539	0.847053
H	-0.198995	0.997287	1.879128
H	-1.603	1.248672	0.819751
H	-0.077544	2.105138	0.522798
Cl	3.3963	0.0	0.0
