15

C	-0.503491	-0.031146	-1.413337
C	0.0	0.0	0.0
F	-1.87336	0.143681	-1.45502
H	1.09237	0.0	0.0
H	-0.340584	0.953881	0.413352
N	0.065685	1.153716	-2.197212
O	0.82569	0.917906	-3.127069
O	-0.311376	2.252082	-1.810068
C	-0.200709	-1.269378	-2.142563
N	-0.059673	-2.305207	-2.677127
C	-0.522832	-1.17945	0.81206
H	-0.183296	-1.074313	1.843927
H	-1.61451	-1.233155	0.808087
H	-0.119379	-2.120985	0.433281
Cl	3.383725	0.0	0.0
