15

C	-0.531079	0.055623	-1.416048
C	0.0	0.0	0.0
Cl	-0.046002	1.568179	-2.211825
H	1.089292	0.0	0.0
H	-1.614338	-0.024979	-1.497876
N	-0.005238	-1.092892	-2.264703
O	0.806219	-1.855	-1.765223
O	-0.454661	-1.155645	-3.405453
N	-0.527423	-1.227711	0.636433
O	-1.366435	-1.907821	0.018043
O	-0.086206	-1.513239	1.746202
N	-0.32224	1.127208	0.829292
H	-1.041507	1.721907	0.436872
H	0.537028	1.659064	0.951209
H	2.57236	0.0	0.0
