15

C	-0.634923	0.076689	-1.372261
C	0.0	0.0	0.0
Cl	-0.11212	1.540869	-2.222969
H	1.088188	0.0	0.0
H	-1.723188	0.081035	-1.336055
N	-0.28739	-1.075379	-2.285028
O	-1.186598	-1.446079	-3.036767
O	0.853568	-1.509139	-2.254887
N	-0.456308	-1.184458	0.675456
O	-0.266603	-1.253372	1.905109
O	-0.929064	-2.120656	-0.005061
N	-0.268304	1.19741	0.763701
H	-0.842884	0.959544	1.561077
H	0.634524	1.495333	1.130907
H	2.406027	0.0	0.0
