15

C	-0.397285	0.045544	-1.46933
C	0.0	0.0	0.0
Cl	0.119863	-1.345466	-2.407224
H	1.090009	0.0	0.0
H	0.058392	0.940499	-1.891599
N	-1.888403	0.238975	-1.613757
O	-2.266485	1.411992	-1.514464
O	-2.621013	-0.736113	-1.737064
N	-0.58857	-1.22987	0.619636
O	0.067014	-2.270239	0.564775
O	-1.706716	-1.120603	1.134841
N	-0.361631	1.146316	0.758234
H	-1.188066	1.630511	0.43935
H	0.445052	1.759774	0.798504
H	2.631521	0.0	0.0
