15

C	-0.517318	-0.009338	-1.415531
C	0.0	0.0	0.0
Cl	-2.27114	-0.322846	-1.531692
H	1.092451	0.0	0.0
H	-0.00411	-0.752917	-2.018236
N	-0.200676	1.331897	-2.0296
O	-1.055204	2.206517	-2.049001
O	0.955007	1.43341	-2.433663
N	-0.31023	-1.303152	0.609886
O	-0.138577	-2.307171	-0.094602
O	-0.583677	-1.332867	1.817724
N	-0.405418	1.131649	0.746323
H	-1.296398	0.993728	1.201842
H	0.30645	1.321101	1.442742
H	2.496043	0.0	0.0
