16

C	-0.427253	-0.009514	-1.428378
C	0.0	0.0	0.0
F	0.106679	1.00325	-2.123634
H	1.095465	0.0	0.0
H	-0.324277	0.96838	0.391491
N	-0.097064	-1.302568	-2.154236
O	0.790821	-1.276855	-2.990532
O	-0.7754	-2.266272	-1.81375
N	-1.940645	0.134679	-1.656195
O	-2.319279	-0.041325	-2.809598
O	-2.633448	0.485777	-0.708077
C	-0.499932	-1.141088	0.879117
H	-1.585132	-1.241231	0.870147
H	-0.054089	-2.089598	0.582602
H	-0.17644	-0.936818	1.900666
Cl	3.389596	0.0	0.0
