16

C	-0.5164	0.158352	-1.402631
C	0.0	0.0	0.0
F	-1.757481	0.691306	-1.461663
H	1.092534	0.0	0.0
H	-0.321129	-0.983496	0.354887
N	0.345049	1.078362	-2.262429
O	0.829074	0.628671	-3.292283
O	0.416909	2.226985	-1.850966
N	-0.570167	-1.169347	-2.147428
O	-1.534999	-1.357735	-2.878145
O	0.365751	-1.927756	-1.950194
C	-0.492622	1.094971	0.944015
H	-1.577707	1.091313	1.060937
H	-0.030046	0.927965	1.914952
H	-0.179892	2.076944	0.595039
Cl	3.38404	0.0	0.0
