16

C	-0.456046	0.019219	-1.422816
C	0.0	0.0	0.0
F	-0.119109	-1.103765	-2.068675
H	1.093778	0.0	0.0
H	-0.307432	-0.989153	0.358809
N	-1.980359	0.132577	-1.500583
O	-2.602207	-0.920313	-1.438347
O	-2.451497	1.264454	-1.537561
N	0.035772	1.178331	-2.280042
O	-0.156543	1.040461	-3.483379
O	0.549696	2.134487	-1.719258
C	-0.563597	1.086662	0.90673
H	-1.648275	1.012224	1.025881
H	-0.316978	2.079185	0.536506
H	-0.105065	0.973981	1.890423
Cl	3.38591	0.0	0.0
