16

C	-0.451819	-0.061614	-1.424471
C	0.0	0.0	0.0
F	-0.181062	1.07209	-2.083185
H	1.092589	0.0	0.0
H	-0.315423	0.995098	0.332353
N	0.111126	-1.203831	-2.259586
O	0.029105	-1.048594	-3.472976
O	0.553746	-2.176526	-1.668001
N	-1.968327	-0.260802	-1.49929
O	-2.381538	-1.410417	-1.607053
O	-2.643147	0.751258	-1.361892
C	-0.563727	-1.067232	0.929415
H	-0.115159	-0.92758	1.914358
H	-1.6501	-0.993111	1.037622
H	-0.309663	-2.067373	0.585822
Cl	3.383459	0.0	0.0
