16

C	-0.444319	0.01114	-1.423658
C	0.0	0.0	0.0
F	0.135374	0.990977	-2.130322
H	1.094295	0.0	0.0
H	-0.316686	0.96548	0.405114
N	-0.197892	-1.302186	-2.149865
O	-0.934869	-2.22237	-1.806656
O	0.690811	-1.333968	-2.984335
N	-1.952701	0.237714	-1.626701
O	-2.621093	0.579145	-0.658195
O	-2.351142	0.123928	-2.781189
C	-0.505969	-1.144785	0.870088
H	-1.593112	-1.230393	0.870146
H	-0.076135	-2.095938	0.557884
H	-0.16932	-0.957628	1.8915
Cl	3.390415	0.0	0.0
