16

C	-0.438586	0.167755	-1.415589
C	0.0	0.0	0.0
F	0.10336	1.251871	-1.988688
H	1.093978	0.0	0.0
H	-0.319964	0.914692	0.507039
N	-0.133072	-1.03223	-2.296288
O	-0.811821	-2.026641	-2.056662
O	0.736496	-0.91284	-3.14257
N	-1.953308	0.360954	-1.603402
O	-2.355344	0.313102	-2.761912
O	-2.623737	0.626455	-0.612207
C	-0.504348	-1.234997	0.737574
H	-1.59122	-1.325258	0.721977
H	-0.175425	-1.157449	1.775644
H	-0.067665	-2.144227	0.326633
Cl	3.388905	0.0	0.0
