16

C	-0.446837	0.042154	-1.426984
C	0.0	0.0	0.0
F	-0.200328	1.230807	-1.991687
H	1.094584	0.0	0.0
H	-0.318944	0.966167	0.405593
N	0.148202	-1.018515	-2.343507
O	0.124374	-0.749437	-3.539178
O	0.555808	-2.047576	-1.826083
N	-1.959132	-0.181523	-1.525247
O	-2.351392	-1.319156	-1.761199
O	-2.652667	0.796526	-1.277343
C	-0.563145	-1.136281	0.844176
H	-0.297973	-2.106778	0.430906
H	-1.651215	-1.07712	0.946379
H	-0.125625	-1.06541	1.84141
Cl	3.383601	0.0	0.0
