17

C	-0.431114	0.034664	-1.479853
C	0.0	0.0	0.0
Cl	0.284427	1.551004	-2.152267
H	1.092839	0.0	0.0
C	0.147946	-1.141627	-2.257474
H	-0.327939	-2.068985	-1.937578
H	1.222211	-1.178603	-2.057235
H	-0.021289	-1.00434	-3.326684
C	-1.879888	0.17117	-1.65776
N	-3.030527	0.323241	-1.844292
N	-0.455333	-1.309092	0.612841
O	0.213149	-1.74296	1.539728
O	-1.500375	-1.816941	0.192399
N	-0.487159	1.041525	0.842204
H	0.24429	1.717485	0.998886
H	-1.316897	1.490845	0.484514
Cl	3.278868	0.0	0.0
