17

C	-0.40481	-0.106744	-1.497929
C	0.0	0.0	0.0
Cl	0.177314	1.405314	-2.284969
H	1.091215	0.0	0.0
C	0.273105	-1.289362	-2.178374
H	-0.123739	-2.228403	-1.790215
H	0.103107	-1.246346	-3.255317
H	1.342473	-1.235309	-1.959723
C	-1.859006	-0.130805	-1.672278
N	-3.024016	-0.148729	-1.829085
N	-0.501877	-1.267056	0.648338
O	0.245169	-2.241804	0.677398
O	-1.658625	-1.243503	1.073595
N	-0.493716	1.105374	0.741262
H	0.146476	1.880929	0.653415
H	-1.434516	1.373977	0.487203
Cl	3.314327	0.0	0.0
