17

C	-0.466831	0.038677	-1.460258
C	0.0	0.0	0.0
Cl	-2.279386	0.19991	-1.493172
H	1.092799	0.0	0.0
C	0.162409	1.251785	-2.132337
H	-0.149829	2.148037	-1.599229
H	-0.14204	1.302722	-3.178839
H	1.249222	1.14861	-2.057718
C	-0.147006	-1.155975	-2.24299
N	0.096407	-2.023892	-2.996472
N	-0.460532	-1.293439	0.652893
O	-0.035348	-2.338705	0.175644
O	-1.223677	-1.213068	1.617622
N	-0.430111	1.156981	0.706528
H	-1.336964	1.007068	1.12619
H	0.243983	1.356846	1.433525
Cl	3.239016	0.0	0.0
