17

C	-0.411335	0.083356	-1.487368
C	0.0	0.0	0.0
Cl	-2.207088	0.345227	-1.610783
H	1.092631	0.0	0.0
C	0.307093	1.26473	-2.126735
H	0.05801	1.329311	-3.186808
H	0.00521	2.186858	-1.629835
H	1.383068	1.117696	-1.994293
C	-0.124748	-1.126258	-2.25885
N	0.068281	-2.026737	-2.988807
N	-0.524934	-1.295467	0.569136
O	-1.494902	-1.244791	1.319724
O	0.043973	-2.322497	0.206463
N	-0.405934	1.086354	0.812874
H	-1.311786	1.471338	0.592088
H	0.320215	1.784092	0.867503
Cl	3.261723	0.0	0.0
