17

C	-0.390371	0.016052	-1.496618
C	0.0	0.0	0.0
Cl	-2.179633	0.292008	-1.667826
H	1.092158	0.0	0.0
C	0.356363	1.153472	-2.181187
H	0.124195	1.171179	-3.24667
H	0.061618	2.103391	-1.734184
H	1.427722	0.996931	-2.024503
C	-0.102981	-1.236954	-2.194416
N	0.093708	-2.186084	-2.859351
N	-0.533752	-1.265871	0.61833
O	0.074723	-2.303094	0.363529
O	-1.556499	-1.184813	1.296342
N	-0.415041	1.121414	0.759952
H	-1.317594	1.494737	0.508558
H	0.309143	1.822523	0.78877
Cl	3.272222	0.0	0.0
