17

C	-0.469198	0.085374	-1.45697
C	0.0	0.0	0.0
Cl	-2.282709	0.22022	-1.482353
H	1.094431	0.0	0.0
C	0.137982	1.332809	-2.086689
H	-0.191805	2.204758	-1.524755
H	-0.166081	1.411989	-3.131486
H	1.226483	1.247632	-2.013851
C	-0.132626	-1.073599	-2.285499
N	0.096298	-1.909586	-3.07932
N	-0.454522	-1.317478	0.610945
O	-1.183904	-1.270159	1.602941
O	-0.054048	-2.346865	0.07865
N	-0.432759	1.129433	0.746218
H	0.227999	1.293241	1.494455
H	-1.350517	0.973015	1.141501
Cl	3.236957	0.0	0.0
