17

C	-0.398536	-0.027559	-1.494557
C	0.0	0.0	0.0
Cl	-2.184134	0.26769	-1.666753
H	1.091833	0.0	0.0
C	0.359355	1.078203	-2.218777
H	0.118263	1.066957	-3.282636
H	1.430146	0.912815	-2.065007
H	0.080592	2.045178	-1.798443
C	-0.135115	-1.307216	-2.15251
N	0.036178	-2.286243	-2.779829
N	-0.534391	-1.246615	0.658696
O	-1.558984	-1.14705	1.330449
O	0.075502	-2.289615	0.438152
N	-0.409063	1.145779	0.727788
H	0.321776	1.840307	0.740898
H	-1.307582	1.520938	0.465304
Cl	3.273501	0.0	0.0
