20

C	0.0	0.0	0.0
C	-0.61142	0.094683	-1.402572
Cl	1.800601	0.0	0.0
H	-1.693476	0.218455	-1.150671
C	-0.464031	1.17009	0.861917
H	-0.104785	2.125691	0.478727
H	-1.558726	1.120858	0.833655
H	-0.089926	1.039429	1.88118
C	-0.486872	-1.295895	0.638557
H	-0.085661	-2.176576	0.133645
H	-0.161437	-1.322726	1.682132
H	-1.582564	-1.24215	0.577745
C	-0.363678	-1.100129	-2.30015
H	0.695151	-1.370361	-2.343103
H	-0.702804	-0.878488	-3.316133
H	-0.949537	-1.943325	-1.928084
N	-0.138821	1.333121	-2.091376
O	0.823363	1.246141	-2.859757
O	-0.73362	2.388965	-1.855028
F	-2.993675	0.0	0.0
