20

C	0.0	0.0	0.0
C	-0.593866	0.114019	-1.412107
Cl	1.800688	0.0	0.0
H	-1.675975	0.251114	-1.176799
C	-0.470974	1.15498	0.874554
H	-1.566311	1.100691	0.837544
H	-0.112821	2.118057	0.51075
H	-0.104428	1.005799	1.89428
C	-0.494728	-1.302959	0.614363
H	-0.099559	-2.178251	0.095005
H	-1.590751	-1.236338	0.549458
H	-0.173356	-1.350284	1.658444
C	-0.358119	-1.082852	-2.311083
H	0.690276	-1.386121	-2.326174
H	-0.979618	-1.906757	-1.960489
H	-0.6593	-0.847662	-3.333723
N	-0.094068	1.347165	-2.091531
O	0.836086	1.239047	-2.896496
O	-0.636784	2.418658	-1.813857
F	-2.990913	0.0	0.0
