20

C	0.0	0.0	0.0
C	-0.297281	-0.147545	-1.538554
Cl	1.806258	0.0	0.0
H	-0.047857	0.814717	-1.990327
C	-0.590603	1.312455	0.46534
H	-0.336078	1.4875	1.514679
H	-1.681486	1.185466	0.368181
H	-0.228434	2.154114	-0.130963
C	-0.562416	-1.141108	0.821601
H	-0.263036	-1.025249	1.86785
H	-1.655722	-1.048407	0.737257
H	-0.216028	-2.106866	0.454219
C	-1.671525	-0.620278	-1.965306
H	-1.782865	-0.430856	-3.038528
H	-2.478172	-0.165317	-1.347903
H	-1.748693	-1.695077	-1.788843
N	0.674121	-1.080096	-2.224126
O	1.332659	-0.622409	-3.15985
O	0.709988	-2.254621	-1.863993
F	-3.352756	0.0	0.0
