15

C	-0.415366	0.035463	-1.463924
C	0.0	0.0	0.0
Cl	-2.180564	0.026781	-1.703583
H	1.095798	0.0	0.0
H	-0.020929	0.922639	-1.953442
N	0.158032	-1.119205	-2.247783
O	-0.179956	-2.252854	-1.925173
O	0.908468	-0.820205	-3.170917
C	-0.49197	-1.186244	0.829126
H	-0.16736	-1.036789	1.860156
H	-0.045018	-2.107258	0.461778
H	-1.579917	-1.276735	0.806342
C	-0.447027	1.258129	0.595006
N	-0.833587	2.252805	1.08633
Cl	3.24724	0.0	0.0
