15

C	-0.567333	-0.007598	-1.410238
C	0.0	0.0	0.0
Cl	0.166636	-1.261836	-2.413764
H	1.094324	0.0	0.0
H	-1.646636	-0.158957	-1.418635
N	-0.373645	1.324879	-2.096966
O	-1.390725	1.824637	-2.58234
O	0.752878	1.796951	-2.114791
C	-0.440091	-1.255379	0.762278
H	-0.055567	-1.20224	1.781589
H	-0.007897	-2.137893	0.289883
H	-1.529575	-1.352377	0.797138
C	-0.500199	1.192786	0.6815
N	-0.951349	2.124194	1.238234
Cl	3.301559	0.0	0.0
