15

C	-0.571036	-0.036731	-1.409207
C	0.0	0.0	0.0
Cl	0.170934	-1.303466	-2.38851
H	1.094339	0.0	0.0
H	-1.646945	-0.199009	-1.412088
N	-0.389769	1.279932	-2.120477
O	0.735118	1.753418	-2.161843
O	-1.411578	1.762253	-2.609606
C	-0.435458	-1.241952	0.787083
H	-1.52457	-1.336288	0.830021
H	-0.04483	-1.172397	1.802665
H	-0.007443	-2.132637	0.326563
C	-0.504073	1.202688	0.659109
N	-0.964605	2.139784	1.19797
Cl	3.303958	0.0	0.0
