15

C	-0.571059	-0.082491	-1.408999
C	0.0	0.0	0.0
Cl	0.233172	-1.31992	-2.37527
H	1.094351	0.0	0.0
H	-1.639003	-0.2987	-1.404901
N	-0.462597	1.238937	-2.13017
O	0.646567	1.73992	-2.238725
O	-1.525925	1.707283	-2.541371
C	-0.42668	-1.230259	0.811213
H	-0.008264	-2.128369	0.356371
H	-0.018051	-1.147756	1.818745
H	-1.515298	-1.322387	0.87305
C	-0.509599	1.212086	0.636798
N	-0.968381	2.159605	1.158258
Cl	3.292336	0.0	0.0
