15

C	-0.434816	0.035783	-1.462042
C	0.0	0.0	0.0
Cl	-2.178692	0.265806	-1.678855
H	1.095825	0.0	0.0
H	0.081941	0.827679	-1.999267
N	-0.006823	-1.246215	-2.140739
O	1.115131	-1.213033	-2.634048
O	-0.763428	-2.210669	-2.107232
C	-0.498675	-1.219172	0.775217
H	-0.17836	-1.126465	1.813798
H	-0.050041	-2.12587	0.369646
H	-1.586415	-1.309004	0.740015
C	-0.442179	1.239236	0.634964
N	-0.822239	2.218399	1.160957
Cl	3.296386	0.0	0.0
