15

C	-0.425808	0.06341	-1.462192
C	0.0	0.0	0.0
Cl	-2.178764	0.259724	-1.682397
H	1.095864	0.0	0.0
H	0.072092	0.886935	-1.969836
N	0.008537	-1.179332	-2.205346
O	-0.605876	-2.218636	-1.995085
O	0.9615	-1.042036	-2.9623
C	-0.501886	-1.209996	0.787298
H	-1.588394	-1.305718	0.741071
H	-0.195446	-1.093849	1.827681
H	-0.044908	-2.119487	0.401935
C	-0.433623	1.242863	0.635808
N	-0.799249	2.221895	1.172339
Cl	3.257418	0.0	0.0
