15

C	-0.412623	0.051345	-1.464088
C	0.0	0.0	0.0
Cl	-2.177006	0.018957	-1.709042
H	1.09575	0.0	0.0
H	-0.031402	0.951988	-1.939248
N	0.180325	-1.08131	-2.26532
O	0.91313	-0.754788	-3.193225
O	-0.127767	-2.225878	-1.951921
C	-0.490744	-1.195823	0.815954
H	-1.579023	-1.283165	0.797457
H	-0.047768	-2.112824	0.434295
H	-0.160811	-1.060303	1.847209
C	-0.449811	1.250837	0.607929
N	-0.839634	2.239646	1.108442
Cl	3.246824	0.0	0.0
