18

C	-0.546838	-0.032864	-1.412784
C	0.0	0.0	0.0
Br	0.284275	1.315651	-2.57035
H	1.107569	0.0	0.0
N	-0.277496	-1.413431	-2.03278
O	0.837443	-1.638913	-2.468262
O	-1.210317	-2.21267	-1.957419
C	-1.98902	0.193555	-1.467651
N	-3.141295	0.431681	-1.440372
C	-0.418795	-1.241169	0.784119
H	-0.023412	-1.129583	1.797664
H	-1.504885	-1.376211	0.841386
H	0.033198	-2.146069	0.371477
C	-0.435983	1.27101	0.71901
H	-0.187306	2.163833	0.141387
H	-1.507908	1.282563	0.948622
H	0.128239	1.327737	1.654349
H	2.762887	0.0	0.0
