18

C	-0.423479	-0.333517	-1.407517
C	0.0	0.0	0.0
Br	0.242168	-2.085997	-2.006633
H	1.109509	0.0	0.0
N	-1.950678	-0.3647	-1.486145
O	-2.531037	-1.369607	-1.088748
O	-2.493335	0.693597	-1.816275
C	0.04793	0.640427	-2.390282
N	0.450043	1.394788	-3.197275
C	-0.479482	-0.990425	1.046355
H	0.066556	-0.779059	1.970683
H	-1.55378	-0.912215	1.246991
H	-0.256644	-2.019348	0.761888
C	-0.387501	1.430341	0.364548
H	-1.470269	1.575409	0.457831
H	0.001824	2.147963	-0.361282
H	0.082972	1.660129	1.325304
H	2.654724	0.0	0.0
