18

C	-0.422908	0.022881	-1.447757
C	0.0	0.0	0.0
Br	0.314806	-1.485229	-2.47086
H	1.098415	0.0	0.0
N	-1.949093	-0.055189	-1.533306
O	-2.481747	-1.155916	-1.436255
O	-2.538671	1.028083	-1.559698
C	-0.008376	1.237878	-2.144013
N	0.335531	2.202282	-2.721717
C	-0.46466	-1.230428	0.760211
H	-1.535833	-1.210257	0.990458
H	-0.244817	-2.150689	0.217834
H	0.095887	-1.261748	1.699487
C	-0.400868	1.283662	0.718911
H	-1.484724	1.390236	0.841627
H	-0.01627	2.167713	0.205611
H	0.065271	1.260012	1.708597
H	2.670526	0.0	0.0
