17
Coordinates from ORCA-job run
  C   -0.73642354962514      0.33420929985790     -0.20156588850943
  C   0.51842803683144     -0.38024821895935      0.27248847710415
  F   -0.40605400759119      1.46283377299780     -0.90783828782192
  H   0.21667485480300     -1.24930803893229      0.85506331390497
  N   -1.58160160631205     -0.53669251754857     -0.92184801140879
  H   -1.13180441444726     -0.85427197600572     -1.77048689455209
  H   -2.43778280644194     -0.05083826619913     -1.16778123382365
  N   -1.58122230081534      0.79468925974198      0.98601560108121
  O   -1.43221544652196      0.19470897399014      2.04175006296063
  O   -2.39113357040442      1.67917945376704      0.74421837283762
  N   1.30799965560700      0.47253818736918      1.23401079166115
  O   2.25391054660330     -0.09518448973599      1.77022688421205
  O   0.97657239143849      1.64056215914743      1.40516514675019
  C   1.43307836852254     -0.77313977512799     -0.87695539697008
  H   1.69334718517470      0.09935462998484     -1.47756990678073
  H   2.34207046187457     -1.21614711293719     -0.47246395046584
  H   0.95515620130426     -1.52124534141008     -1.51142908017945
