17
Coordinates from ORCA-job run
  C   -0.93234258744275     -0.21260295355621     -0.22639540700130
  C   0.58658206128444     -0.37862383113547     -0.36043902165581
  F   -1.49003514949865     -1.27605359381738     -0.90148827264175
  H   0.80604354288010     -0.54383475747850     -1.41442265913738
  N   -1.48208075232074     -0.05010768575831      1.03596615135371
  H   -1.84734592472128      0.87342952928129      1.20547249592370
  H   -0.92160119298960     -0.43194935989634      1.78102077321678
  N   -1.27629987103471      1.01638782326347     -1.09438057154742
  O   -1.70022138508009      2.02298722206290     -0.53475616118587
  O   -1.05517583236712      0.89058380012176     -2.29113377465134
  N   0.97463547430569     -1.65263892288067      0.32667795839867
  O   0.82421450957255     -1.69405535149387      1.54944288674124
  O   1.42951739535409     -2.55322691945187     -0.36938012549733
  C   1.37087330407592      0.77936152985964      0.22109177361398
  H   2.44081857051679      0.57330504121035      0.15923587845625
  H   1.17160072108920      1.68983869772342     -0.34723342878613
  H   1.10281711637617      0.94619973194579      1.26372150439998
