17
Coordinates from ORCA-job run
  C   -0.75104537431886      0.20563090012660     -0.30598538997429
  C   0.58643367207794     -0.32135044699481      0.20106012970312
  F   -0.60606835858243      1.14771122822866     -1.25806120440659
  H   0.41045293783155     -1.21521515539600      0.79867814695278
  N   -1.51151649102730     -0.86167549508015     -0.84734638498741
  H   -1.77783381265650     -1.52331289315876     -0.12911486548234
  H   -2.33707969446883     -0.50141586824598     -1.31263653276058
  N   -1.51200082523894      0.87458071711294      0.85842383300146
  O   -2.10883372488471      1.91679851766004      0.64662552624774
  O   -1.51506943960549      0.21025760013453      1.89304440043136
  N   1.24122765335473      0.64480303172951      1.13965268728946
  O   1.00754090367291      1.84027398406938      0.97826582796817
  O   2.01151367258564      0.15909736811743      1.96135693793534
  C   1.54323207460299     -0.59295721533594     -0.94711086674181
  H   1.79463651190120      0.33870966190999     -1.45469167250628
  H   2.45444950291390     -1.05178208234219     -0.56200451915690
  H   1.07096079184219     -1.26915385253526     -1.65915605351323
