17
Coordinates from ORCA-job run
  C   -0.70667032317608      0.25777643152858     -0.33879187205248
  C   0.57621721736997     -0.33040690234825      0.24524574473264
  F   -0.45390334982234      1.38775558070631     -1.03037255817958
  H   0.30766826386698     -1.20708739915862      0.83710306325993
  N   -1.35618882153281     -0.66902994104597     -1.18217936356510
  H   -2.09693155188491     -0.20775374241020     -1.69797462447573
  H   -1.74393502470267     -1.42968197447550     -0.63839668836924
  N   -1.60716973855107      0.67754070655835      0.85778197040951
  O   -2.13767984094365     -0.26534728519346      1.43777900951167
  O   -1.70350180483601      1.86482268639242      1.12876684836592
  N   1.12897387214827      0.65124329496908      1.24382018014891
  O   0.80684285506523      0.47574394082635      2.41807678090386
  O   1.84060208111135      1.55374889037044      0.81430536940200
  C   1.59867035402964     -0.63257920009964     -0.82834277949570
  H   1.83298031989484      0.26840743508703     -1.39187525464273
  H   2.51571303441484     -1.00800823725723     -0.37141871421158
  H   1.19931245754842     -1.38714428444969     -1.50452711174232
