17
Coordinates from ORCA-job run
  C   -0.88632590358199      0.02152615266744     -0.12350399949556
  C   0.57765229958551     -0.14179421339019     -0.51323238373611
  F   -1.63196780756485     -0.75272278629698     -1.01394366976207
  H   0.69020877622864      0.19346991228108     -1.54159123937217
  N   -1.16870020393754     -0.20245368397103      1.21643393135571
  H   -0.82107325937475     -1.10393702927570      1.51576099691873
  H   -2.15351241068142     -0.08189792989013      1.41312276395282
  N   -1.36056214220672      1.44275222369340     -0.45413320036117
  O   -2.45356728810216      1.74884179713238      0.00515627748658
  O   -0.65489926665433      2.13599128337430     -1.17904756896076
  N   0.88063836444658     -1.61376460803558     -0.55539584737745
  O   1.33474085463833     -2.06002073635324     -1.60280042749139
  O   0.69159357398717     -2.25925078906415      0.47609107741641
  C   1.55656506475542      0.53817100979735      0.42234276592464
  H   2.57666877951620      0.36491161923094      0.07379833019756
  H   1.37264861728562      1.61227276187003      0.42420057241901
  H   1.44889195166028      0.15790501623006      1.43674162088523
