17
Coordinates from ORCA-job run
  C   -0.86762117177352     -0.08581359574763     -0.36318756755099
  C   0.58839628546659     -0.50378748257818     -0.12272882915827
  F   -1.06684988073516     -0.23718545891165     -1.72139545865643
  H   0.67274470938124     -1.49083445081890     -0.58373963558348
  N   -1.80977466770603     -0.73213751112899      0.42486136275032
  H   -1.57681849367058     -1.68597480849660      0.65561776233018
  H   -2.75120713678040     -0.62800214952405      0.07303492379488
  N   -1.00298835675863      1.42590540356240     -0.10961023554938
  O   -0.69250750611067      1.77300456790208      1.02242362721127
  O   -1.39104796731634      2.13874543998344     -1.02514097035346
  N   0.86046323858021     -0.76185325880856      1.33498618165503
  O   1.54379047972189      0.04088076722019      1.95743367061847
  O   0.38655742377426     -1.80599687530174      1.78404845651885
  C   1.58778811112228      0.46299586970230     -0.71844417258620
  H   1.58262222130871      1.41011182055654     -0.18174466827288
  H   1.34210945660088      0.63424276660497     -1.76749448035403
  H   2.59234325489528      0.04369895578441     -0.65791996681387
