17
Coordinates from ORCA-job run
  C   -0.95871225361006     -0.04785866739016     -0.24704929337438
  C   0.54904038836480     -0.17968320306122     -0.51738298294779
  F   -1.58291820563758     -0.71756081960375     -1.26297796266942
  H   0.73454642080342      0.15973722005045     -1.53652341729026
  N   -1.48396649465271     -0.41784384122280      0.99184531561662
  H   -0.99863470657141     -1.20917944201208      1.38914726040829
  H   -1.55897181600261      0.36107743730611      1.62870234584058
  N   -1.26342098061120      1.44436668302820     -0.47964536019263
  O   -1.22573337162820      1.81433969636261     -1.64472021787678
  O   -1.46845396763178      2.14696644768900      0.50569312983834
  N   0.88853842971367     -1.64032476547588     -0.53400421248474
  O   1.35531150092843     -2.09907902983825     -1.57028536518015
  O   0.69753559615201     -2.26784507806593      0.50896322271855
  C   1.41336022431166      0.52896021765571      0.50405835202652
  H   1.19866803943890      0.16502204136054      1.50864720378786
  H   1.23465083892052      1.60495733517081      0.47123734744863
  H   2.46816035771215      0.35494776804664      0.28429463433076
