17
Coordinates from ORCA-job run
  C   -0.85053741898646     -0.13472197081212     -0.39697880659666
  C   0.60143161666273     -0.54098499679643     -0.13466332921819
  F   -1.04069017906703     -0.23960643414836     -1.74590658836304
  H   0.65708050739362     -1.56583089962766     -0.50755137159783
  N   -1.76498264474618     -0.97434165594282      0.25567629655929
  H   -2.69616684401410     -0.82015737470003     -0.11250677969139
  H   -1.77452697558177     -0.78063258328920      1.24882529010034
  N   -1.11179263685401      1.37864120288759     -0.12363062288271
  O   -0.45669311301570      2.17179211601848     -0.78963421020758
  O   -1.97693867593670      1.65528413079991      0.69788745454748
  N   0.85891108443759     -0.64566461849655      1.33481268885399
  O   1.73366951342019     -1.42940747235018      1.68297376020342
  O   0.21673386994871      0.09886462256883      2.07735530832695
  C   1.69788504740368      0.30839732238673     -0.75429249687285
  H   2.64530334552473     -0.22194767952712     -0.64778108723582
  H   1.77013588547187      1.28140707771037     -0.27130148580866
  H   1.49017761793883      0.46190921331855     -1.81228402011674
