17
Coordinates from ORCA-job run
  C   -0.76906819056554      0.36752823162812     -0.20342565157905
  C   0.53793569971122     -0.29480792029028      0.25956148958538
  F   -0.46796765744881      1.57138427653310     -0.73936870542360
  H   0.27797302047069     -1.13684745313347      0.90321558825440
  N   -1.57626342779961     -0.35160658251204     -1.11882247090957
  H   -1.09747721476672     -0.49403493774640     -1.99752382708401
  H   -1.89755391513878     -1.22596587739537     -0.72662046113918
  N   -1.65550614460147      0.59620996469978      1.02271079029788
  O   -2.07187937879102     -0.43679314660829      1.53654474498929
  O   -1.87719439949515      1.74377855755715      1.36664815288005
  N   1.24847093109565      0.68237892530718      1.15929363271287
  O   0.80631745290127      0.77312484296953      2.30313414844649
  O   2.18035289197042      1.32663189312369      0.68911254102265
  C   1.42030534422331     -0.69913103215826     -0.90142810029792
  H   2.39291166203259     -1.02736326556819     -0.53506964179343
  H   1.58120503282449      0.13789307102296     -1.57996520675808
  H   0.96643829337746     -1.53237954742920     -1.43999702320417
