17
Coordinates from ORCA-job run
  C   -0.75766801282517      0.28483133696340     -0.07219326089851
  C   0.60728520683960     -0.31170123826542      0.25383268166780
  F   -0.58528936920872      1.59787633412434     -0.43995737130561
  H   0.44755202034202     -1.16147005497010      0.91881436632241
  N   -1.46040812068870     -0.47566238943109     -1.02544373373426
  H   -2.39393961536736     -0.10096270549368     -1.15533566954285
  H   -0.97890108852373     -0.47163747101661     -1.91522538178924
  N   -1.66064346148282      0.29715326434781      1.16904631086171
  O   -2.38809275319488      1.27072336889087      1.30116333968645
  O   -1.62777998112721     -0.70433798626183      1.86841918803180
  N   1.34913648097258      0.70967449861864      1.08621374279945
  O   0.74352722769417      1.14319169830245      2.06143920365766
  O   2.48723029687338      1.01923856883862      0.75208307558153
  C   1.40061543128578     -0.69678091334036     -0.97560885280224
  H   0.91701965970389     -1.53910964055066     -1.47207066177239
  H   1.49475848021513      0.14374919066646     -1.66510444715050
  H   2.40359759849207     -1.00577586142283     -0.68807252961322
