17
Coordinates from ORCA-job run
  C   -0.75725510878575      0.28855605104831     -0.06000317385916
  C   0.61726345623459     -0.29376277546268      0.25146536524508
  F   -0.59110019588391      1.55517092178305     -0.56800841522186
  H   0.48547657150837     -1.06778675922931      1.00865646414420
  N   -1.51941437628969     -0.55232555844826     -0.89173842179223
  H   -1.08677004539457     -0.64978743899643     -1.80095080889876
  H   -2.45449978904258     -0.17784086183631     -1.00988037934171
  N   -1.59042974262015      0.44113962334486      1.22005343772791
  O   -2.30238166178218      1.43274193328917      1.28823372728974
  O   -1.52764954832188     -0.48269709959443      2.01739417033149
  N   1.41455606900918      0.79559729481003      0.93224205902004
  O   2.53333106878821      1.05489170412949      0.50337936721415
  O   0.87030385080135      1.33304629832607      1.89181803013655
  C   1.33717631337692     -0.81637588929909     -0.97240985366398
  H   2.35159346109498     -1.10922930526194     -0.70906832318640
  H   1.40110609870859     -0.05325078482813     -1.74980610190164
  H   0.81869357859852     -1.69808735377440     -1.35137714324341
