17
Coordinates from ORCA-job run
  C   -0.71171478893117      0.28329764277995     -0.30777322814988
  C   0.57368412951862     -0.35464521358534      0.21519085291024
  F   -0.45035543130901      1.40669338240912     -1.00673740319974
  H   0.30044206551448     -1.23224068994739      0.80339020013587
  N   -1.43122093673707     -0.61581033485899     -1.12370313387901
  H   -2.17918829644592     -0.12758886372834     -1.60283940788483
  H   -1.81743706173700     -1.36766109446445     -0.56696086111651
  N   -1.54176696343994      0.72951370775696      0.92930016304646
  O   -1.58870306015627      1.91868047187962      1.20541843254589
  O   -2.07440023517809     -0.19788563288693      1.53215151200297
  N   1.19920760973751      0.59061606953740      1.20572531089622
  O   0.94038922844818      0.39099216681923      2.39174529714641
  O   1.90206020880423      1.49160905355885      0.75853495813101
  C   1.54203823485638     -0.66998503731901     -0.90396903514143
  H   2.46265613391902     -1.08611435617515     -0.49159529971304
  H   1.09021108266665     -1.39646374362078     -1.57798068921987
  H   1.78509808046939      0.23399247184525     -1.45889766851074
