17
Coordinates from ORCA-job run
  C   -0.86336955927347     -0.03711500710817     -0.31223296472603
  C   0.57995480973705     -0.51451422554171     -0.15233685448092
  F   -1.12016264492416     -0.04349804348471     -1.68052078590581
  H   0.58008384996284     -1.55297276737215     -0.49356513505867
  N   -1.72644108287023     -0.81726349952591      0.44953747061812
  H   -2.66143713471601     -0.44146259677792      0.51520092069553
  H   -1.71953210838807     -1.78721128646498      0.16793013564447
  N   -1.07117927970228      1.43200808207947      0.07048804949277
  O   -0.38732003625940      2.23654778136742     -0.54700782303577
  O   -1.93052281397182      1.69082133527835      0.90326633216371
  N   0.86747215594223     -0.58488260326455      1.31439691936960
  O   1.12430516431102     -1.68742226386735      1.78890938326568
  O   0.83481196062956      0.48071035809324      1.92350672446900
  C   1.67083457804155      0.26952976343626     -0.85463569225022
  H   1.41469500048982      0.39499785428341     -1.90616660092036
  H   2.60604617372540     -0.28985098183887     -0.78233161268281
  H   1.80076096726597      1.25057810070816     -0.40543846665829
