17
Coordinates from ORCA-job run
  C   -0.86585392952021     -0.07663389425408     -0.37048108109510
  C   0.58202403236097     -0.51296647554329     -0.11419758992827
  F   -1.05706261942838     -0.23595368080736     -1.72840537294202
  H   0.65832959569945     -1.50393227704000     -0.56811111235302
  N   -1.82415862832110     -0.70253507105711      0.41581799102149
  H   -1.60800609872117     -1.66012468237968      0.64820743080213
  H   -2.75969379454073     -0.58729900311965      0.05138942583305
  N   -0.97902993377042      1.43922461992179     -0.12928248343193
  O   -1.33223926153882      2.15307872040837     -1.05796473889433
  O   -0.68305804542236      1.78813071393887      1.00603496152586
  N   0.83558785572949     -0.76598917267809      1.34810375421780
  O   1.51886837050900      0.03427382470236      1.97372665743351
  O   0.34722395220237     -1.80347390936858      1.79674479308135
  C   1.59992332011844      0.43689978833838     -0.70570606654089
  H   1.36445668532937      0.60876145941538     -1.75697180520562
  H   1.60503673611182      1.38563146753453     -0.17177692498708
  H   2.59765176320225      0.00290757198818     -0.63612783853694
