17
Coordinates from ORCA-job run
  C   -0.72882349172847      0.28155151860134     -0.26807838023512
  C   0.58892179381463     -0.34966688442748      0.17699176234077
  F   -0.51880253024770      1.44585662441074     -0.91517120341777
  H   0.35681400000691     -1.26053889194910      0.73135096579312
  N   -1.45613904039434     -0.59184050216189     -1.10514261629729
  H   -1.81286069691005     -1.37558458755594     -0.57310884831141
  H   -2.22625939193312     -0.09508479654632     -1.53825446146403
  N   -1.52302913597936      0.64083363078662      1.01971362762538
  O   -1.57894239627552      1.81136339935899      1.36490404261338
  O   -2.01807419462504     -0.32877077845186      1.58700713682379
  N   1.22822038042332      0.56213214936322      1.18952191172090
  O   1.89788534625766      1.49772146112190      0.76313943125498
  O   1.01329462272054      0.30169315466576      2.37256316536617
  C   1.52289245367128     -0.58895213624202     -0.98921705096722
  H   1.05934715598966     -1.28729175635439     -1.68460746245941
  H   1.73190609354585      0.34722370615209     -1.50322152930497
  H   2.46364903166375     -1.00964531077167     -0.63039049108127
