17
Coordinates from ORCA-job run
  C   -0.88982579582883     -0.06069860130836      0.08373667278511
  C   0.53744442126186     -0.56497946135486     -0.08937134300544
  F   -1.61019070060154     -1.08542309910124      0.69915538169055
  H   0.50283787130759     -1.46510896291456     -0.69859715949646
  N   -1.00782284124472      1.17941349654882      0.69565015812483
  H   -1.97627640498921      1.45816123210323      0.78305378967827
  H   -0.52009706180769      1.19347855832817      1.58178231605275
  N   -1.57719313377721      0.04318969727371     -1.28405029693882
  O   -1.04456451543461     -0.50385789476756     -2.24377826847185
  O   -2.64940830262847      0.63433562925313     -1.28674117010170
  N   1.02997157080681     -1.03019022972321      1.25256904155327
  O   1.45270615968710     -2.17849832366337      1.32306703928750
  O   1.01552950663333     -0.21394218089418      2.17433193711238
  C   1.50517783569729      0.46311474598460     -0.63979139405854
  H   2.49975171937814      0.02068593142213     -0.72434212271633
  H   1.54885296556971      1.33735240870833      0.00765507681300
  H   1.18210670597046      0.77296705410521     -1.63332965830850
