17
Coordinates from ORCA-job run
  C   -0.76197747788931      0.39873956855393     -0.16977726425510
  C   0.53552771551683     -0.31764137483329      0.23584237752018
  F   -0.43603921842929      1.59987686454946     -0.69739105488719
  H   0.26854595824882     -1.15921629743617      0.87722337110270
  N   -1.62663450777440     -0.27535075555162     -1.06671693433723
  H   -1.96597243737364     -1.14380673279037     -0.67660168195612
  H   -1.18494589469577     -0.42031219954749     -1.96420545059747
  N   -1.59587765915664      0.63859542711206      1.09042581684460
  O   -2.02979108036110     -0.38757762360530      1.60349573655259
  O   -1.76549362657120      1.78732627461090      1.45891969800913
  N   1.31363080245176      0.61953844973135      1.12237580286046
  O   2.25394701308753      1.23328342635307      0.62888634172990
  O   0.91387994373807      0.71218015325044      2.28153162024321
  C   1.36070327474457     -0.73665203264539     -0.96138998951374
  H   0.85522076336681     -1.54144078559158     -1.49727813997777
  H   1.53257543092645      0.10494058804492     -1.63150071012293
  H   2.33070100017052     -1.11048295020494     -0.63383953921524
