17
Coordinates from ORCA-job run
  C   -0.74920838329420      0.21587617200876     -0.27146982773736
  C   0.61356403742626     -0.29780896280576      0.18921416408585
  F   -0.62523796796539      1.34876880629448     -0.99270222352865
  H   0.44995247058747     -1.18302406064389      0.80612694576184
  N   -1.42765301990408     -0.75386022388256     -1.04058030100316
  H   -2.23647489507075     -0.33719308339060     -1.48745469893632
  H   -1.72227173348621     -1.52558746918348     -0.45556387115131
  N   -1.54943734595616      0.60270007687472      1.00468625564440
  O   -1.97141817493310     -0.35974775352060      1.63932068143980
  O   -1.67894174070964      1.78640847927778      1.27751532733081
  N   1.20547096532608      0.71948067327546      1.12775170764083
  O   1.81204477415105      1.66197391625798      0.62844213053036
  O   1.01768857772029      0.52956827157687      2.32862247398020
  C   1.54406778051719     -0.55328323916524     -0.97627652321708
  H   1.68203509845036      0.35734048901526     -1.55594786741282
  H   2.51634084468561     -0.88510217123111     -0.60834702333273
  H   1.11847871245523     -1.32650992075809     -1.61433735009465
