17
Coordinates from ORCA-job run
  C   -0.85923594932508     -0.04877545224772     -0.32135819154400
  C   0.58946098638905     -0.50566112788957     -0.14990341436925
  F   -1.10296356727475     -0.05076870292938     -1.69224258665583
  H   0.60949192966004     -1.54204372046262     -0.49662879529897
  N   -1.71817429148660     -0.84398309321035      0.42805139640571
  H   -1.68669989295573     -1.81533581325825      0.15361821371828
  H   -2.66133601852046     -0.48763165095856      0.48197056208215
  N   -1.09042436363392      1.41590126690726      0.06734901551046
  O   -1.95132356143640      1.65756298301761      0.90368625780229
  O   -0.42005021836937      2.23352537881007     -0.54794134556529
  N   0.86271338796207     -0.58029224157328      1.31938160382054
  O   0.82030063355476      0.48272889063324      1.93246722970782
  O   1.11509186565762     -1.68447500289495      1.79284869268008
  C   1.67273288089976      0.30101176203500     -0.83825278880889
  H   1.78466065983455      1.27948839407518     -0.37861903351549
  H   2.61604474015952     -0.24446319430175     -0.76558163747063
  H   1.42071077888492      0.43321132424807     -1.88984517849897
