17
Coordinates from ORCA-job run
  C   -0.76164699251752      0.26871523454736     -0.09193603679585
  C   0.61417410902842     -0.27601615134750      0.27727635716577
  F   -0.60732081696505      1.53245450563400     -0.61007128640972
  H   0.47294642833265     -1.04627775223391      1.03661272662157
  N   -1.47112406642011     -0.60109704287298     -0.94082582264994
  H   -1.00300974762324     -0.69531891101475     -1.83271144582714
  H   -2.41048891251945     -0.25230865689343     -1.09761822247143
  N   -1.64520771211513      0.41554814131536      1.15425611849692
  O   -1.59194797189747     -0.49958776669255      1.96226593970922
  O   -2.37900424131083      1.39273954204304      1.18699975954171
  N   1.35867190558284      0.83873658979404      0.97663554945769
  O   2.48999432747966      1.11463608392551      0.59350674802899
  O   0.76287102031542      1.37743069029449      1.90432635847379
  C   1.39219603374175     -0.79159933482828     -0.91358297237321
  H   0.90968325252920     -1.68916598015254     -1.30266774805256
  H   2.40288633645256     -1.05666904895874     -0.60977267373371
  H   1.46632704790629     -0.03422014255911     -1.69569334918210
