17
Coordinates from ORCA-job run
  C   -0.78926370392290      0.33684547363907     -0.18047564769782
  C   0.55882747415979     -0.26770607619160      0.24158970493198
  F   -0.55150298763481      1.51749795931212     -0.79398094194241
  H   0.35743641689158     -1.08316909310623      0.93817083965467
  N   -1.62636272814708     -0.45008997967029     -1.00875079281844
  H   -1.18973739674524     -0.63933861674448     -1.90043420025489
  H   -1.91136813482269     -1.30306791639839     -0.54751582614917
  N   -1.61058870103775      0.60937045951658      1.08156440651439
  O   -1.83636258139017      1.76831860620048      1.38218881686737
  O   -1.97515683824671     -0.40407693130864      1.66865411619344
  N   1.28890345451509      0.77015751073531      1.05293072708551
  O   2.16750948892954      1.42251643067073      0.49867567388631
  O   0.91678671504220      0.89639885070793      2.21828303207083
  C   1.38957211124194     -0.70590788455767     -0.94513926270849
  H   1.48772330440636      0.09932993581221     -1.67229096361962
  H   0.93350863715822     -1.57846795719554     -1.41537270542796
  H   2.39007546960262     -0.98761077142159     -0.61709697658569
