17
Coordinates from ORCA-job run
  C   -0.88921675097919      0.00149047479509     -0.10516401373876
  C   0.54886976742883     -0.43526581264486     -0.35528868485314
  F   -1.70346025234509     -1.09006685084993     -0.41119638124863
  H   0.63238984093233     -0.73063861854792     -1.39856673621370
  N   -1.12556222657363      0.57100472531441      1.13770913197849
  H   -2.09478105578217      0.83939068022019      1.24521569553248
  H   -0.80543233464256     -0.03410559103828      1.88230189975155
  N   -1.31517580180830      1.02980456894998     -1.16175910297574
  O   -0.60990284975049      1.16732181917061     -2.15552834932925
  O   -2.37516524785571      1.60020529598675     -0.93728438431799
  N   0.78757071039957     -1.70051674120332      0.42109554569075
  O   1.18474473653557     -2.67434267487563     -0.20843737285310
  O   0.61004359736237     -1.65815623432996      1.63886345030249
  C   1.59458853871310      0.58886878121654      0.03659810056826
  H   1.46004857172776      1.49244527517026     -0.55751549428383
  H   2.59082964811972      0.19018406861528     -0.16507645942831
  H   1.51061110851789      0.84237683405078      1.09203315541844
