17
Coordinates from ORCA-job run
  C   -0.86175701540958     -0.03895642118121     -0.31647971546095
  C   0.58195690667054     -0.51297705222158     -0.15052948760881
  F   -1.11244367715588     -0.04386656924003     -1.68603786460753
  H   0.58663581345466     -1.55121440050894     -0.49237394350028
  N   -1.72650289295262     -0.82171442676302      0.44034278658142
  H   -2.66326344929097     -0.44957909272404      0.50110781139888
  H   -1.71416351556957     -1.79203771191565      0.16035224101339
  N   -1.07415572440067      1.42954241663808      0.06736129630368
  O   -1.93429640393375      1.68523760671911      0.90024174851374
  O   -0.39184625405916      2.23618210855923     -0.54920402792615
  N   0.86254712632307     -0.58406469442927      1.31792510492279
  O   0.82863064037946      0.48152333750753      1.92697472390805
  O   1.11367438074190     -1.68752786877104      1.79336159478738
  C   1.67369442303779      0.27479029096005     -0.84708797552137
  H   1.79850349990032      1.25591045151177     -0.39656279130483
  H   1.42244258427444      0.40039294153740     -1.89976626878205
  H   2.61034355799002     -0.28164091567839     -0.77062523271737
