12

C	0.0	0.0	0.0
C	-0.573979	-0.196748	-1.406357
Cl	1.782616	0.0	0.0
H	-1.480583	-0.799993	-1.314248
H	-0.338289	0.952686	0.405124
H	0.165027	-0.732777	-2.009084
C	-0.379461	-1.085045	0.912859
N	-0.573018	-1.966083	1.66411
N	-0.837318	1.119873	-1.984291
H	-0.931711	1.020412	-2.988633
H	-1.758722	1.381351	-1.633086
Br	-3.641784	0.0	0.0
