12

C	0.0	0.0	0.0
C	-0.553841	-0.161026	-1.405836
Cl	1.792612	0.0	0.0
H	-1.640296	-0.09581	-1.283591
H	-0.331941	0.946399	0.429795
H	-0.216627	0.703088	-1.994736
C	-0.398716	-1.100121	0.881023
N	-0.637553	-2.002198	1.591987
N	-0.178962	-1.447173	-1.968836
H	0.615685	-1.365741	-2.586988
H	-0.958243	-1.83828	-2.47853
Br	-3.816552	0.0	0.0
