12

C	0.0	0.0	0.0
C	-0.479997	0.440832	-1.413499
Cl	1.789348	0.0	0.0
H	0.186823	-0.052109	-2.127573
H	-0.349187	0.673244	0.782627
H	-0.284242	1.515854	-1.48355
C	-0.426286	-1.365161	0.300896
N	-0.69062	-2.484596	0.538229
N	-1.835144	0.157926	-1.773467
H	-2.54413	0.532638	-1.144797
H	-2.013161	-0.836834	-1.813776
Br	-4.673334	0.0	0.0
