12

C	0.0	0.0	0.0
C	-0.496924	-0.026429	-1.454859
Cl	1.790539	0.0	0.0
H	-1.552181	-0.299887	-1.419337
H	-0.354283	0.894773	0.51108
H	0.06692	-0.797999	-1.9868
C	-0.397611	-1.191121	0.753237
N	-0.603125	-2.161469	1.381604
N	-0.375765	1.241931	-2.149059
H	-1.087469	1.86853	-1.79131
H	0.535321	1.655063	-1.988336
Br	-3.624975	0.0	0.0
