12

C	0.0	0.0	0.0
C	-0.465622	-0.179571	-1.456051
Cl	1.789995	0.0	0.0
H	0.071056	-1.039281	-1.868709
H	-0.359457	0.942438	0.411367
H	-1.533377	-0.396962	-1.418776
C	-0.402235	-1.116399	0.855924
N	-0.578431	-2.055974	1.538056
N	-0.252746	0.981555	-2.300365
H	-0.925782	1.693959	-2.044111
H	0.680302	1.353561	-2.169032
Br	-3.582514	0.0	0.0
