13
Coordinates from ORCA-job run
  C   0.96683093689784     -0.00277913386218     -0.31696590671614
  C   -0.53211787872786     -0.13368317087334     -0.62968332368291
  Br  1.89137351777828     -1.67583896659038     -0.74501353863357
  H   -0.67233617026473     -0.62489057100239     -1.59339144500373
  H   1.37554878499739      0.70481527035921     -1.04810012440152
  N   1.16878347211407      0.31216493728122      1.06074878978005
  H   0.54276048606993      1.04090128210176      1.38332673241784
  H   2.12835522326890      0.57540686769997      1.23951042225205
  C   -1.15103270129674      1.18879896966120     -0.62760457856782
  N   -1.60871855540042      2.26978019882580     -0.66985769539662
  N   -1.21412114592441     -1.00541019935719      0.40047967070849
  O   -1.28124408811630     -2.19745009098270      0.13003907247078
  O   -1.61408188139593     -0.45081539326098      1.41751192477311
