13
Coordinates from ORCA-job run
  C   0.97778286047534     -0.03289775627490     -0.24875297782991
  C   -0.49771098471554     -0.10826014871328     -0.64970692524867
  Br  1.60416649410144     -1.95580416605279     -0.13021686117912
  H   -0.59902048529196     -0.65307542613939     -1.58899903013570
  H   1.53321534767410      0.33854416766880     -1.11017695042189
  N   1.21851969226942      0.76960088315182      0.86925261276522
  H   0.73628984336035      0.45674302720030      1.70028997166735
  H   2.20279706008984      0.91179320998644      1.04422185075914
  C   -1.07908979314041      1.22688962808941     -0.76469536822530
  N   -1.54853177268873      2.29485261651232     -0.89850026941790
  N   -1.31553165877966     -0.89639214373022      0.35169825668060
  O   -2.01483943163325     -1.79287921365025     -0.09900771623440
  O   -1.21804717172094     -0.56011467804826      1.52759340682058
