13
Coordinates from ORCA-job run
  C   0.89787491073446      0.42259565300029     -0.03951685898566
  C   -0.47411948785071     -0.06961085306913     -0.55432860725175
  Br  1.93459396566537      0.86556098237096     -1.64263532350605
  H   -0.35070084431065     -0.93462176938480     -1.20853291852364
  H   0.75133359675356      1.35772144995925      0.50153511270189
  N   1.59696119221532     -0.49574507993164      0.78245480302802
  H   1.60443141477992     -1.44376865789838      0.43277250237881
  H   1.30544820520357     -0.45677114102438      1.74862907110394
  C   -1.25196934175000      0.97621268066961     -1.20271240567972
  N   -1.87629089293608      1.82622379999130     -1.71940078254300
  N   -1.22152881820576     -0.56197657253636      0.66148346599559
  O   -1.40410364798365     -1.77179751040554      0.74302023865187
  O   -1.51293025231535      0.28597701825882      1.49823170262971
