13
Coordinates from ORCA-job run
  C   0.74705915619474      0.51608646910234      0.03106206646813
  C   -0.39322796411423     -0.34456974501633     -0.51585755194019
  Br  2.07531253203801      0.68083201896206     -1.45792585693669
  H   -0.03761014426282     -1.34557902635408     -0.76871707206038
  H   0.39131016794352      1.53183478986681      0.19697423860308
  N   1.23580129122119     -0.03873087049021      1.22784131116997
  H   1.85518657935005      0.58938900723699      1.72054555586358
  H   1.68860161132081     -0.93425811854199      1.09527511673361
  C   -1.07507321900674      0.26511963211196     -1.64956846370252
  N   -1.64061134311060      0.74838276967504     -2.55803355992204
  N   -1.38685856071184     -0.51863357274147      0.61566329972058
  O   -1.50862271474393     -1.64994629270354      1.06617878398909
  O   -1.95126739211815      0.49907293889244      0.99456213201379
