13
Coordinates from ORCA-job run
  C   0.79286697593399      0.43890766541560      0.06735429974413
  C   -0.47301907148571     -0.17452204743175     -0.53328506749307
  Br  1.97850793468276      0.88203898010016     -1.48425611638755
  H   -0.24205264953440     -1.10131240081159     -1.06268330074324
  H   0.55539178340694      1.40189071172041      0.51683626905178
  N   1.34070454940120     -0.43289078891351      1.02582487878780
  H   1.68851152038401     -1.29530335901968      0.62601088876067
  H   2.06464272478043      0.00538412533855      1.57797978183786
  C   -1.20065378880471      0.74755481409967     -1.39496512245623
  N   -1.80341579339440      1.48295664009277     -2.08384802743946
  N   -1.36382118181055     -0.56046817886817      0.63101481666563
  O   -1.54954838504646     -1.75777890408405      0.80305487557408
  O   -1.78811461851310      0.36454274236159      1.31096182409761
