13
Coordinates from ORCA-job run
  C   0.93119226057536     -0.25472179643192     -0.05261046678337
  C   -0.56321066803798      0.07075848481562     -0.27561216212999
  Br  1.08581486714019     -1.32862210636445      1.56536281351304
  H   -0.64954404605334      0.57369611363428     -1.24496431287547
  H   1.25225607948112     -0.89239036241814     -0.87678155731979
  N   1.78051315391351      0.88627314512135      0.04077552250566
  H   1.89025927760977      1.35172790898073     -0.85085917167593
  H   1.48325685415770      1.53919555847182      0.75488739795122
  C   -1.10389411523910      0.92128236203749      0.77372828595174
  N   -1.47065683777959      1.67040155026155      1.60041731168842
  N   -1.36350692224792     -1.20179632805070     -0.43001857264412
  O   -0.99489776676110     -1.91381659230221     -1.35831041828745
  O   -2.27658213675861     -1.42198793775543      0.35298533010604
