13
Coordinates from ORCA-job run
  C   0.92055962618143      0.00945895213028     -0.41445078820499
  C   -0.60283277360338     -0.00750636068262     -0.56420020353920
  Br  1.51234154964181     -1.90724124672474     -0.70016079366089
  H   -0.87440527813559     -0.39998232563471     -1.54480999221341
  H   1.33104141108502      0.51021537591212     -1.29140959367713
  N   1.36576477830120      0.62995726605556      0.75527880328454
  H   1.02240193409282      0.19144831499640      1.59838227035827
  H   2.36874008414904      0.74446570956301      0.78013173699572
  C   -1.16404743766810      1.32734140949523     -0.37146107396517
  N   -1.62461796783645      2.40142747503582     -0.25710938694462
  N   -1.25739287489311     -0.94420875645740      0.42931945779308
  O   -0.95536787162620     -0.79279446899328      1.60883914866444
  O   -2.04218517968850     -1.76358134469567     -0.02734958489064
