13
Coordinates from ORCA-job run
  C   0.81927657414643      0.38518843840440      0.07812616811497
  C   -0.50073621944048     -0.09469495101475     -0.52758327190634
  Br  1.97714264625215      0.90862823352194     -1.46931725682699
  H   -0.34351497958020     -0.97877447934160     -1.14913278641015
  H   0.65556641187622      1.31208840515546      0.62571518735421
  N   1.34501920964335     -0.60517878496258      0.92750164149171
  H   1.62387974056262     -1.44422399562036      0.43473454135167
  H   2.11375807436327     -0.26548261049351      1.48837491209231
  C   -1.19947246515172      0.94413879422240     -1.27252904128550
  N   -1.77818156837574      1.77211340913494     -1.87091874961996
  N   -1.37318655677961     -0.53845023236899      0.62974370481536
  O   -1.72194124573745      0.34106866758124      1.40606828443256
  O   -1.61760962177883     -1.73542089421859      0.70121666639617
