13
Coordinates from ORCA-job run
  C   1.03004698036944     -0.08055729451726     -0.25874192878645
  C   -0.47160698075162     -0.13537421361144     -0.64790813017317
  Br  1.67861789443641     -1.93467201460437     -0.28924891262035
  H   -0.59642679240110     -0.58782969103812     -1.63286310489553
  H   1.53876011875777      0.41185788854526     -1.08996001059251
  N   1.37998033201169      0.56420929922164      0.95165103746497
  H   1.42212061316362      1.56886153913919      0.84883397657847
  H   0.77928032692267      0.30296045382108      1.72082949541576
  C   -1.02403335516956      1.21396029330802     -0.61356189771902
  N   -1.40435724973302      2.32499725827843     -0.59376279917109
  N   -1.25679832162697     -1.00511386046743      0.30147250691788
  O   -1.84513297571405     -1.96191290465483     -0.18468114696087
  O   -1.23045059026530     -0.68238675342017      1.48594091454192
