13
Coordinates from ORCA-job run
  C   0.73963956085304      0.52738856390726      0.02136940477549
  C   -0.37551931069823     -0.37738804887499     -0.50518977584190
  Br  2.10308812395796      0.62812383020868     -1.44168426808038
  H   -0.00153442503917     -1.38610023589365     -0.69262186555489
  H   0.36773943412860      1.54587288988710      0.12216516346911
  N   1.20472347947202      0.04571119404129      1.25843348096266
  H   1.80576351792139      0.70710146788496      1.72983486584669
  H   1.66998029135944     -0.85040115251296      1.18670703778667
  C   -1.03557574993819      0.15946668720713     -1.68769472795583
  N   -1.58398624822105      0.58476052029363     -2.63479207235771
  N   -1.39594514598535     -0.50222631582745      0.60904953062963
  O   -1.98173835910715      0.52721512985822      0.91708156311344
  O   -1.51563516870331     -1.60852453017922      1.11834166320703
