13
Coordinates from ORCA-job run
  C   0.94262742304955     -0.20672278247961     -0.06552453136534
  C   -0.56645125116177      0.05467413998532     -0.27191729693667
  Br  1.15621392449306     -1.33910078060324      1.50444515122807
  H   -0.68105012720522      0.59515520917628     -1.21787147882053
  H   1.29185485153824     -0.79231353529087     -0.91637875487085
  N   1.73591492133116      0.96992580223552      0.07606319133219
  H   1.41185221517711      1.57135643255416      0.82323595459037
  H   1.80839177828233      1.48374868708306     -0.79291477077379
  C   -1.14385023716268      0.83100127328942      0.81484574829382
  N   -1.54244065125293      1.52459176359513      1.67459775793498
  N   -1.30460870141659     -1.24723179245041     -0.48082361154025
  O   -0.90288872936093     -1.90094623198419     -1.43778540131598
  O   -2.20656541631132     -1.54313818511057      0.29002804224398
