13
Coordinates from ORCA-job run
  C   0.96080286965440     -0.13094173848359     -0.44112154100187
  C   -0.58419767224838     -0.03610087082509     -0.56543560681606
  Br  1.42889372544849     -2.01419057644841     -0.73641335634665
  H   -0.91227074290421     -0.38113442451661     -1.54715973500633
  H   1.36521708340216      0.40248505556933     -1.30370599131317
  N   1.56429597919983      0.36532679856573      0.73981496731220
  H   1.08412095765726      0.06580651940758      1.57704447625962
  H   1.66200329575722      1.37137668035023      0.72046248294899
  C   -0.99801481188153      1.34140349841716     -0.32474800822520
  N   -1.26557312927926      2.47158525020890     -0.14897978970169
  N   -1.27245580942471     -0.93272368999255      0.43246789195077
  O   -1.03048894884330     -0.71757147669170      1.61708165969742
  O   -2.00133279653797     -1.80532102556098     -0.02030744975805
