13
Coordinates from ORCA-job run
  C   0.88781291805327     -0.14783790443499      0.07823912384013
  C   -0.54269200523277     -0.02248683422173     -0.44629571305723
  Br  0.80190910749984     -0.84386480182652      1.94903261365488
  H   -0.47470746603503      0.22525061737762     -1.51043964477417
  H   1.38941500509017     -0.93737799104602     -0.47859868585147
  N   1.55428334763736      1.08576886372505     -0.08190726008484
  H   2.54768669167375      0.99937141487728      0.08568282381706
  H   1.17701788945156      1.80954621318481      0.51870665154246
  C   -1.29902108692406      1.00304966665938      0.25740599615280
  N   -1.83837728209343      1.89234000254502      0.80257614985547
  N   -1.24118816964021     -1.36254550285466     -0.39129247142008
  O   -2.31008336145490     -1.44025136803426      0.19710482452930
  O   -0.65205558802558     -2.26196237595099     -0.97921440820431
