13
Coordinates from ORCA-job run
  C   0.88132998856128      0.44403409496563     -0.11518068475947
  C   -0.37451042071500     -0.36459408731649     -0.51199839538843
  Br  2.15472312829611      0.19322695547306     -1.58360354250937
  H   -0.12430853871596     -1.41735493290382     -0.65564652670430
  H   0.62504116917785      1.50363372475991     -0.10610904903601
  N   1.46112232338874      0.08581621041972      1.12737595460617
  H   1.01066497436311      0.53343653162081      1.91286503003247
  H   1.55313471567203     -0.91057278983688      1.26884981923087
  C   -1.06218305645253      0.17808942527045     -1.67479275671937
  N   -1.61481733831167      0.62522867571387     -2.60963745574743
  N   -1.29994917356014     -0.30994188582828      0.67974323285315
  O   -1.46777110439562     -1.35694850334845      1.29557983732254
  O   -1.74347666730820      0.79594658101047      0.97055453681919
