13
Coordinates from ORCA-job run
  C   0.77567504627500      0.39415909177237      0.26107912017188
  C   -0.46878120162668      0.05844882663518     -0.56300096987313
  Br  1.93808542822103      1.50793516615814     -0.92838380570537
  H   -0.20517757806228     -0.53533952626371     -1.44078459577070
  H   0.50345249700902      1.05715323142566      1.08070191560344
  N   1.35925429146212     -0.78722523549642      0.75360993379667
  H   2.06844930419073     -0.60593576310993      1.45038096473528
  H   1.73852122464038     -1.37719994029070      0.02399078719434
  C   -1.23404133313064      1.23789052180228     -0.94440370797845
  N   -1.86657071231645      2.17926148007062     -1.24823005654337
  N   -1.33827527864142     -0.82957802896227      0.30463575768250
  O   -1.79391616751003     -0.31148177870855      1.31549838010650
  O   -1.47567552051077     -1.98808804503267     -0.06509372341958
