13
Coordinates from ORCA-job run
  C   0.90865998773218      0.29192543171369     -0.27368514300753
  C   -0.44299072988783     -0.45203862730647     -0.36967853154628
  Br  2.04774292068259     -0.50480165172671     -1.65509481528470
  H   -0.30411003669608     -1.52333225379781     -0.21336379076098
  H   0.75470288613093      1.33195092352135     -0.56225319220997
  N   1.53679913485554      0.24032788094859      0.99554059061812
  H   1.18538468652611      0.93916884786696      1.63465051095583
  H   1.54513259870783     -0.67870585558537      1.41554696419898
  C   -1.15537229998654     -0.18692000310355     -1.61129737138027
  N   -1.72679550992608      0.03639127186220     -2.61273240849633
  N   -1.27142460119378      0.04077262982083      0.79207883477322
  O   -1.48476481856918     -0.76079303819521      1.69523328735933
  O   -1.59296421837568      1.22405444398149      0.76505506478058
