13
Coordinates from ORCA-job run
  C   0.94506164076856     -0.18504555193148     -0.08537689508586
  C   -0.57528303349317      0.03411682730019     -0.25698784654430
  Br  1.22783917137336     -1.27395263001699      1.50520913411713
  H   -0.72782976008618      0.54729590515081     -1.21273730679223
  H   1.28583752078363     -0.78270161346570     -0.93132118285202
  N   1.71193934273657      1.01323724211930      0.00576538581002
  H   1.38928940929292      1.63004508002949      0.74070619578799
  H   1.75929633613247      1.50087544710824     -0.87953721587387
  C   -1.14289362534197      0.82397798079252      0.82509412883704
  N   -1.53697202589437      1.52988469854119      1.67683827227926
  N   -1.28549388531354     -1.29031574434107     -0.41302166950554
  O   -2.15532658629310     -1.59052869068631      0.39235320915437
  O   -0.89546450466518     -1.95688895060019     -1.36598420933198
