13
Coordinates from ORCA-job run
  C   0.97949485562389     -0.10523457288115     -0.25823452953347
  C   -0.50500444747353     -0.10428560584902     -0.65564868285922
  Br  1.75945214331501     -1.87333402554553     -0.58122040115403
  H   -0.63631856935833     -0.61102321425213     -1.61249440569467
  H   1.49506888392107      0.53348118076060     -0.98516215611318
  N   1.13394901870659      0.23829373253869      1.11851907939220
  H   2.10155176666655      0.42544990387072      1.34354152159138
  H   0.55585692024492      1.02666293089082      1.38518176433224
  C   -0.99347251168329      1.26996192367460     -0.72657788593053
  N   -1.34625746188707      2.38558083965941     -0.82974079706104
  N   -1.32499434754618     -0.87333927799610      0.35538706754777
  O   -1.72284468165475     -0.25133624938783      1.33353793216506
  O   -1.49548156887488     -2.06087756548308      0.11191149331748
