13
Coordinates from ORCA-job run
  C   0.77212098452655      0.44043797482624      0.18733011699363
  C   -0.45945431925911     -0.05933327855774     -0.56958241344092
  Br  1.95428249949846      1.29180631212996     -1.18551901531700
  H   -0.18313326820243     -0.82166244884214     -1.30104582312945
  H   0.48792527161265      1.25582614732888      0.85088655035860
  N   1.34655680954616     -0.61536037712924      0.91903800876779
  H   1.73702073171206     -1.33984506502239      0.32959111450283
  H   2.04556236697026     -0.29445798788131      1.57443799547169
  C   -1.21692526616200      1.01367096950213     -1.19969848699134
  N   -1.84311189043460      1.86963162451193     -1.70354305512523
  N   -1.34524650335220     -0.74887386098072      0.44932442135797
  O   -1.81599155149786     -0.03207362413192      1.32250074211718
  O   -1.48060586495792     -1.95876638575367      0.32527984443426
