13
Coordinates from ORCA-job run
  C   0.88581081126047     -0.11241551304573     -0.13809582492532
  C   -0.62656241460689      0.01737396822558     -0.31792865573883
  Br  1.22439390808862     -1.08461871645608      1.57470630124503
  H   -0.79796089660752      0.42497134455728     -1.31940732406840
  H   1.26648069643082     -0.78335771102339     -0.90614141208562
  N   1.48030221827836      1.16340200590971     -0.24058463666829
  H   2.48760162181160      1.10269207084094     -0.30397171311156
  H   1.23188334717901      1.76844414846996      0.53354578415891
  C   -1.22782547834298      0.88634627573667      0.68334269732366
  N   -1.65027745298929      1.65541322725803      1.46368734078040
  N   -1.27367765885459     -1.34933782237989     -0.32596322977068
  O   -0.81290042602734     -2.11997990233483     -1.15993917289466
  O   -2.18626827562025     -1.56793337575825      0.45774984575536
