13
Coordinates from ORCA-job run
  C   0.87043768329312     -0.23673094290679      0.04829778672720
  C   -0.56468189454276      0.00543059140410     -0.41906329926345
  Br  0.81141198436521     -0.78921547492955      1.96780438494122
  H   -0.52784167357305      0.17012734657579     -1.50072448194310
  H   1.25724366277695     -1.11229611235861     -0.47011168080546
  N   1.65262149859033      0.90396790424734     -0.23221363560150
  H   2.63881456196482      0.72250064258041     -0.10220344953446
  H   1.38481100850144      1.70357747971516      0.32989042651872
  C   -1.17190011807258      1.15292374694308      0.23944240233816
  N   -1.58663785799914      2.13064890592464      0.74041538546821
  N   -1.39553519656909     -1.24426496202398     -0.23285213646951
  O   -0.93526808845817     -2.24088239867607     -0.77744655144182
  O   -2.43447557027708     -1.16478672649554      0.40676484906579
