13
Coordinates from ORCA-job run
  C   0.93552132933677     -0.24130069071403      0.03798549495593
  C   -0.54551477222182      0.02321053262109     -0.31635782747589
  Br  1.00042727968504     -1.09250072487303      1.78901354002456
  H   -0.57632807033652      0.39411720707225     -1.34665948385132
  H   1.31519647861684     -0.97441860792524     -0.67429488216248
  N   1.76443511605094      0.91864346411358      0.03286760435317
  H   1.41476798816771      1.65229137910153      0.63638899888869
  H   1.92216698201934      1.26706987123952     -0.90392424366358
  C   -1.16040628242750      0.99252779782032      0.57766889740933
  N   -1.58658141010431      1.83621967060510      1.27455339299142
  N   -1.31994911259265     -1.27376267301896     -0.35084711834582
  O   -2.27791125485291     -1.40779006969072      0.39725816753004
  O   -0.88582427134094     -2.09330715635140     -1.15365254065405
