13
Coordinates from ORCA-job run
  C   1.02633752800933     -0.08594604500714     -0.27141376251883
  C   -0.48035584678898     -0.12583170745954     -0.64490392301342
  Br  1.66211647698751     -1.94263237663544     -0.32290582964876
  H   -0.61968567948008     -0.56968278925516     -1.63183911052994
  H   1.52968433698679      0.41134678501486     -1.10295601689460
  N   1.39425165845267      0.54514230403000      0.94168776795321
  H   0.80459774869650      0.27248889768415      1.71581720830538
  H   1.42522543632805      1.55147883211322      0.84958740914427
  C   -1.01974319471752      1.22815784800794     -0.59421473973742
  N   -1.38784151019636      2.34318764435637     -0.56290169101328
  N   -1.26027227994386     -0.99662215039284      0.30726146303777
  O   -1.84456127724708     -1.95734317177421     -0.17572045352309
  O   -1.23075339708698     -0.67274407068222      1.49150167843870
