13
Coordinates from ORCA-job run
  C   0.97952772988231     -0.09646566146902     -0.27454534757688
  C   -0.50955940710710     -0.10069025071490     -0.65059160714096
  Br  1.75718820262192     -1.86539419545540     -0.62891452344712
  H   -0.65124757946350     -0.59431977850680     -1.61260448041865
  H   1.48214552058489      0.54537515827993     -1.00720295387129
  N   1.15900471216414      0.24301471749257      1.09700299917651
  H   2.11660748877279      0.49480291427540      1.29749007552732
  H   0.52677470279217      0.96899676682371      1.41029878129619
  C   -1.00915374068042      1.27076789649860     -0.69055060301588
  N   -1.35811104759127      2.39090786015309     -0.74839940783546
  N   -1.31233796983580     -0.89211908110555      0.35826768918699
  O   -1.67595834062276     -0.29483408938467      1.36511836326278
  O   -1.50588027151738     -2.06904225688695      0.08363101485645
