13
Coordinates from ORCA-job run
  C   1.02816491380672     -0.07355920835743     -0.26891879094513
  C   -0.47696249536723     -0.12355995337187     -0.64756455889862
  Br  1.68197005472998     -1.92314990165316     -0.33864492244367
  H   -0.60919554402569     -0.55806513316755     -1.63961627533111
  H   1.52894766765500      0.43756494209460     -1.09363045530081
  N   1.38597098226904      0.54802186861574      0.95210116847720
  H   0.79601057880714      0.26177707340468      1.72105589239871
  H   1.40827626700221      1.55550586176259      0.87096215692667
  C   -1.02935051054946      1.22460396897463     -0.58409677726646
  N   -1.40820167385852      2.33568461821813     -0.54217539322400
  N   -1.25165910464863     -1.01199324903262      0.29272834361616
  O   -1.82585016408126     -1.97242915868950     -0.20283283398368
  O   -1.22812097173927     -0.70140172879825      1.48063244597476
