13
Coordinates from ORCA-job run
  C   1.02102239200279     -0.06555378022257     -0.29523898708868
  C   -0.49301602342380     -0.12097096721701     -0.63694472359915
  Br  1.68528933491996     -1.90952891926016     -0.39956354291143
  H   -0.64751624305003     -0.54983074752108     -1.62824889783411
  H   1.49793743013138      0.45766176276052     -1.12651783626169
  N   1.40458689626631      0.54591357194583      0.92320864551412
  H   1.41666345843516      1.55437077814474      0.85221586093255
  H   0.83635692109345      0.24735552701192      1.70379079243493
  C   -1.04948370866715      1.22438164939751     -0.55221678637813
  N   -1.43176330151893      2.33370740507335     -0.49760508351564
  N   -1.23784015318205     -1.01910739983574      0.31734366099388
  O   -1.79885517538983     -1.99379019872119     -0.16594612977600
  O   -1.20238182761727     -0.70360868155612      1.50372302748936
