13

C	0.0	0.0	0.0
C	-0.166336	-0.040388	-1.542949
Br	1.970362	0.0	0.0
H	0.326462	-0.944796	-1.899963
H	0.373652	0.813524	-1.949977
C	-0.498458	1.22907	0.593686
N	-0.581528	2.30645	1.077253
C	-0.518082	-1.185285	0.660691
N	-0.597234	-2.231984	1.208844
N	-1.450676	-0.022418	-2.412659
O	-1.143974	-0.065348	-3.606052
O	-2.596239	0.034186	-1.997801
H	-1.824554	0.0	0.0
