13

C	0.0	0.0	0.0
C	-0.281963	-0.060688	-1.524425
Br	1.961848	0.0	0.0
H	0.127835	0.834246	-1.988884
H	-1.360765	-0.138074	-1.664735
C	-0.635721	1.228142	0.493713
N	-0.633108	2.349556	0.887571
C	-0.470061	-1.143152	0.786129
N	-0.560244	-2.067813	1.514958
N	0.323315	-1.217792	-2.226198
O	0.196457	-2.329321	-1.718932
O	0.836865	-0.993276	-3.324447
H	-2.10219	0.0	0.0
