13

C	0.0	0.0	0.0
C	-0.288429	-0.020629	-1.52392
Br	1.961831	0.0	0.0
H	0.094532	-0.943928	-1.952169
H	-1.366211	0.075322	-1.661923
C	-0.605945	1.10838	0.743242
N	-0.623704	2.04829	1.467124
C	-0.456394	-1.270976	0.567601
N	-0.540343	-2.337468	1.067823
N	0.346727	1.090956	-2.275389
O	0.839818	0.811726	-3.370784
O	0.253512	2.222846	-1.8073
H	-2.10724	0.0	0.0
