13

C	0.0	0.0	0.0
C	-0.282961	0.058703	-1.524237
Br	1.961217	0.0	0.0
H	0.118524	0.989748	-1.919759
H	-1.36115	-0.016597	-1.670153
C	-0.58553	1.204491	0.59552
N	-0.599137	2.283325	1.088698
C	-0.499998	-1.184885	0.700444
N	-0.564322	-2.156439	1.370321
N	0.334869	-1.037393	-2.308724
O	0.850577	-0.72843	-3.384866
O	0.21339	-2.183966	-1.885048
H	-2.105296	0.0	0.0
