13

C	0.0	0.0	0.0
C	-0.291221	0.067477	-1.522672
Br	1.961956	0.0	0.0
H	0.088437	1.004535	-1.925704
H	-1.369174	-0.025845	-1.661489
C	-0.45919	1.249268	0.60889
N	-0.547052	2.300068	1.141858
C	-0.620946	-1.127744	0.704086
N	-0.643382	-2.098195	1.384494
N	0.346256	-1.018998	-2.309039
O	0.254634	-2.163877	-1.873513
O	0.842119	-0.704842	-3.39239
H	-2.108027	0.0	0.0
