13

C	0.0	0.0	0.0
C	-0.305694	-0.08978	-1.521075
Br	1.960434	0.0	0.0
H	-1.383104	-0.234912	-1.624259
H	0.028568	0.826572	-2.00137
C	-0.429773	1.296465	0.512839
N	-0.66879	2.330742	1.029242
C	-0.540641	-1.098141	0.798816
N	-0.791033	-2.049617	1.449688
N	0.365951	-1.209159	-2.225636
O	0.437817	-2.296852	-1.657272
O	0.714753	-0.994111	-3.392985
H	-2.159107	0.0	0.0
