13

C	0.0	0.0	0.0
C	-0.349958	-0.008932	-1.522605
Br	1.959815	0.0	0.0
H	-1.242958	0.565272	-1.726484
H	0.509179	0.369921	-2.084283
C	-0.565702	1.232841	0.562111
N	-0.577934	2.331951	1.00802
C	-0.468682	-1.146473	0.769546
N	-0.533565	-2.105802	1.456565
N	-0.604814	-1.369141	-2.073195
O	-1.504755	-1.466585	-2.907765
O	0.137477	-2.281113	-1.718861
H	-2.039168	0.0	0.0
