13

C	0.0	0.0	0.0
C	-0.348983	0.046387	-1.521003
Br	1.95968	0.0	0.0
H	0.510423	0.446637	-2.068031
H	-1.241548	0.628007	-1.70741
C	-0.541491	1.221488	0.606975
N	-0.572498	2.297002	1.102374
C	-0.483097	-1.160828	0.738077
N	-0.536002	-2.134905	1.406075
N	-0.602345	-1.29243	-2.122642
O	-1.452875	-1.34132	-3.011039
O	0.095193	-2.233343	-1.755587
H	-2.042026	0.0	0.0
