18

C	0.0	0.0	0.0
C	-0.405635	0.036359	-1.487188
F	1.412769	0.0	0.0
H	-1.497605	0.009482	-1.468971
N	-0.468106	1.191729	0.659514
H	-1.493637	1.059832	0.551347
H	-0.26238	1.091484	1.651141
N	-0.461542	-1.251918	0.558148
H	-1.488114	-1.099859	0.494558
H	-0.218824	-1.254591	1.546415
N	0.093883	-1.134371	-2.220568
H	-0.259821	-1.945548	-1.721565
H	1.099715	-1.159173	-2.068138
C	0.091308	1.298369	-2.172257
H	-0.236841	1.291751	-3.215329
H	1.186254	1.337015	-2.155219
H	-0.285404	2.188602	-1.669486
F	-2.831813	0.0	0.0
