18

C	0.0	0.0	0.0
C	-0.314923	0.008755	-1.538706
F	1.43595	0.0	0.0
H	0.602488	0.439376	-1.955604
N	-0.416071	1.262095	0.56671
H	-1.441035	1.15509	0.562444
H	-0.110694	1.273911	1.537466
N	-0.473926	-1.179412	0.661534
H	-1.49592	-1.07163	0.532209
H	-0.30326	-1.054239	1.657019
N	-1.420043	0.839314	-2.001493
H	-2.225165	0.559253	-1.420116
H	-1.20198	1.790132	-1.720497
C	-0.479028	-1.399273	-2.089964
H	0.349273	-2.044711	-1.789595
H	-0.531894	-1.341458	-3.180634
H	-1.410315	-1.835025	-1.719517
F	-2.887165	0.0	0.0
