18

C	0.0	0.0	0.0
C	-0.312091	-0.183246	-1.538491
F	1.408772	0.0	0.0
H	0.607311	0.167991	-2.020539
N	-0.457645	1.295525	0.416621
H	-0.232197	1.356949	1.40623
H	-1.480571	1.188308	0.35677
N	-0.464601	-1.006582	0.914952
H	-1.488187	-0.905443	0.827468
H	-0.210418	-1.924459	0.567773
N	-1.415891	0.585249	-2.101162
H	-1.188727	1.563068	-1.951897
H	-2.219805	0.389257	-1.483165
C	-0.516613	-1.649242	-1.897144
H	-0.598877	-1.740268	-2.982739
H	-1.452074	-1.998993	-1.451121
H	0.31267	-2.278881	-1.55512
F	-2.899018	0.0	0.0
