13

C	0.0	0.0	0.0
C	-0.553263	0.011051	-1.401356
Cl	1.773311	0.0	0.0
H	-1.646265	-0.047404	-1.274413
H	-0.352136	0.900666	0.496278
H	-0.345943	-0.880233	0.532262
N	-0.155336	-1.301002	-2.090732
O	-0.285169	-2.339137	-1.450724
O	0.238632	-1.242167	-3.256287
N	-0.177104	1.158378	-2.145661
H	-0.731109	1.224849	-2.988043
H	0.801024	1.119242	-2.401205
Cl	-3.517618	0.0	0.0
