13

C	0.0	0.0	0.0
C	-0.589027	-0.226225	-1.37438
Cl	1.773907	0.0	0.0
H	-1.640134	-0.502234	-1.191902
H	-0.365576	0.954193	0.372796
H	-0.330367	-0.791632	0.668116
N	0.028127	-1.422855	-2.025841
O	0.217381	-2.404095	-1.315681
O	0.237333	-1.387188	-3.238713
N	-0.422119	0.932714	-2.226423
H	-0.671881	0.662773	-3.171162
H	-1.123082	1.599853	-1.909545
Cl	-3.486424	0.0	0.0
