13

C	0.0	0.0	0.0
C	-0.559016	-0.118532	-1.41305
Cl	1.779025	0.0	0.0
H	-1.605357	-0.415739	-1.284502
H	-0.328405	-0.845611	0.598997
H	-0.358034	0.925909	0.442633
N	0.13675	-1.286371	-2.076129
O	-0.04264	-2.380495	-1.543259
O	0.850903	-1.085774	-3.052928
N	-0.491893	1.037134	-2.242591
H	-1.295482	1.615754	-2.032655
H	0.365485	1.556663	-2.103931
Cl	-3.474693	0.0	0.0
