13

C	0.0	0.0	0.0
C	-0.55332	-0.125186	-1.395132
Cl	1.782027	0.0	0.0
H	-1.645936	-0.176115	-1.259603
H	-0.347899	0.944402	0.409013
H	-0.34299	-0.825647	0.614949
N	-0.149814	-1.497615	-1.952584
O	-0.304735	-2.472205	-1.222683
O	0.27558	-1.546223	-3.108423
N	-0.184406	0.9456	-2.249401
H	-0.742634	0.924119	-3.090036
H	0.790738	0.88063	-2.509308
Cl	-3.523174	0.0	0.0
