13

C	-0.503653	-0.054267	-1.421799
C	0.0	0.0	0.0
Br	-2.39051	-0.58902	-1.55792
H	1.092322	0.0	0.0
H	0.0599	-0.773943	-2.013312
H	-0.294339	-0.947585	0.472612
N	-0.322897	1.272563	-2.11354
O	0.780558	1.418434	-2.633334
O	-1.218478	2.105181	-2.080455
N	-0.450768	1.188749	0.700162
H	-1.251118	1.006444	1.288604
H	0.318877	1.513281	1.272685
H	2.865871	0.0	0.0
