13

C	-0.476216	0.008547	-1.423525
C	0.0	0.0	0.0
Br	-0.218841	-1.694475	-2.317401
H	1.092435	0.0	0.0
H	0.027183	0.767693	-2.015248
H	-0.379049	-0.880633	0.524463
N	-1.945227	0.32777	-1.518349
O	-2.30012	1.0744	-2.428806
O	-2.692847	-0.178551	-0.686041
N	-0.422731	1.277041	0.583318
H	0.378936	1.66489	1.065336
H	-1.171568	1.142045	1.246611
H	2.894839	0.0	0.0
