13

C	-0.640935	-0.001763	-1.362316
C	0.0	0.0	0.0
Br	0.005212	1.441147	-2.493048
H	1.093952	0.0	0.0
H	-1.724206	0.096307	-1.320961
H	-0.325503	0.926854	0.485641
N	-0.424649	-1.297579	-2.10259
O	0.550301	-1.977685	-1.811984
O	-1.265303	-1.574515	-2.959275
N	-0.545558	-1.170277	0.716129
H	-0.721936	-0.907337	1.677292
H	0.20529	-1.853471	0.740972
H	2.972137	0.0	0.0
