13

C	-0.502355	-0.074721	-1.420872
C	0.0	0.0	0.0
Br	-2.372216	-0.660309	-1.550924
H	1.092315	0.0	0.0
H	0.079872	-0.780089	-2.010718
H	-0.293453	-0.939954	0.488454
N	-0.361567	1.25532	-2.112214
O	0.750452	1.447282	-2.594437
O	-1.290757	2.049146	-2.110631
N	-0.453941	1.200584	0.677715
H	-1.269131	1.030956	1.250481
H	0.307089	1.522521	1.264484
H	2.866364	0.0	0.0
