13

C	-0.421457	0.023836	-1.434801
C	0.0	0.0	0.0
Br	-2.364927	0.013808	-1.725531
H	1.101945	0.0	0.0
H	-0.033626	-0.840689	-1.969492
H	-0.320389	-0.974464	0.385939
N	0.103785	1.206813	-2.201819
O	0.399393	1.006389	-3.37918
O	0.181442	2.285806	-1.623678
N	-0.59591	1.051478	0.829665
H	-0.077921	1.901162	0.632856
H	-0.372391	0.807829	1.787892
H	2.904428	0.0	0.0
