13

C	-0.337604	-0.073152	-1.462583
C	0.0	0.0	0.0
Br	-2.268101	-0.266804	-1.854763
H	1.095991	0.0	0.0
H	0.146056	-0.911807	-1.958881
H	-0.393937	0.919269	0.434535
N	0.107631	1.152716	-2.206378
O	-0.131639	2.243137	-1.698354
O	0.672909	0.96956	-3.281637
N	-0.398831	-1.177138	0.756461
H	0.326897	-1.877509	0.656986
H	-1.281621	-1.556677	0.436795
H	2.836132	0.0	0.0
