18

C	-0.424736	-0.027391	-1.468259
C	0.0	0.0	0.0
F	-1.825484	-0.201503	-1.527363
H	1.096552	0.0	0.0
C	-0.164296	1.265042	-2.132734
N	0.004813	2.298895	-2.664665
C	0.233976	-1.156643	-2.228493
H	-0.106297	-1.163595	-3.266286
H	-0.035676	-2.087879	-1.732622
H	1.317777	-1.029376	-2.183232
N	-0.430696	-1.264496	0.599047
H	-1.362942	-1.162055	0.987587
H	0.209538	-1.490914	1.351665
C	-0.514898	1.231745	0.735539
H	-1.608887	1.281525	0.694556
H	-0.204838	1.176114	1.781888
H	-0.105304	2.153366	0.316328
Cl	3.456796	0.0	0.0
