18

C	-0.394933	0.030682	-1.472709
C	0.0	0.0	0.0
F	-0.091454	-1.222922	-2.024105
H	1.103465	0.0	0.0
C	-1.853919	0.20575	-1.64129
N	-3.010051	0.34851	-1.796933
C	0.387748	1.064086	-2.26111
H	1.44898	0.921193	-2.041383
H	0.202161	0.921202	-3.327855
H	0.09302	2.077702	-1.984831
N	-0.589055	-1.197832	0.608398
H	-0.156363	-2.002075	0.166729
H	-0.28409	-1.21876	1.576464
C	-0.487501	1.232729	0.744633
H	-1.580406	1.283093	0.750206
H	-0.138144	1.18004	1.779758
H	-0.076561	2.149927	0.319217
Cl	3.508895	0.0	0.0
