18

C	-0.432191	-0.086167	-1.464813
C	0.0	0.0	0.0
F	-1.826646	-0.303064	-1.510367
H	1.098164	0.0	0.0
C	-0.21388	1.190696	-2.173574
N	-0.084227	2.20516	-2.750505
C	0.260776	-1.219081	-2.189442
H	1.340469	-1.052929	-2.157377
H	-0.085844	-1.278189	-3.223514
H	0.026603	-2.140071	-1.656975
N	-0.415368	-1.247042	0.646368
H	-1.319464	-1.128254	1.087117
H	0.265857	-1.474361	1.359208
C	-0.523181	1.25132	0.694073
H	-1.617927	1.285988	0.658976
H	-0.129121	2.162143	0.238295
H	-0.205326	1.237445	1.739204
Cl	3.437885	0.0	0.0
