18

C	-0.451826	-0.00946	-1.471307
C	0.0	0.0	0.0
F	0.170257	1.036237	-2.150332
H	1.096198	0.0	0.0
C	-0.039207	-1.27423	-2.114824
N	0.22773	-2.282781	-2.653408
C	-1.949757	0.180115	-1.680195
H	-2.179088	0.134667	-2.746782
H	-2.242455	1.159591	-1.301363
H	-2.529521	-0.591009	-1.169047
N	-0.413704	-1.195064	0.730139
H	0.217055	-1.958334	0.517355
H	-1.35837	-1.48029	0.502332
C	-0.484239	1.250651	0.718432
H	0.056178	1.322341	1.662728
H	-1.555912	1.204303	0.941653
H	-0.274405	2.147621	0.131209
Cl	3.460597	0.0	0.0
