13
Coordinates from ORCA-job run
  C   0.86841847878171     -0.21003138129100     -0.84591794872929
  C   -0.56012011895822      0.12819678700267     -0.39865122563828
  F   0.90804958587102     -1.54830401496139     -1.18829160584082
  H   -1.20839051442339     -0.14359049837240     -1.23977058797430
  H   1.14227915228864      0.36958609820315     -1.73199866206527
  C   1.84458512022292      0.04312765307042      0.22359423620365
  N   2.61424519164092      0.24708122975913      1.08594683350618
  C   -0.66024324049738      1.57408460325633     -0.19457360387935
  N   -0.72823744855451      2.73309084641493     -0.01979922594344
  C   -0.97629345845350     -0.65278411072728      0.84907214945351
  H   -0.85192695979997     -1.72128800222666      0.67050868716604
  H   -2.02358058325059     -0.45679234835707      1.08247688631964
  H   -0.36978520486764     -0.36237686177083      1.70840406742175
