18

C	-0.471183	0.044568	-1.461479
C	0.0	0.0	0.0
Cl	0.230077	-1.457908	-2.27914
H	1.094491	0.0	0.0
N	-1.89894	0.047633	-1.541698
H	-2.270587	-0.792209	-1.108828
H	-2.186809	0.05123	-2.513716
C	0.122423	1.233916	-2.192508
H	1.202188	1.257604	-2.031521
H	-0.078339	1.153301	-3.263921
H	-0.334114	2.153835	-1.821381
C	-0.517699	-1.200772	0.651218
N	-1.012496	-2.124469	1.183529
C	-0.443583	1.237642	0.79285
H	-0.15341	1.112854	1.837898
H	-1.522359	1.389751	0.729093
H	0.075891	2.119273	0.415907
Br	3.521482	0.0	0.0
