18

C	-0.272208	0.038498	-1.510797
C	0.0	0.0	0.0
Cl	-2.050865	0.259966	-1.841775
H	1.099554	0.0	0.0
N	0.412424	1.206069	-2.020962
H	0.377008	1.195155	-3.03456
H	1.390452	1.135197	-1.733396
C	0.150334	-1.263966	-2.175264
H	-0.428061	-2.114539	-1.811034
H	1.210378	-1.421787	-1.953291
H	0.014623	-1.185456	-3.257362
C	-0.495776	-1.227088	0.609302
N	-0.925979	-2.191787	1.123804
C	-0.488803	1.227714	0.765458
H	-0.058964	1.219918	1.769159
H	-0.155443	2.124172	0.244529
H	-1.577821	1.240017	0.840665
Br	3.476366	0.0	0.0
