18

C	-0.471183	0.043141	-1.461076
C	0.0	0.0	0.0
Cl	0.23511	-1.455575	-2.279831
H	1.094482	0.0	0.0
N	-1.899289	0.03873	-1.540145
H	-2.264925	-0.804587	-1.108882
H	-2.187219	0.041299	-2.512425
C	0.114431	1.236563	-2.191265
H	1.193756	1.267389	-2.029767
H	-0.348421	2.153076	-1.819873
H	-0.085195	1.154346	-3.26276
C	-0.515899	-1.201344	0.651114
N	-1.007609	-2.126332	1.18372
C	-0.445004	1.237168	0.79233
H	-1.523528	1.388696	0.726943
H	-0.156381	1.112728	1.837848
H	0.07453	2.118697	0.415885
Br	3.529006	0.0	0.0
