18

C	-0.375352	-0.052396	-1.507554
C	0.0	0.0	0.0
Cl	-0.003356	1.572041	-2.209626
H	1.096925	0.0	0.0
N	0.443219	-1.005337	-2.224935
H	1.420387	-0.830216	-1.986099
H	0.216496	-1.935399	-1.884675
C	-1.843277	-0.334383	-1.771351
H	-2.479461	0.412918	-1.293927
H	-2.01631	-0.315934	-2.847804
H	-2.108956	-1.32205	-1.384548
C	-0.426886	-1.270235	0.587148
N	-0.810768	-2.288788	1.031852
C	-0.528474	1.167773	0.828763
H	-0.104589	2.100772	0.459408
H	-0.214262	1.042035	1.86763
H	-1.620543	1.22992	0.800637
Br	3.49527	0.0	0.0
