18

C	-0.533858	0.04364	-1.445927
C	0.0	0.0	0.0
Cl	0.158451	1.502557	-2.259178
H	1.094836	0.0	0.0
N	-0.03841	-1.102522	-2.166973
H	-0.278203	-1.959066	-1.677899
H	-0.436124	-1.126134	-3.098736
C	-2.052048	0.197663	-1.502172
H	-2.375909	0.198031	-2.545835
H	-2.520948	-0.649243	-0.991432
H	-2.39186	1.126952	-1.043383
C	-0.460702	-1.2512	0.604198
N	-0.890256	-2.249125	1.054273
C	-0.437263	1.17549	0.879735
H	-0.150251	2.112475	0.401301
H	0.096571	1.111373	1.828187
H	-1.510857	1.178313	1.080061
Br	3.542811	0.0	0.0
