18

C	-0.45609	0.077106	-1.465788
C	0.0	0.0	0.0
Cl	0.191999	-1.448746	-2.289417
H	1.094478	0.0	0.0
N	-1.88038	0.144822	-1.562522
H	-2.156204	0.170127	-2.537499
H	-2.296647	-0.678904	-1.138911
C	0.203534	1.240736	-2.183068
H	-0.2117	2.180402	-1.811392
H	1.28171	1.211628	-2.009914
H	0.011682	1.176229	-3.257061
C	-0.536681	-1.202271	0.630733
N	-1.054269	-2.125444	1.141436
C	-0.433055	1.231916	0.808607
H	-1.511441	1.390709	0.75569
H	-0.134117	1.094787	1.849666
H	0.087356	2.115223	0.436516
Br	3.516498	0.0	0.0
