17

C	0.0	0.0	0.0
C	-0.337065	-0.110288	-1.513597
F	1.414611	0.0	0.0
H	0.416828	-0.757609	-1.962114
N	-0.41082	1.207163	0.647665
H	-0.19633	1.983808	0.032601
H	-1.423027	1.118651	0.738797
N	-0.495509	-1.103839	0.72414
H	-0.691274	-1.90784	0.140154
H	0.08864	-1.294697	1.523468
N	-0.316476	1.209312	-2.109517
H	-1.269478	1.547202	-1.983842
H	-0.194392	1.09033	-3.109086
N	-1.633679	-0.790047	-1.778155
O	-2.677024	-0.053957	-1.579131
O	-1.632641	-2.054618	-1.64533
H	-3.212627	0.0	0.0
