17

C	0.0	0.0	0.0
C	-0.499011	-0.006535	-1.441826
F	1.406816	0.0	0.0
H	-1.600836	-0.040723	-1.358897
N	-0.511291	1.141092	0.662798
H	-1.545211	1.016341	0.596401
H	-0.257068	1.095673	1.644902
N	-0.397799	-1.255026	0.570902
H	-0.119824	-1.282873	1.544037
H	0.036859	-2.008272	0.053865
N	0.068865	-1.10238	-2.162768
H	-0.409966	-1.219349	-3.045807
H	1.044383	-0.896021	-2.341703
N	-0.136448	1.322045	-2.090887
O	-0.982188	2.208407	-2.118118
O	0.993147	1.415297	-2.581864
H	-3.210661	0.0	0.0
