17

C	0.0	0.0	0.0
C	-0.448884	0.078245	-1.468468
F	1.424029	0.0	0.0
H	-1.545313	0.125761	-1.441886
N	-0.424153	1.19041	0.674983
H	-0.19476	1.089079	1.662018
H	-1.454329	1.150445	0.599105
N	-0.46556	-1.263671	0.498202
H	-1.497703	-1.142049	0.457372
H	-0.217721	-1.315655	1.483371
N	0.023746	-0.994275	-2.306094
H	1.005613	-1.135789	-2.093311
H	-0.465181	-1.82501	-1.994067
N	0.033578	1.366469	-2.062103
O	1.192562	1.394046	-2.477307
O	-0.7527	2.309326	-2.108738
H	-2.979691	0.0	0.0
