17

C	0.0	0.0	0.0
C	-0.497298	-0.073108	-1.443961
F	1.40336	0.0	0.0
H	-0.253213	0.858797	-1.962568
N	-0.374049	1.203617	0.713607
H	-1.387994	1.191609	0.773015
H	-0.089345	2.009629	0.167031
N	-0.484137	-1.122334	0.726301
H	-0.294708	-1.937532	0.132127
H	0.036889	-1.166763	1.594938
N	-1.96589	-0.291607	-1.386376
H	-2.382876	0.070484	-2.242394
H	-1.994544	-1.322687	-1.435191
N	0.039798	-1.15319	-2.26379
O	1.146372	-0.898107	-2.905348
O	-0.250087	-2.368348	-1.740256
H	-2.828268	0.0	0.0
