14
Coordinates from ORCA-job run
  C   -0.75897107739478     -0.08881064491057     -0.43364754194657
  C   0.76158873070336     -0.14315480954939     -0.57334824361717
  Cl  -1.46282737045227     -0.51795546894125     -2.09109134456247
  H   1.02166672151846     -1.17522502643822     -0.83317237660041
  H   1.04561709332323      0.47790301477989     -1.42551876174842
  N   -1.21286929286784     -0.94973517539948      0.59783588584071
  H   -0.91877759594086     -1.90323177119192      0.42323729928925
  H   -2.21902990245761     -0.92061361798786      0.70467048279394
  C   -1.21440118668564      1.27880921461919     -0.15977554531974
  N   -1.55164349452134      2.37888893663011      0.07493109661495
  C   1.48476897143716      0.30385089919428      0.69208516143094
  H   1.21233449538408     -0.31853011286439      1.54398404530537
  H   2.56463735700952      0.23703298685586      0.54282267953333
  H   1.24490655094454      1.34077157520376      0.93698716298629
