14
Coordinates from ORCA-job run
  C   -0.68194905921259      0.01579326597616     -0.44030226277524
  C   0.62400330149528      0.61836654162225      0.08203358757846
  Cl  -0.42328178851157     -0.71097160100032     -2.06541970457134
  H   0.94650548560393      1.38266398372850     -0.62977096734775
  H   0.37780755822926      1.13958126983222      1.01579101665465
  N   -1.14237284778294     -1.03378621983829      0.43609005239765
  H   -1.28600576732951     -0.65680685500078      1.36737665809050
  H   -2.01954736986319     -1.41753850121456      0.10325591727645
  C   -1.67194415317114      1.09523281466049     -0.62842568456424
  N   -2.47306457383296      1.95260849379540     -0.70051818191919
  C   1.72525175721478     -0.40628572487966      0.32058768558062
  H   1.41573576718469     -1.15944503507758      1.04411828602668
  H   2.61676479433705      0.09740923416199      0.70048610727004
  H   1.99309689563890     -0.91582166676582     -0.60530250969728
