14
Coordinates from ORCA-job run
  C   -0.70464690374716     -0.02280479862828     -0.40457648259969
  C   0.62674463773533      0.61856104515926     -0.00775211356765
  Cl  -0.53004159774620     -0.89890325341470     -1.96558234200263
  H   0.42948219402827      1.22672072118335      0.88390007780468
  H   0.91348238477906      1.31027201539257     -0.80394500487075
  N   -1.12080775786835     -0.98347158914954      0.58844962856436
  H   -1.21509393546967     -0.52053864521155      1.48665244405720
  H   -2.01493643600052     -1.39009711898962      0.33830769501798
  C   -1.70143632044074      1.04116171437462     -0.64177067733638
  N   -2.48943096101833      1.90592254650740     -0.75638209362022
  C   1.73708147749528     -0.38634353256161      0.26949492634003
  H   2.64459968847015      0.14454394941346      0.56495531358699
  H   1.45942390811811     -1.07308066489483      1.06802790454029
  H   1.96357962166476     -0.97494238918052     -0.61977927591422
