14
Coordinates from ORCA-job run
  C   -0.83301352049504     -0.04305433993213     -0.51925867299792
  C   0.69384096640910     -0.13614809737170     -0.64175094451206
  Cl  -1.51703470109766     -0.39592344730194     -2.15284711272024
  H   0.92183924943636     -1.15186029187870     -0.98236447055379
  H   1.02281889611524      0.54706932851225     -1.42942832795402
  N   -1.45520953374134     -0.94659763012286      0.41693395921303
  H   -1.10689609001498     -1.88805668845409      0.27618886466620
  H   -1.27732909652101     -0.65520838037469      1.37034237277563
  C   -1.21875631569755      1.32830500880299     -0.16009232837008
  N   -1.46872733556475      2.42911945234300      0.16373819087625
  C   1.41296420318119      0.17060866707305      0.66665684304874
  H   2.49271315183198      0.09617510509985      0.52346198901275
  H   1.19372559880672      1.18214469717366      1.01623005573821
  H   1.13906452735175     -0.53557338356868      1.45318958177731
