14
Coordinates from ORCA-job run
  C   -0.70079440177270     -0.13611552849394     -0.36938411595618
  C   0.63992500615025     -0.51947517018836      0.25118733409925
  Cl  -0.53125533225924      0.00272884151473     -2.15365934389251
  H   0.91298937860630     -1.47962419715616     -0.19399712833840
  H   0.45497198152898     -0.69293133947768      1.31853612562844
  N   -1.66704090233099     -1.17895089696019     -0.11462526312581
  H   -1.77866074239483     -1.29752211739252      0.88676629639242
  H   -2.56696887189687     -0.93547067627847     -0.51333194994415
  C   -1.12843027259532      1.19090664839836      0.11616635913019
  N   -1.47282289987000      2.21681213858788      0.57549435683730
  C   1.74393593428826      0.51398052238655      0.07871091258776
  H   1.95894369622838      0.69030469781598     -0.97573804689589
  H   1.47493997075397      1.46663342773609      0.53987845100680
  H   2.66026745556381      0.15872364950772      0.55399601247076
