14
Coordinates from ORCA-job run
  C   -0.78430422011268      0.05203466077666     -0.43616347467581
  C   0.59480103052372      0.60554633243447     -0.03937060461762
  Cl  -0.62726054682766     -0.79168020988151     -2.02087739005334
  H   0.94723359934629      1.25498540928849     -0.84537302594557
  H   0.43200889573033      1.24156906826490      0.83894086328792
  N   -1.40217969445580     -0.87714269984230      0.48250010617706
  H   -0.80710614104274     -1.68628536307650      0.61168487069020
  H   -1.55756688327625     -0.42641018917663      1.37783294651714
  C   -1.70625706780429      1.18134155342003     -0.62531105154180
  N   -2.43226705520073      2.09982704971273     -0.71618968368605
  C   1.62973460727193     -0.46508607007685      0.27870809102390
  H   1.34448953112009     -1.05772783072084      1.15032178201612
  H   2.58730688413546      0.00586038748418      0.50848207017330
  H   1.78236706059233     -1.13783209860682     -0.56618549936547
