14
Coordinates from ORCA-job run
  C   -0.81740283967317     -0.01267189709021     -0.54550412906690
  C   0.70796100845290     -0.16131282268703     -0.62039772382101
  Cl  -1.46245621593813     -0.33874105864801     -2.20040535525525
  H   0.90934039877820     -1.18463797214756     -0.95492331822305
  H   1.08644898114449      0.50936671660897     -1.39646266914794
  N   -1.50080444503436     -0.89355167270233      0.36933051125614
  H   -1.34555610221761     -0.60723219945635      1.32821681371698
  H   -1.17986793548214     -1.84639337080622      0.24054521221896
  C   -1.16402723546155      1.37156795987225     -0.19578813270212
  N   -1.38257960438633      2.48060118464047      0.12250878296298
  C   1.39666416879109      0.11870423766906      0.71026204345018
  H   2.47680339879755      0.00421256253197      0.60081314404537
  H   1.07221373599817     -0.57659652835702      1.48708368648640
  H   1.20426268623089      1.13768486057199      1.05372113407926
