14
Coordinates from ORCA-job run
  C   -0.75167021921297     -0.06167833298294     -0.45110245295128
  C   0.77011278193623     -0.14361685945158     -0.56192231800162
  Cl  -1.43011582790875     -0.43008286424463     -2.13275170697704
  H   1.01454056486331     -1.17379685119116     -0.84372562085082
  H   1.08377573757187      0.49327508461363     -1.39176134512985
  N   -1.24340232119718     -0.94133780609320      0.54715327793010
  H   -0.96507865427979     -1.89552349650445      0.35148668006748
  H   -2.25086346467265     -0.89452814844815      0.63439784408744
  C   -1.18493346054273      1.30668543458067     -0.14678028201370
  N   -1.50376455980478      2.40650883386993      0.11357069043383
  C   1.47632338408683      0.25562149131300      0.72876971251447
  H   2.55736081214402      0.16937934278979      0.59955258497691
  H   1.17336529741265     -0.38188511755473      1.55887589960089
  H   1.25334992960394      1.29097928930382      0.99523703631319
