14
Coordinates from ORCA-job run
  C   -0.81303159658747      0.01403558004035     -0.27490764348773
  C   0.62892298806736     -0.45903519501942     -0.05284213473496
  Cl  -0.88130967372649      0.91643812694147     -1.83344664890647
  H   0.60638592516061     -1.09286340195418      0.84182492085487
  H   0.88016122700145     -1.10390783322705     -0.90191320039600
  N   -1.80306839941667     -1.03779480977327     -0.35197548472597
  H   -1.52288107927757     -1.71155114289123     -1.05657800572139
  H   -1.87205977349401     -1.50781813918315      0.54451558226150
  C   -1.20733302834740      0.93716463991904      0.79811555690729
  N   -1.47954310326522      1.63858355824819      1.69970856383278
  C   1.66422211601039      0.64528076231590      0.11331454423526
  H   2.64878042492790      0.20859274395189      0.29256758238162
  H   1.72727303948299      1.26633089046395     -0.78046313713574
  H   1.42348093346413      1.28754422016753      0.96307950463495
