14
Coordinates from ORCA-job run
  C   -0.74289889075521     -0.09881778096460     -0.55915604659499
  C   0.78140999710738     -0.13251180210820     -0.62982411098375
  Cl  -1.40242823501621     -0.43460266874952     -2.19534938951798
  H   1.04715046028828     -1.12859112531440     -0.99277819570521
  H   1.09979197045465      0.59494255430823     -1.38085833846010
  N   -1.23658135992135     -1.13177029967890      0.32317471806200
  H   -2.25063015131848     -1.13839856726666      0.31980924606617
  H   -0.92623255484993     -0.94478101791212      1.27038506175770
  C   -1.20495672368899      1.25421911257136     -0.18777839910368
  N   -1.54966269376671      2.31429941150733      0.18577683251377
  C   1.45455077245674      0.15690088704990      0.70861611658574
  H   1.13572344483221      1.11648020613378      1.12292015632722
  H   2.53687854320525      0.20011293387784      0.57286762702226
  H   1.25688542097236     -0.62848184345404      1.44119472203085
