15

C	-0.471306	-0.096545	-1.431157
C	0.0	0.0	0.0
F	-1.855272	0.152476	-1.478609
H	1.093017	0.0	0.0
H	-0.370556	0.935472	0.428363
N	0.067924	1.10489	-2.226613
O	0.563433	0.89944	-3.332206
O	-0.092626	2.205088	-1.714643
N	-0.156684	-1.295263	-2.062216
H	0.347659	-1.143702	-2.925064
H	0.335838	-1.900986	-1.421446
N	-0.418046	-1.211343	0.70602
H	0.218777	-1.365522	1.474168
H	-1.353363	-1.108226	1.071419
Cl	3.427184	0.0	0.0
