15

C	-0.427677	-0.115458	-1.452394
C	0.0	0.0	0.0
F	-1.581804	-0.846839	-1.586797
H	1.088144	0.0	0.0
H	-0.313046	-0.951633	0.441038
N	-0.791657	1.281505	-2.001475
O	-1.829209	1.421719	-2.637174
O	0.053098	2.146199	-1.802438
N	0.576319	-0.643354	-2.293387
H	1.481703	-0.707149	-1.837518
H	0.284974	-1.500639	-2.733597
N	-0.655956	1.096982	0.707374
H	-0.66088	0.874838	1.694498
H	-0.075978	1.920384	0.597619
Cl	3.461802	0.0	0.0
