15

C	-0.330801	-0.02219	-1.471531
C	0.0	0.0	0.0
F	-0.151977	-1.290103	-1.993413
H	1.094668	0.0	0.0
H	-0.322611	0.965482	0.395343
N	-1.814427	0.242933	-1.74917
O	-2.548601	0.530711	-0.808019
O	-2.165513	0.168565	-2.924362
N	0.388771	0.965804	-2.163757
H	0.308531	0.824452	-3.16258
H	1.364113	0.92955	-1.87379
N	-0.562879	-1.140624	0.704485
H	0.181118	-1.621126	1.189375
H	-1.244148	-0.832636	1.380931
Cl	3.440081	0.0	0.0
