15

C	-0.570725	0.005835	-1.406053
C	0.0	0.0	0.0
F	0.239005	0.727276	-2.264431
H	1.094003	0.0	0.0
H	-0.347737	-0.914192	0.491218
N	-0.46073	-1.418762	-2.003579
O	-1.402936	-1.825025	-2.688388
O	0.577186	-2.02968	-1.79265
N	-1.8867	0.462508	-1.467295
H	-2.262943	0.610762	-0.542498
H	-2.462156	-0.07771	-2.093681
N	-0.560674	1.146482	0.740769
H	-0.133818	1.98443	0.356468
H	-0.206803	1.078411	1.688315
Cl	3.538443	0.0	0.0
