15

C	-0.374551	0.063771	-1.46901
C	0.0	0.0	0.0
F	0.036049	-1.078414	-2.077678
H	1.093426	0.0	0.0
H	-0.369561	-0.9412	0.425736
N	-1.900704	0.068628	-1.57778
O	-2.462995	1.159101	-1.569928
O	-2.460214	-1.023162	-1.585215
N	0.123713	1.179597	-2.190322
H	-0.134154	2.003113	-1.65599
H	1.137392	1.099531	-2.143289
N	-0.44879	1.212032	0.677407
H	0.249365	1.480447	1.357177
H	-1.326978	1.070371	1.15545
Cl	3.414253	0.0	0.0
