15

C	-0.304869	-0.131277	-1.469682
C	0.0	0.0	0.0
F	-1.625078	-0.410491	-1.750351
H	1.100454	0.0	0.0
H	-0.407654	0.927702	0.393773
N	-0.160856	1.268367	-2.166965
O	0.302356	1.267571	-3.304537
O	-0.594686	2.254642	-1.581441
N	0.513803	-1.099472	-2.057667
H	0.462081	-1.060917	-3.067269
H	1.477	-0.973826	-1.747697
N	-0.569257	-1.149594	0.721313
H	-0.139203	-1.143089	1.640846
H	-0.213826	-1.984422	0.264954
Cl	3.444741	0.0	0.0
