15

C	-0.334497	0.061579	-1.466957
C	0.0	0.0	0.0
F	-0.182552	-1.206719	-2.039477
H	1.10159	0.0	0.0
H	-0.409146	-0.914582	0.425373
N	-1.826476	0.318985	-1.688857
O	-2.590299	-0.41409	-1.071513
O	-2.16177	1.178827	-2.500744
N	0.418204	1.056019	-2.092098
H	1.403058	0.91791	-1.875153
H	0.248939	1.11215	-3.086169
N	-0.574744	1.178416	0.660441
H	-0.004656	1.974109	0.39347
H	-0.44673	1.062693	1.659084
Cl	3.46214	0.0	0.0
