15

C	-0.574861	-0.032928	-1.400897
C	0.0	0.0	0.0
F	-0.370542	1.178979	-2.00563
H	1.095911	0.0	0.0
H	-0.333628	0.965416	0.395281
N	0.174295	-1.047447	-2.280336
O	0.401426	-0.755218	-3.446296
O	0.398353	-2.126623	-1.746709
N	-1.939243	-0.403097	-1.445493
H	-2.472031	0.230774	-2.021833
H	-2.294974	-0.511727	-0.504721
N	-0.598627	-1.056269	0.828835
H	-0.305313	-0.884968	1.783449
H	-0.163208	-1.92845	0.549302
Cl	3.482461	0.0	0.0
