15

C	-0.496716	0.00544	-1.419524
C	0.0	0.0	0.0
F	-0.241948	-1.192511	-2.044458
H	1.091725	0.0	0.0
H	-0.350021	-0.917084	0.480305
N	-2.076698	-0.017948	-1.4076
O	-2.660166	-0.420721	-0.403226
O	-2.636332	0.333964	-2.445838
N	-0.030492	1.071909	-2.172295
H	-0.607742	1.253259	-2.980613
H	0.066578	1.881289	-1.57456
N	-0.449886	1.233714	0.649775
H	0.27398	1.539849	1.285932
H	-1.297195	1.068034	1.175826
Cl	3.490051	0.0	0.0
