15

C	-0.546068	-0.005696	-1.407396
C	0.0	0.0	0.0
F	0.056769	1.007999	-2.132668
H	1.094002	0.0	0.0
H	-0.37001	-0.886567	0.512464
N	-0.197112	-1.279815	-2.164361
O	0.096611	-2.27449	-1.512769
O	-0.318939	-1.225732	-3.384873
N	-1.952615	0.086962	-1.4367
H	-2.203504	0.793227	-0.751749
H	-2.262235	0.349146	-2.364207
N	-0.541054	1.211289	0.652654
H	-0.482218	1.072005	1.653704
H	0.100908	1.968222	0.441132
Cl	3.492123	0.0	0.0
