13

C	-0.469256	-0.046795	-1.426096
C	0.0	0.0	0.0
Br	-0.067965	1.628322	-2.298297
H	1.09085	0.0	0.0
H	-0.003929	-0.842839	-1.998963
H	-0.395436	0.847726	0.552154
N	-1.957036	-0.263281	-1.532679
O	-2.658579	0.186657	-0.631792
O	-2.354942	-0.858395	-2.528435
N	-0.438748	-1.228746	0.710179
O	-0.660676	-2.231019	0.027175
O	-0.51659	-1.171649	1.931789
Br	3.413967	0.0	0.0
