13

C	-0.580449	0.087045	-1.388528
C	0.0	0.0	0.0
Br	-2.506469	0.310669	-1.355176
H	1.091056	0.0	0.0
H	-0.165379	0.967882	-1.877065
H	-0.331404	0.862929	0.57615
N	-0.181768	-1.070213	-2.296083
O	-1.028723	-1.845239	-2.711651
O	1.015537	-1.078886	-2.546343
N	-0.471907	-1.194405	0.739314
O	-0.497843	-2.259858	0.126873
O	-0.768635	-1.044209	1.922364
Br	3.431702	0.0	0.0
