13

C	-0.570115	0.057075	-1.39435
C	0.0	0.0	0.0
Br	-2.503786	0.192229	-1.38372
H	1.09105	0.0	0.0
H	-0.191525	0.953679	-1.883338
H	-0.340945	0.867993	0.562495
N	-0.108134	-1.082811	-2.296101
O	1.093907	-1.043046	-2.520233
O	-0.915326	-1.887878	-2.733536
N	-0.463581	-1.190716	0.750058
O	-0.472182	-2.262561	0.148603
O	-0.772984	-1.030949	1.928669
Br	3.445241	0.0	0.0
