13

C	-0.578609	0.034737	-1.400852
C	0.0	0.0	0.0
Br	0.115544	-1.363731	-2.510286
H	1.088572	0.0	0.0
H	-1.661043	-0.061931	-1.382221
H	-0.3864	0.85401	0.561131
N	-0.316103	1.407777	-1.990114
O	0.451671	1.549888	-2.927482
O	-0.958743	2.29699	-1.432349
N	-0.521276	-1.209181	0.707319
O	-1.696372	-1.519208	0.49165
O	0.228179	-1.787491	1.482281
Br	3.46642	0.0	0.0
