13

C	-0.614038	-0.00024	-1.380991
C	0.0	0.0	0.0
Br	0.255502	-1.266243	-2.548065
H	1.085762	0.0	0.0
H	-1.671976	-0.247518	-1.375488
H	-0.34239	0.879033	0.553349
N	-0.53732	1.365535	-2.013968
O	-1.251282	1.538787	-2.998359
O	0.196897	2.199532	-1.497094
N	-0.498864	-1.19585	0.751533
O	0.239274	-1.670228	1.602376
O	-1.6402	-1.596878	0.502827
Br	3.511379	0.0	0.0
