13

C	-0.496738	-0.019485	-1.421739
C	0.0	0.0	0.0
Br	-0.035555	1.562325	-2.400401
H	1.08795	0.0	0.0
H	-0.013977	-0.858161	-1.926522
H	-0.355043	-0.895186	0.514388
N	-1.987814	-0.333142	-1.505637
O	-2.308967	-1.335732	-0.87247
O	-2.729402	0.346358	-2.194607
N	-0.54313	1.153444	0.765589
O	0.129893	1.587641	1.692966
O	-1.667336	1.552744	0.447687
Br	3.478199	0.0	0.0
