13

C	-0.506047	-0.015838	-1.418444
C	0.0	0.0	0.0
Br	-0.034332	1.560081	-2.401256
H	1.087965	0.0	0.0
H	-0.037152	-0.860183	-1.926201
H	-0.355371	-0.893501	0.516914
N	-2.001562	-0.311986	-1.489464
O	-2.741272	0.377909	-2.169785
O	-2.328606	-1.311825	-0.854786
N	-0.535189	1.155508	0.769287
O	-1.655729	1.564562	0.454443
O	0.141511	1.582767	1.696129
Br	3.474695	0.0	0.0
