20

C	0.0	0.0	0.0
C	-0.524881	0.011653	-1.440315
Br	1.987424	0.0	0.0
H	-1.611091	-0.091411	-1.247442
C	-0.496341	1.211468	0.767652
H	-0.206055	1.136247	1.819814
H	-0.108666	2.151227	0.369999
H	-1.592339	1.138632	0.665612
C	-0.477089	-1.262247	0.697528
H	-0.151136	-2.151977	0.160041
H	-0.113928	-1.293611	1.729194
H	-1.572896	-1.162801	0.66957
N	-0.049175	-1.167909	-2.171897
H	0.89843	-0.993003	-2.495283
H	-0.63377	-1.282309	-2.992608
C	-0.270936	1.318388	-2.189897
H	-0.640695	1.217805	-3.216144
H	0.799043	1.553364	-2.234725
H	-0.799635	2.157159	-1.733133
F	-3.032521	0.0	0.0
