20

C	0.0	0.0	0.0
C	-0.279928	-0.065994	-1.554083
Br	1.981203	0.0	0.0
H	0.365615	0.727052	-1.964462
C	-0.522701	1.303714	0.56815
H	-0.199822	2.156888	-0.033989
H	-1.616648	1.211705	0.547313
H	-0.185769	1.444041	1.599627
C	-0.571751	-1.171641	0.765598
H	-0.193293	-2.129893	0.405086
H	-1.660834	-1.091662	0.620789
H	-0.342804	-1.085931	1.832231
N	-1.65728	0.205964	-1.94372
H	-1.997535	-0.593798	-2.465727
H	-2.325184	0.252862	-1.129638
C	0.164169	-1.383795	-2.196054
H	-0.46261	-2.204857	-1.837078
H	0.007538	-1.298218	-3.276553
H	1.212049	-1.630999	-2.024237
F	-3.315357	0.0	0.0
