20

C	0.0	0.0	0.0
C	-0.574468	0.034608	-1.423181
Br	1.972241	0.0	0.0
H	-1.635327	0.252163	-1.197919
C	-0.485488	1.2234	0.767775
H	-0.11535	1.20034	1.796894
H	-1.581955	1.133686	0.742698
H	-0.156841	2.159169	0.308323
C	-0.485945	-1.245531	0.723999
H	-1.583522	-1.171248	0.663164
H	-0.159936	-1.231969	1.768253
H	-0.108057	-2.151931	0.248455
N	-0.457129	-1.287303	-2.071799
H	-0.646602	-1.153877	-3.060804
H	-1.233631	-1.842336	-1.722088
C	0.040381	1.07924	-2.338359
H	-0.589381	1.203496	-3.227428
H	0.12362	2.053545	-1.854001
H	1.038055	0.764921	-2.659359
F	-3.053698	0.0	0.0
