20

C	0.0	0.0	0.0
C	-0.331644	0.083058	-1.546572
Br	1.982985	0.0	0.0
H	0.43885	0.739935	-1.968091
C	-0.503894	1.239296	0.712616
H	-0.156887	1.261221	1.750141
H	-0.172082	2.155007	0.213694
H	-1.598424	1.151263	0.68136
C	-0.553021	-1.233457	0.680845
H	-0.177284	-2.159195	0.242241
H	-1.645117	-1.145692	0.559598
H	-0.30357	-1.226497	1.746738
N	-1.618982	0.651841	-1.903128
H	-2.363949	0.294826	-1.248881
H	-1.578191	1.651256	-1.724363
C	-0.210979	-1.280196	-2.223429
H	-1.056814	-1.909408	-1.933552
H	-0.266284	-1.131785	-3.30394
H	0.723193	-1.793584	-1.977775
F	-3.250183	0.0	0.0
