20

C	0.0	0.0	0.0
C	-0.268085	0.037226	-1.568215
Br	1.989867	0.0	0.0
H	0.557553	-0.519809	-2.020112
C	-0.594089	1.171668	0.742616
H	-1.6846	1.04887	0.591405
H	-0.240137	2.134389	0.370437
H	-0.363233	1.105516	1.810239
C	-0.508164	-1.291298	0.610737
H	-1.604417	-1.203862	0.554987
H	-0.19105	-1.379989	1.65482
H	-0.154966	-2.168635	0.062635
N	-0.205353	1.384759	-2.137664
H	-1.026642	1.89139	-1.821541
H	0.610358	1.86744	-1.774215
C	-1.558659	-0.62394	-2.040199
H	-1.500649	-1.707614	-1.900429
H	-2.429681	-0.269668	-1.464334
H	-1.643639	-0.423018	-3.113024
F	-3.258059	0.0	0.0
