16

C	-0.37649	0.040255	-1.51542
C	0.0	0.0	0.0
Br	0.214484	-1.650273	-2.333176
H	1.096349	0.0	0.0
C	-1.826541	0.089742	-1.682974
N	-2.998016	0.143854	-1.777182
C	0.336224	1.190109	-2.216572
H	1.407251	1.095002	-2.019617
H	-0.021815	2.140606	-1.811713
H	0.146581	1.164784	-3.290516
N	-0.479749	-1.114623	0.779859
H	-1.447776	-1.330176	0.567548
H	0.099522	-1.922155	0.589613
C	-0.478075	1.256887	0.59169
N	-0.883842	2.269056	1.029622
Br	3.451192	0.0	0.0
