16

C	-0.483033	-0.048727	-1.477634
C	0.0	0.0	0.0
Br	0.351131	1.419083	-2.47687
H	1.095288	0.0	0.0
C	-0.046485	-1.308555	-2.076977
N	0.20331	-2.352473	-2.557201
C	-1.99788	0.084447	-1.626824
H	-2.503059	-0.725667	-1.092227
H	-2.280846	0.027849	-2.678769
H	-2.324038	1.042165	-1.219276
N	-0.385173	-1.16068	0.784333
H	0.30549	-1.888154	0.64892
H	-1.307906	-1.509052	0.562174
C	-0.515606	1.221809	0.62651
N	-0.988081	2.177191	1.12062
Br	3.414329	0.0	0.0
