15

C	0.0	0.0	0.0
C	-0.605333	0.117873	-1.415063
Br	1.954778	0.0	0.0
H	-1.712799	0.075571	-1.212881
C	-0.468085	1.152783	0.883658
H	-0.081022	1.019891	1.894649
H	-1.560766	1.13974	0.894189
H	-0.096355	2.097206	0.480643
C	-0.377387	-1.29636	0.568814
N	-0.59923	-2.357051	1.024632
C	-0.217722	-0.984699	-2.290778
N	0.082454	-1.870994	-3.000944
C	-0.272977	1.399808	-2.032499
N	-0.022373	2.432825	-2.53247
Cl	-3.531098	0.0	0.0
