15

C	0.0	0.0	0.0
C	-0.395042	0.103318	-1.526843
Br	1.958827	0.0	0.0
H	0.477653	-0.267703	-2.077686
C	-0.466431	1.143387	0.884969
H	-0.052575	2.085979	0.519974
H	-1.558742	1.159547	0.847499
H	-0.122479	0.968998	1.9064
C	-0.382418	-1.311363	0.519853
N	-0.551422	-2.392379	0.952412
C	-0.562578	1.502919	-1.930859
N	-0.602296	2.627681	-2.263731
C	-1.484404	-0.744363	-2.046546
N	-2.037428	-1.497381	-2.764042
Cl	-3.366819	0.0	0.0
