15

C	0.0	0.0	0.0
C	-0.596865	0.096954	-1.421955
Br	1.955126	0.0	0.0
H	-1.70468	0.06114	-1.228262
C	-0.472926	1.165834	0.86197
H	-0.09257	2.103796	0.453153
H	-0.100675	1.042814	1.879952
H	-1.565784	1.154654	0.858559
C	-0.382628	-1.287446	0.583748
N	-0.609463	-2.343304	1.048737
C	-0.206549	-1.021614	-2.276823
N	0.092881	-1.92023	-2.971578
C	-0.253265	1.366711	-2.057818
N	0.005045	2.391406	-2.570828
Cl	-3.53211	0.0	0.0
