15

C	0.0	0.0	0.0
C	-0.603781	0.10459	-1.416986
Br	1.954783	0.0	0.0
H	-1.71213	0.064495	-1.215304
C	-0.467809	1.162289	0.872117
H	-0.092643	2.102213	0.462629
H	-0.084532	1.036658	1.885806
H	-1.560586	1.150645	0.878793
C	-0.378631	-1.290886	0.580665
N	-0.6018	-2.348184	1.04379
C	-0.216204	-1.006736	-2.281611
N	0.080202	-1.89891	-2.985737
C	-0.269224	1.380227	-2.046572
N	-0.019759	2.409041	-2.556034
Cl	-3.530762	0.0	0.0
