15

C	0.0	0.0	0.0
C	-0.485985	0.219	-1.485754
Br	1.9589	0.0	0.0
H	0.419736	0.269942	-2.103244
C	-0.404104	1.113545	0.968229
H	-1.492641	1.161017	0.992405
H	0.018701	2.062434	0.633143
H	-0.009438	0.87686	1.957472
C	-0.381264	-1.319233	0.501803
N	-0.531257	-2.4077	0.921406
C	-1.144983	1.514294	-1.677797
N	-1.461126	2.619983	-1.918713
C	-1.246708	-0.901638	-2.041798
N	-1.623358	-1.842733	-2.636867
Cl	-3.257147	0.0	0.0
