19

C	0.0	0.0	0.0
C	-0.706696	0.043338	-1.332171
Cl	1.78974	0.0	0.0
H	-1.869741	-0.020691	-0.964926
C	-0.47493	1.206651	0.80868
H	-0.090733	2.137258	0.399444
H	-1.571464	1.191089	0.786955
H	-0.132492	1.101416	1.840878
C	-0.432401	-1.267876	0.735717
H	-0.066889	-1.209989	1.764289
H	-1.526407	-1.295968	0.732102
H	-0.031046	-2.165796	0.269278
N	-0.354078	-1.069655	-2.23761
O	-0.832882	-2.175371	-1.973778
O	0.403506	-0.838054	-3.185866
N	-0.553623	1.27658	-2.131693
O	-1.375811	1.406642	-3.039352
O	0.327849	2.093656	-1.862435
H	-3.001028	0.0	0.0
