19

C	0.0	0.0	0.0
C	-0.699856	-0.04107	-1.337689
Cl	1.789758	0.0	0.0
H	-1.836076	0.013834	-1.013906
C	-0.444743	1.269696	0.723644
H	-0.087167	1.223562	1.754928
H	-1.541547	1.284057	0.71206
H	-0.050742	2.170134	0.254667
C	-0.488754	-1.198421	0.809174
H	-0.118744	-2.138109	0.404904
H	-0.147776	-1.094631	1.841873
H	-1.587898	-1.164025	0.785142
N	-0.516803	-1.266656	-2.152875
O	-1.313209	-1.386387	-3.084699
O	0.365295	-2.077762	-1.867944
N	-0.34565	1.087975	-2.23043
O	-0.884979	2.16865	-2.00045
O	0.478943	0.884698	-3.124939
H	-3.057172	0.0	0.0
