19

C	0.0	0.0	0.0
C	-0.624293	0.020036	-1.381046
Cl	1.789754	0.0	0.0
H	-1.7427	-0.093973	-1.157769
C	-0.476386	1.229945	0.764491
H	-0.16917	1.130369	1.808078
H	-1.574668	1.242316	0.704395
H	-0.039777	2.140706	0.3567
C	-0.441546	-1.259096	0.737424
H	-1.538142	-1.288353	0.714779
H	-0.018971	-2.156813	0.287403
H	-0.09175	-1.18661	1.770244
N	-0.12019	-1.060339	-2.273726
O	-0.51434	-2.201158	-2.041928
O	0.653559	-0.751138	-3.181591
N	-0.461693	1.277009	-2.170265
O	0.441452	2.066085	-1.900574
O	-1.273625	1.414021	-3.083406
H	-3.093837	0.0	0.0
