19

C	0.0	0.0	0.0
C	-0.67239	0.026016	-1.355686
Cl	1.789781	0.0	0.0
H	-1.796566	-0.056584	-1.079866
C	-0.49774	1.210444	0.785478
H	-0.17715	1.114491	1.825654
H	-1.596947	1.180463	0.742066
H	-0.113543	2.143912	0.378251
C	-0.452292	-1.25915	0.736112
H	-0.058354	-2.166309	0.279965
H	-0.100974	-1.199786	1.769104
H	-1.549325	-1.269093	0.717986
N	-0.246906	-1.082542	-2.250342
O	-0.71012	-2.196934	-2.007221
O	0.549205	-0.829342	-3.156317
N	-0.508051	1.269849	-2.157365
O	0.39194	2.064922	-1.892468
O	-1.331018	1.406539	-3.060921
H	-3.097746	0.0	0.0
