11

C	0.0	0.0	0.0
C	-0.444333	0.520108	-1.402118
Cl	1.771374	0.0	0.0
H	0.472747	0.728843	-1.968476
H	-0.365027	-1.006993	0.170727
H	-0.364938	0.651884	0.786348
C	-1.132069	1.814614	-1.353287
N	-1.445114	2.945651	-1.405947
C	-1.137084	-0.49018	-2.208196
N	-1.449705	-1.312002	-2.987844
Br	-3.225622	0.0	0.0
