11

C	0.0	0.0	0.0
C	-0.416758	0.250118	-1.482231
Cl	1.771387	0.0	0.0
H	0.499968	0.165908	-2.080531
H	-0.375763	0.777768	0.653639
H	-0.359555	-0.96548	0.337922
C	-0.860818	1.629729	-1.695766
N	-1.028702	2.769363	-1.918042
C	-1.297691	-0.75516	-2.093421
N	-1.711462	-1.599375	-2.800634
Br	-3.209812	0.0	0.0
