11

C	0.0	0.0	0.0
C	-0.29657	-0.626189	-1.404233
Cl	1.771423	0.0	0.0
H	0.495192	-0.240846	-2.058093
H	-0.377151	1.015505	0.055782
H	-0.395621	-0.600671	0.810452
C	-1.512333	-0.359637	-2.194488
N	-2.103586	-0.239459	-3.207212
C	-0.062256	-2.075134	-1.347951
N	0.185615	-3.222491	-1.319838
Br	-3.218541	0.0	0.0
