11

C	0.0	0.0	0.0
C	-0.541136	0.467588	-1.350749
Br	1.949905	0.0	0.0
H	-0.2169	1.492002	-1.550605
H	-0.335843	-1.014402	0.212555
H	-1.641682	0.440356	-1.243054
C	-0.408675	0.902348	1.075297
N	-0.578451	1.687365	1.932354
C	-0.116182	-0.401484	-2.439097
N	0.199927	-1.100789	-3.327299
Cl	-3.424807	0.0	0.0
