11

C	0.0	0.0	0.0
C	-0.532582	0.297329	-1.399101
Br	1.947588	0.0	0.0
H	-1.632883	0.265604	-1.299005
H	-0.34763	-0.982657	0.31564
H	-0.20625	-0.49432	-2.07802
C	-0.404647	1.001553	0.985532
N	-0.600319	1.823863	1.801513
C	-0.087159	1.584254	-1.919498
N	0.268587	2.608302	-2.369561
Cl	-3.421068	0.0	0.0
