11

C	0.0	0.0	0.0
C	-0.523365	0.330935	-1.398268
Br	1.947613	0.0	0.0
H	-1.623902	0.306418	-1.307732
H	-0.340659	-0.993754	0.288749
H	-0.198748	-0.446027	-2.095444
C	-0.415062	0.983882	0.999026
N	-0.615768	1.833008	1.785066
C	-0.073783	1.629834	-1.88356
N	0.279098	2.668647	-2.301605
Cl	-3.39393	0.0	0.0
