16

C	0.0	0.0	0.0
C	-0.601791	0.131137	-1.417894
Br	1.974928	0.0	0.0
H	-1.666356	-0.078937	-1.232506
C	-0.383408	1.130776	0.847285
N	-0.596142	2.074752	1.514682
C	-0.383082	-1.274668	0.611767
N	-0.583885	-2.346303	1.051347
C	-0.039057	-0.892008	-2.385828
H	-0.063594	-1.89712	-1.959423
H	-0.661147	-0.898323	-3.285266
H	0.988426	-0.647295	-2.666802
N	-0.38828	1.495763	-1.880259
H	-0.385143	1.506364	-2.893113
H	-1.179804	2.055893	-1.578
Br	-3.730829	0.0	0.0
