16

C	0.0	0.0	0.0
C	-0.509847	-0.171547	-1.450234
Br	1.988697	0.0	0.0
H	-1.593978	-0.056899	-1.331181
C	-0.368866	1.305171	0.548651
N	-0.526103	2.377636	1.002422
C	-0.38262	-1.098038	0.890265
N	-0.53358	-2.027915	1.594301
C	-0.220393	-1.556411	-2.006635
H	-0.658278	-1.622624	-3.006107
H	-0.672111	-2.336761	-1.391487
H	0.854661	-1.742228	-2.085527
N	-0.000296	0.933911	-2.243321
H	0.801915	0.652587	-2.793719
H	-0.726135	1.273146	-2.859099
Br	-3.575128	0.0	0.0
