15

C	0.0	0.0	0.0
C	-0.370077	0.262558	-1.519164
Cl	1.791031	0.0	0.0
H	0.421405	-0.227842	-2.092635
N	-0.606175	0.955099	0.860673
H	-1.63188	0.827459	0.692707
H	-0.426635	0.699769	1.828393
C	-0.345087	-1.413421	0.289428
N	-0.516599	-2.547263	0.548998
C	-0.211869	1.70661	-1.774431
N	-0.04104	2.830534	-2.068049
N	-1.638118	-0.208903	-2.006482
H	-1.578996	-1.217189	-2.109467
H	-2.379336	-0.04045	-1.271646
H	-3.168788	0.0	0.0
