15

C	0.0	0.0	0.0
C	-0.398566	0.006444	-1.513548
Cl	1.787374	0.0	0.0
H	0.435821	-0.445586	-2.057322
N	-0.591932	1.090829	0.700218
H	-1.618391	0.953919	0.564263
H	-0.401705	0.990517	1.693582
C	-0.328986	-1.331859	0.569569
N	-0.489098	-2.351074	1.133852
C	-0.456813	1.412628	-1.983993
N	-0.509424	2.464763	-2.505818
N	-1.575498	-0.797006	-1.750314
H	-2.349485	-0.474852	-1.097171
H	-1.880565	-0.658819	-2.709153
H	-3.202474	0.0	0.0
