15

C	0.0	0.0	0.0
C	-0.379695	-0.021865	-1.515063
Cl	1.835829	0.0	0.0
H	0.462566	-0.47541	-2.043954
N	-0.587628	1.10057	0.677095
H	-1.615809	0.962821	0.531181
H	-0.410596	1.013805	1.674194
C	-0.303137	-1.322019	0.595916
N	-0.469266	-2.351858	1.138019
C	-0.447467	1.376665	-2.008346
N	-0.518253	2.411267	-2.561676
N	-1.550502	-0.836293	-1.750109
H	-1.843836	-0.718946	-2.715715
H	-2.328595	-0.505306	-1.109801
H	-3.167238	0.0	0.0
