15

C	0.0	0.0	0.0
C	-0.549474	-0.13644	-1.434956
Cl	1.824033	0.0	0.0
H	-1.630978	-0.340338	-1.210191
N	-0.570276	1.171304	0.567697
H	-1.611165	0.956652	0.474623
H	-0.355249	1.19394	1.561062
C	-0.305776	-1.244741	0.750554
N	-0.481652	-2.212957	1.394866
C	0.049621	-1.26549	-2.142117
N	0.509338	-2.172109	-2.731939
N	-0.489652	1.073128	-2.229698
H	0.39898	1.53707	-2.06973
H	-1.213471	1.68575	-1.868366
H	-2.896619	0.0	0.0
