19

C	-0.564909	-0.00601	-1.420218
C	0.0	0.0	0.0
Cl	0.266641	1.215056	-2.423604
H	1.095035	0.0	0.0
N	-0.235932	-1.347814	-2.085139
O	0.722258	-1.976714	-1.653812
O	-0.938505	-1.688216	-3.035528
C	-2.058496	0.203729	-1.496244
H	-2.300669	1.203274	-1.1362
H	-2.541596	-0.543123	-0.86465
H	-2.403156	0.103078	-2.522336
N	-0.536794	-1.193187	0.679562
H	0.166177	-1.920379	0.604198
H	-0.631255	-0.981375	1.665903
C	-0.430136	1.250439	0.75749
H	0.155815	1.305868	1.677642
H	-0.223086	2.156871	0.187606
H	-1.492713	1.220175	1.016527
Br	3.639485	0.0	0.0
