19

C	-0.435968	-0.046635	-1.471527
C	0.0	0.0	0.0
Cl	-2.209623	-0.301843	-1.596253
H	1.097978	0.0	0.0
N	-0.147326	1.306028	-2.120116
O	-0.937545	2.226069	-1.929039
O	0.897721	1.392411	-2.757355
C	0.284819	-1.13604	-2.226856
H	1.360291	-0.993184	-2.108409
H	-0.003976	-2.085005	-1.778981
H	0.015189	-1.120547	-3.284499
N	-0.386669	-1.280489	0.597657
H	-1.240239	-1.173972	1.133316
H	0.356239	-1.567151	1.223811
C	-0.48856	1.20927	0.783806
H	-0.077389	2.144105	0.40219
H	-0.145097	1.094735	1.815174
H	-1.580671	1.280092	0.775769
Br	3.54664	0.0	0.0
