19

C	-0.592743	-0.030402	-1.408204
C	0.0	0.0	0.0
Cl	0.274552	1.10464	-2.475376
H	1.100045	0.0	0.0
N	-0.332124	-1.418439	-2.007884
O	0.736473	-1.947469	-1.733151
O	-1.190806	-1.892942	-2.748207
C	-2.07575	0.250645	-1.465945
H	-2.447471	0.122871	-2.480265
H	-2.258286	1.276935	-1.147831
H	-2.587314	-0.44209	-0.796634
N	-0.529091	-1.188979	0.695681
H	0.16953	-1.920548	0.60996
H	-0.599084	-0.974558	1.68385
C	-0.421553	1.257819	0.748801
H	-0.22286	2.157425	0.163897
H	-1.480361	1.230012	1.024354
H	0.178672	1.326037	1.659645
Br	3.645513	0.0	0.0
