19

C	-0.397868	-0.050142	-1.494444
C	0.0	0.0	0.0
Cl	-2.158752	-0.331299	-1.688059
H	1.095136	0.0	0.0
N	-0.079708	1.307804	-2.109924
O	-0.968231	2.146673	-2.232511
O	1.105173	1.476654	-2.381457
C	0.368988	-1.113899	-2.250737
H	0.172487	-1.043787	-3.322694
H	1.435311	-0.988221	-2.049233
H	0.043669	-2.094986	-1.903074
N	-0.387402	-1.203642	0.721514
H	0.245705	-1.959587	0.495587
H	-1.336244	-1.480514	0.503414
C	-0.516274	1.235097	0.716634
H	-0.106087	2.152284	0.290871
H	-1.608847	1.29253	0.692295
H	-0.188909	1.165167	1.754237
Br	3.578957	0.0	0.0
