19

C	-0.388376	0.054985	-1.490162
C	0.0	0.0	0.0
Cl	-0.286165	-1.5435	-2.261007
H	1.096672	0.0	0.0
N	-1.857872	0.467541	-1.571598
O	-2.12752	1.544179	-2.102122
O	-2.678153	-0.266048	-1.02692
C	0.482162	1.015576	-2.269246
H	1.516642	0.683689	-2.151059
H	0.200942	1.023335	-3.322577
H	0.395655	2.028334	-1.877442
N	-0.442232	-1.211788	0.662107
H	0.253346	-1.47383	1.348068
H	-1.335199	-1.076768	1.117725
C	-0.4519	1.274926	0.719672
H	0.006867	1.278867	1.710782
H	-1.540897	1.294336	0.843841
H	-0.141777	2.190348	0.212158
Br	3.579083	0.0	0.0
