15

C	0.0	0.0	0.0
C	-0.611432	-0.007715	-1.382742
Br	1.945729	0.0	0.0
H	-0.334414	0.883509	-1.946077
H	-1.732248	0.014653	-1.12769
N	-0.375439	1.325614	0.673242
O	-0.483564	2.310482	-0.049172
O	-0.460983	1.326099	1.894582
C	-0.491471	-1.157689	0.831611
H	-0.098871	-1.106027	1.84557
H	-0.17079	-2.090048	0.359721
H	-1.591948	-1.074539	0.82357
C	-0.243623	-1.206621	-2.110027
N	0.046911	-2.188134	-2.689443
H	-3.061414	0.0	0.0
