15

C	0.0	0.0	0.0
C	-0.58773	-0.002501	-1.398826
Br	1.94499	0.0	0.0
H	-1.710266	0.027229	-1.161964
H	-0.284746	0.889317	-1.950603
N	-0.396421	1.322106	0.663472
O	-0.515407	1.321696	1.881516
O	-0.493879	2.303974	-0.062272
C	-0.480151	-1.164366	0.827768
H	-0.154529	-2.091596	0.351191
H	-1.580198	-1.086809	0.825722
H	-0.079045	-1.112323	1.838719
C	-0.232236	-1.187789	-2.156925
N	0.014268	-2.115645	-2.836918
H	-3.013731	0.0	0.0
