15

C	0.0	0.0	0.0
C	-0.693447	0.004274	-1.33087
Br	1.941568	0.0	0.0
H	-1.839832	0.031143	-0.948972
H	-0.478414	0.905383	-1.90594
N	-0.343334	1.333753	0.688754
O	-0.447475	2.323607	-0.026802
O	-0.422625	1.332736	1.910809
C	-0.486361	-1.142819	0.856278
H	-1.582698	-1.032991	0.893276
H	-0.053194	-1.106614	1.853715
H	-0.222886	-2.084609	0.370404
C	-0.422827	-1.183224	-2.101302
N	-0.229784	-2.159875	-2.72975
H	-3.01098	0.0	0.0
