15

C	0.0	0.0	0.0
C	-0.331968	-0.019527	-1.489797
Br	1.945096	0.0	0.0
H	0.039291	0.909404	-1.933147
H	0.201852	-0.854885	-1.956138
N	-0.587948	1.172278	0.659809
O	-0.602286	1.152455	1.913763
O	-0.608839	2.231629	-0.01533
C	-0.283833	-1.290212	0.78005
H	0.098402	-2.13677	0.203638
H	-1.352283	-1.414641	0.947693
H	0.233816	-1.248695	1.738269
C	-1.784524	-0.159634	-1.744963
N	-2.663973	-0.352546	-2.524247
H	-2.070962	0.0	0.0
