16

C	-0.435362	-0.037819	-1.483614
C	0.0	0.0	0.0
Cl	0.09234	1.519783	-2.200096
H	1.091579	0.0	0.0
C	0.246488	-1.169353	-2.241723
H	-0.132778	-2.133533	-1.906782
H	1.318733	-1.114814	-2.044845
H	0.048038	-1.055034	-3.308454
C	-1.892529	-0.106906	-1.607236
N	-3.056909	-0.183172	-1.740917
N	-0.472112	-1.262951	0.676622
O	-1.504224	-1.204907	1.342935
O	0.204473	-2.266274	0.487076
C	-0.542456	1.147676	0.710656
N	-0.963181	2.087586	1.275843
Br	3.344639	0.0	0.0
