16

C	-0.44619	0.023171	-1.464296
C	0.0	0.0	0.0
Cl	-2.243271	-0.108284	-1.555158
H	1.096807	0.0	0.0
C	-0.007821	1.343224	-2.095207
H	1.074427	1.439643	-1.971221
H	-0.263227	1.340992	-3.155485
H	-0.513182	2.176376	-1.605975
C	0.123525	-1.073945	-2.250357
N	0.57135	-1.855463	-3.005427
N	-0.416462	-1.246059	0.723559
O	-0.402729	-2.287858	0.078512
O	-0.679865	-1.141136	1.917312
C	-0.492739	1.164325	0.718864
N	-0.87584	2.138849	1.251768
Br	3.26676	0.0	0.0
