16

C	-0.50837	-0.001717	-1.452475
C	0.0	0.0	0.0
Cl	0.409995	-1.166807	-2.463801
H	1.095236	0.0	0.0
C	-2.00173	-0.293459	-1.575607
H	-2.201963	-1.311823	-1.244993
H	-2.324159	-0.186003	-2.612402
H	-2.55931	0.413883	-0.955436
C	-0.216796	1.327971	-2.00052
N	-0.003941	2.395436	-2.445324
N	-0.426605	-1.224274	0.767632
O	-0.514061	-1.09853	1.988786
O	-0.457969	-2.291093	0.155672
C	-0.505581	1.15649	0.707779
N	-0.928805	2.118223	1.243853
Br	2.735852	0.0	0.0
