15

C	0.0	0.0	0.0
C	-0.467258	-0.263099	-1.445656
Cl	1.79395	0.0	0.0
H	-0.07835	0.502382	-2.123472
H	-1.565055	-0.203798	-1.42232
C	-0.462445	1.380182	0.434495
H	-1.555196	1.393274	0.427174
H	-0.077403	2.14505	-0.243489
H	-0.096651	1.574225	1.443597
N	-0.463506	-0.973947	0.952104
H	-1.482042	-0.883411	0.986891
H	-0.2436	-1.91014	0.626097
C	-0.064431	-1.579125	-1.930143
N	0.257011	-2.639079	-2.320123
Br	-3.833202	0.0	0.0
