15

C	0.0	0.0	0.0
C	-0.494363	0.080801	-1.444907
Cl	1.839346	0.0	0.0
H	-1.595921	0.09449	-1.376575
H	-0.191305	-0.819619	-1.989091
C	-0.4694	1.186576	0.813265
H	-0.11875	1.092703	1.844671
H	-0.08113	2.119337	0.402371
H	-1.565696	1.178674	0.792968
N	-0.495131	-1.200046	0.553546
H	-0.368983	-1.258512	1.552504
H	-0.138201	-2.025519	0.092217
C	-0.008635	1.250558	-2.165328
N	0.363325	2.183207	-2.773073
Br	-3.991507	0.0	0.0
