15

C	0.0	0.0	0.0
C	-0.231641	0.023209	-1.540177
Cl	1.796498	0.0	0.0
H	0.478009	0.744486	-1.951859
H	0.082482	-0.962128	-1.896867
C	-0.46678	1.273788	0.680258
H	-1.559194	1.300019	0.628239
H	-0.042449	2.162405	0.205341
H	-0.157098	1.264516	1.730687
N	-0.519231	-1.222541	0.544446
H	-1.525004	-1.208603	0.341168
H	-0.437839	-1.186222	1.556484
C	-1.497369	0.357487	-2.201879
N	-2.261991	0.667877	-3.038725
Br	-3.833205	0.0	0.0
