17
Coordinates from ORCA-job run
  C   -0.81668822608932      0.02725446541970      0.36671007919274
  C   0.60037015915326      0.42214772146071     -0.09426468970305
  Cl  -0.70911917045873     -0.95217595965212      1.88090864413280
  H   0.43311889032922      1.08018086798165     -0.95703318657382
  C   -1.56172563013465      1.24672734846045      0.68845969973141
  N   -2.21210806547235      2.20780363366266      0.86957330919999
  C   -1.58863277688029     -0.78402137937439     -0.66708891748192
  H   -2.61093404088944     -0.95042224866678     -0.32638633259789
  H   -1.11369057349896     -1.75233871107245     -0.82196897509640
  H   -1.61784543037362     -0.23766840609436     -1.61391715679298
  C   1.44011157733812     -0.77071000882789     -0.54771772198940
  H   1.01657030726297     -1.28099561233133     -1.41535940228708
  H   1.55626565606962     -1.49461403110619      0.26213161946810
  H   2.43434858564142     -0.41409622618892     -0.82717590461096
  N   1.20740517625769      1.24211347705936      0.94303432381038
  H   1.54970834885700      0.65619445084125      1.69581722846761
  H   1.99384521288806      1.75462061842864      0.56427738313045
