17
Coordinates from ORCA-job run
  C   -0.83342721743859      0.32570579288878      0.39159887184041
  C   0.71217109275996      0.30967969192897      0.34451341246625
  Cl  -1.33050850624971      0.52870698707793      2.11854131770380
  H   1.03498807759952      1.26515859854706      0.78578805946228
  C   -1.32505797436483      1.50141134697622     -0.32778854787707
  N   -1.69641327212329      2.43138537891432     -0.94258025155535
  C   -1.47593702706839     -0.94341404596443     -0.14898062333885
  H   -1.04958869587463     -1.80082167878077      0.36890119513469
  H   -2.55492597598947     -0.91168759553081      0.00534925315977
  H   -1.28115473548262     -1.03212475841966     -1.21971938264971
  C   1.22443111312091      0.23398845489233     -1.08788334407334
  H   2.30891457256427      0.37361023614505     -1.09156799337916
  H   1.01016761013392     -0.74531817076225     -1.51975161858404
  H   0.79066884482224      1.01128809998146     -1.71903834042449
  N   1.19167198276580     -0.85118212656851      1.08223546269324
  H   1.10205850650257     -0.69849204989325      2.07928316130816
  H   2.17294160432235     -0.99689416143243      0.87909936811340
