17
Coordinates from ORCA-job run
  C   -0.84661347680399     -0.00284909814473      0.29252321745768
  C   0.63386364233396      0.37296865969056      0.08286499881363
  Cl  -0.96182210174405     -1.38301224342966      1.45242069580963
  H   0.60061646672580      1.26467916775391     -0.55676038002146
  C   -1.53776429662231      1.13656367048725      0.90060709083133
  N   -2.13777289538118      2.06121091055698      1.30618757227617
  C   -1.55985260372481     -0.40507034836684     -0.99293289829287
  H   -1.13639674047272     -1.32722727818399     -1.38976986845982
  H   -1.45533988264545      0.39191507571019     -1.73438113611875
  H   -2.62055174205570     -0.56649630952405     -0.79867021927119
  C   1.43400195316544     -0.71171112475994     -0.63610295193118
  H   1.41500235324712     -1.64740858266649     -0.07265227838789
  H   2.47398915603478     -0.38624539370059     -0.71541240395821
  H   1.07045879752485     -0.90451061633337     -1.64766278408551
  N   1.18369788634083      0.79757165368965      1.36115324319459
  H   2.03835115315126      1.31988367328488      1.21487329537950
  H   1.40513233092616     -0.01026181606375      1.93171480676435
