17
Coordinates from ORCA-job run
  C   -0.83984589260056      0.33126807401959      0.13758428721096
  C   0.68088248344995      0.07951526046107      0.28327901853738
  Cl  -1.22707842117865      1.94242337167355      0.84961716153804
  H   0.89651110439296      0.23419232201816      1.35060335391606
  C   -1.20668730998544      0.36232110785115     -1.27794859932083
  N   -1.49166387842074      0.37384450465180     -2.41755045152604
  C   -1.66198614964183     -0.71725297407646      0.87507774809912
  H   -1.36690209440900     -0.73491379905472      1.92741760001494
  H   -2.72428490547173     -0.47815830125251      0.81605834491129
  H   -1.48785380328634     -1.69372889000793      0.42283050525099
  C   1.51626162607258      1.04379086769861     -0.54379771626234
  H   1.26740085675041      2.08316178361965     -0.33311081439462
  H   2.57542244167217      0.89439652054406     -0.31936950754579
  H   1.35744360330491      0.85660514350994     -1.60917202312226
  N   0.93374727476689     -1.29121680535533     -0.14633103423172
  H   1.80465000401898     -1.35826826789644     -0.65487304921903
  H   0.97298306056546     -1.92797991840420      0.63768517614385
