17
Coordinates from ORCA-job run
  C   -0.83802716637359     -0.14921827784496      0.25631887461934
  C   0.64374212908102      0.27706065458573      0.12163420953793
  Cl  -0.96916349395938     -1.79175406227674      0.96587957683088
  H   0.59389469530158      1.24336592531206     -0.41059916222842
  C   -1.48631110656459      0.78506078647984      1.18150345334850
  N   -1.97456849099453      1.58854875499905      1.88628107310539
  C   -1.58346036135024     -0.13601419103125     -1.07486019721248
  H   -1.17433136424918     -0.89362618357724     -1.74266719008168
  H   -2.63936752474198     -0.35505485121924     -0.91424512006274
  H   -1.49438238829591      0.84787249907477     -1.54272444900281
  C   1.46900247910421     -0.68890669051948     -0.71370715432574
  H   1.56827131419170     -1.64296550356482     -0.19523002308967
  H   2.46852257140181     -0.27087515387619     -0.86148030387367
  H   1.03793303472663     -0.85883786516958     -1.70045469747572
  N   1.23170747027199      0.38683801613971      1.44602899239477
  H   0.90775515049950      1.22081126751259      1.92145247054507
  H   2.23978305195094      0.43969487497577      1.37586964697103
