17
Coordinates from ORCA-job run
  C   -0.86895480299171      0.26533462862817      0.10126533347859
  C   0.64939633441161      0.08026128887858      0.33212908237104
  Cl  -1.36236030120424      1.90413630123661      0.66440879609755
  H   0.78705870896085      0.14030704183045      1.41799682493735
  C   -1.14113459227408      0.17967207778626     -1.33476533738442
  N   -1.34030341021104      0.05451147092710     -2.48611943708215
  C   -1.69791522601261     -0.76275147579258      0.86049179063260
  H   -1.41908439606356     -1.76192678810171      0.53072465527925
  H   -2.76145974873406     -0.59167751007887      0.68972470691926
  H   -1.49290344170469     -0.66427127748717      1.92876610424344
  C   1.50461396346984      1.14339363512081     -0.35080353286983
  H   1.29501335488383      2.14975433069912      0.01177634617925
  H   1.34296338186144      1.12536217406795     -1.43298054914589
  H   2.55865710732388      0.92413562746794     -0.16368605039037
  N   0.97324610836389     -1.28407647086074     -0.08314188691980
  H   1.16635954238464     -1.30273470622528     -1.07925213473075
  H   1.80880741753600     -1.59943034809665      0.39346528838489
