17
Coordinates from ORCA-job run
  C   -0.81853845936387      0.04384023201765      0.36075096342967
  C   0.63792234743555      0.37504068556237     -0.02138872434681
  Cl  -0.83171508393015     -1.16959487136372      1.69895258483393
  H   0.54831329034431      1.17423193259280     -0.76880223114827
  C   -1.45810506581019      1.25991762866690      0.86865045375911
  N   -2.02611558784047      2.23351951361406      1.19880230813431
  C   -1.63758497357106     -0.51843784897728     -0.79507600675361
  H   -1.59792931021504      0.17253949177736     -1.64171367749196
  H   -1.24741834901963     -1.48884221432302     -1.10040859657342
  H   -2.67759352770162     -0.64283502540357     -0.49215230696526
  C   1.37665824051942     -0.80259179568134     -0.65456276847316
  H   1.40846930602295     -1.65472717335228      0.02822675866374
  H   2.40515104715411     -0.49966201184085     -0.86481552901803
  H   0.92855701411196     -1.12538338697161     -1.59669253910748
  N   1.29334257089125      0.96070288812154      1.13800677454257
  H   1.56388535778588      0.23374501879983      1.79031879539821
  H   2.13170118318654      1.45053693676113      0.85190374111646
