17
Coordinates from ORCA-job run
  C   -0.81574904359979      0.29534925871716      0.38035983035674
  C   0.74131874809029      0.40713315256086      0.37225510998527
  Cl  -1.37264525793433      0.47493557805038      2.08922100821158
  H   0.96487644259611      1.37570570780207      0.83306982309385
  C   -1.38793334265816      1.41185809927974     -0.37060776043475
  N   -1.81539210332081      2.30156418044993     -1.00876192071709
  C   -1.34608135033934     -1.02727291034011     -0.15402074887801
  H   -1.07795119895084     -1.14534851498808     -1.20585001094176
  H   -0.93016414986190     -1.85314633702791      0.42438169645203
  H   -2.43247006975893     -1.06028763103702     -0.06694520748376
  C   1.28892528175114      0.40212146657857     -1.04941062763214
  H   0.82249322295773      1.16514501866119     -1.67418040521068
  H   1.14668063267200     -0.57214217835540     -1.52554455010219
  H   2.36140478839440      0.59463754767602     -1.00408117053207
  N   1.42873680557210     -0.60400697563812      1.14533645995553
  H   1.08453101770531     -0.64701943858039      2.09591163807482
  H   1.34141957668499     -1.51822602380889      0.71986683580260
