17
Coordinates from ORCA-job run
  C   -0.85206591027850      0.30082793988473      0.13272966228141
  C   0.67445412262496      0.09729773421209      0.29363647499670
  Cl  -1.30115853158627      1.88579140810286      0.86687549684737
  H   0.87211534365587      0.24250250278379      1.36575208914832
  C   -1.20163819235910      0.34493845340806     -1.28669553842615
  N   -1.47121657120304      0.36818696023748     -2.42988376156752
  C   -1.64794509109112     -0.78667248112701      0.84185680436615
  H   -1.43613550183673     -1.74894852676769      0.37561196111744
  H   -2.71677474670335     -0.58159487928035      0.77345433119891
  H   -1.36514066761565     -0.81258867937138      1.89737008054232
  C   1.48672843634567      1.10149166131778     -0.50862545052270
  H   1.34950555392786      0.92269158817089     -1.57845532696426
  H   2.54733810963172      0.98684014799345     -0.27076189019831
  H   1.19800693659359      2.12856600985402     -0.28859440229384
  N   0.97834324695295     -1.25734383632758     -0.15346341925128
  H   1.85719678794339     -1.28729387355134     -0.65196942160535
  H   1.02938667499777     -1.90469212953981      0.62116231033080
