17
Coordinates from ORCA-job run
  C   -0.81121478975307     -0.12260800070638      0.34267556959634
  C   0.64955837460600      0.28716959108326      0.03570740563764
  Cl  -0.86582875638526     -1.68530837777799      1.22167602455190
  H   0.54505994286343      1.19403102512365     -0.58563248258613
  C   -1.38343133671125      0.90055290539811      1.22268938244117
  N   -1.81412880570430      1.77160455426123      1.88342270303560
  C   -1.67047148188708     -0.24255846384368     -0.91247607033247
  H   -1.63147664226168      0.68974250975923     -1.48184597119955
  H   -1.31466244967073     -1.06298237976038     -1.53509525067451
  H   -2.70631613634206     -0.44451428059853     -0.63854049396599
  C   1.40711936173215     -0.75972161105793     -0.76566020685876
  H   0.89151718905605     -1.03299204695224     -1.68643840814945
  H   1.56237821239915     -1.65402683080863     -0.16146940355481
  H   2.38495145893513     -0.35824739328107     -1.04552271362044
  N   1.35025974219229      0.53131270283657      1.28529477051265
  H   2.34762972455093      0.57848553243414      1.12075030500455
  H   1.06105639238029      1.40906056389064      1.70046484016227
