17
Coordinates from ORCA-job run
  C   -0.80379186794544      0.32539631104468      0.37881416615900
  C   0.75506274128557      0.39986719414541      0.35684514583224
  Cl  -1.34321245207177      0.56217865393652      2.08638061529158
  H   1.00527812623043      1.37503404541193      0.78920250129346
  C   -1.35721771512889      1.43389612356990     -0.39729532816480
  N   -1.79396648481360      2.30379042880407     -1.05610433454889
  C   -1.36943580653734     -0.99746481496936     -0.11765688395861
  H   -0.96451101366832     -1.81811066618630      0.47567559341643
  H   -1.11703613948933     -1.14669717157545     -1.16932515354426
  H   -2.45506359230962     -1.00435273953188     -0.01725178854610
  C   1.29028450701259      0.34410439691540     -1.06854857278397
  H   1.12026798986179     -0.63820459650345     -1.51822779967370
  H   2.36747201032339      0.51175015446958     -1.03724308249025
  H   0.83701205383304      1.10218392225593     -1.70901450089331
  N   1.42535123226067     -0.60618885308489      1.15137153884204
  H   1.08570622804141     -0.61869127784335      2.10447617586484
  H   1.31680018311545     -1.52849111085875      0.74890170790429
