14
Coordinates from ORCA-job run
  C   -0.54197609671122      0.01626578376666     -0.17952460997567
  C   0.97721896926476     -0.03643539999377     -0.07769748707666
  H   -0.80141155012850      0.52623348454994     -1.11091130545935
  H   1.39370055659392     -0.61305047873342     -0.90719072503516
  H   1.31648662888398     -0.45249571050021      0.87000465317682
  C   -1.08609080148587      0.80799831108528      0.92758150233120
  N   -1.51862442893226      1.41623693044813      1.83384058332883
  C   -1.12903061633849     -1.39912455265237     -0.17502437006659
  H   -0.74867493443057     -1.96483120101223     -1.02862961774918
  H   -0.86491940332150     -1.92810187554522      0.74292870087205
  H   -2.21676093266869     -1.36068027352418     -0.24579122720714
  N   1.58206818969572      1.32916830002841     -0.18153214800455
  O   1.09017792821040      2.09257583873507     -1.00844175232932
  O   2.54583649136830      1.56724084334790      0.53938780319470
