14
Coordinates from ORCA-job run
  C   -0.62473093762743      0.21265712237811     -0.24486194917422
  C   0.69489684889609      0.82558789415167      0.22803377890788
  H   -0.68495236713049      0.34522233283949     -1.32969810876088
  H   0.78153643118854      1.86929835820771     -0.07782965487394
  H   0.83079463338388      0.72726918864384      1.30398729481696
  C   -1.71973552873201      0.96663677161816      0.36867260685225
  N   -2.58926737654119      1.56547995081068      0.88233247937885
  C   -0.72303343796531     -1.27648689605278      0.09791399011974
  H   -1.68779494357209     -1.67631137780731     -0.21664087557522
  H   -0.61702741449879     -1.43371930131597      1.17330612398571
  H   0.05999952550014     -1.83509473352884     -0.41787577459707
  N   1.81901939497815      0.09084211522233     -0.42220952837535
  O   2.63582946503213     -0.46545144069731      0.30689201023355
  O   1.82546570708837      0.08407001553022     -1.65102239293824
