14
Coordinates from ORCA-job run
  C   -0.54014744672779      0.00233633061961     -0.18461087885495
  C   0.97829512598522     -0.02794220695724     -0.06400260640436
  H   -0.79494728921580      0.47657783598709     -1.13608146285860
  H   1.31164042768578     -0.40042760118826      0.90369066527027
  H   1.41049558300660     -0.63305995238603     -0.86466348522323
  C   -1.10546035431086      0.82814930949685      0.88646341204947
  N   -1.54635894212566      1.46972173245507      1.76534817743027
  C   -1.11140515293447     -1.41843211035592     -0.13581139276733
  H   -2.19832795844899     -1.39571436780059     -0.22274196255116
  H   -0.85428741982162     -1.91014198994170      0.80448038163744
  H   -0.71282166092454     -2.01076382812044     -0.96247694202960
  N   1.56756227571263      1.33973836527688     -0.21604729395458
  O   1.08242630879111      2.05954164783524     -1.08490717914502
  O   2.51333650332839      1.62241683507943      0.51236056740138
