14
Coordinates from ORCA-job run
  C   -0.54697911674760      0.00831879278370     -0.14476101501850
  C   0.97675493913437     -0.04910622817265     -0.13994542508098
  H   -0.86182632773268      0.47477810813584     -1.08227983172257
  H   1.33246746490967     -0.66108423807390     -0.97187263703277
  H   1.37497817006694     -0.42290395230781      0.80211779808196
  C   -1.01530951168178      0.85474956859514      0.95625680347099
  N   -1.38613490296310      1.50955322773259      1.85751480717165
  C   -1.13897184018698     -1.40087939952625     -0.03639280343698
  H   -0.82165889770239     -1.88655696058254      0.88852649813319
  H   -0.81392959343185     -2.00959088211754     -0.88309805394610
  H   -2.22880592430534     -1.35774527619129     -0.04253455779671
  N   1.56235442372922      1.31187041062380     -0.34352773014389
  O   2.46528169876215      1.65693209535146      0.41269137526696
  O   1.10277941814938      1.97266473374945     -1.27169522794625
