18

C	-0.311848	-0.04044	-1.517338
C	0.03069	-0.169871	-0.005031
Cl	-2.077207	0.382881	-1.703592
H	1.095215	-0.43953	0.001276
C	0.503947	1.032794	-2.217664
H	1.568082	0.845112	-2.061104
H	0.261732	1.060101	-3.282085
H	0.288581	2.001847	-1.770022
C	-0.134339	-1.328417	-2.189499
N	0.040632	-2.359556	-2.726268
C	-0.77795	-1.266039	0.679746
H	-0.389371	-1.381904	1.692362
H	-1.829649	-0.979469	0.752707
H	-0.710396	-2.225651	0.159799
N	-0.070166	1.069583	0.730879
H	0.784387	1.608307	0.591687
H	-0.881406	1.604594	0.445579
Br	3.240889	1.772405	0.014136
