17

C	-0.475867	-0.017203	-1.457408
C	0.0	0.0	0.0
Br	0.401512	1.389183	-2.448829
H	1.0918	0.0	0.0
C	-0.28552	-1.253587	-2.206241
N	-0.182769	-2.178398	-2.925814
N	-2.006818	0.228485	-1.428174
O	-2.451762	1.324594	-1.721822
O	-2.639958	-0.737346	-1.013642
N	-0.40653	-1.278235	0.680883
O	-1.124374	-1.204059	1.67837
O	0.043823	-2.317639	0.208467
C	-0.496536	1.201726	0.775249
H	-0.013375	1.196799	1.751854
H	-1.576903	1.189557	0.92344
H	-0.201556	2.114039	0.257278
Br	3.356953	0.0	0.0
