17

C	-0.420319	-0.007508	-1.4564
C	0.0	0.0	0.0
Br	-2.329728	-0.397244	-1.702094
H	1.093643	0.0	0.0
C	-0.156474	1.297625	-2.06006
N	0.052182	2.360196	-2.520763
N	0.415689	-1.071533	-2.2654
O	-0.169728	-1.8474	-2.996682
O	1.586562	-0.697469	-2.398795
N	-0.336042	-1.299777	0.618059
O	-1.087649	-1.328633	1.600936
O	0.006789	-2.30869	-0.019224
C	-0.556588	1.154726	0.790603
H	-0.209638	1.070972	1.821491
H	-1.650034	1.162892	0.796721
H	-0.181102	2.095626	0.384315
Br	2.923586	0.0	0.0
