17

C	-0.414241	0.005734	-1.449223
C	0.0	0.0	0.0
Br	-2.397936	-0.006718	-1.746488
H	1.115407	0.0	0.0
C	-0.009117	1.328783	-2.101857
N	-0.492482	2.377231	-2.063661
N	-0.042984	-1.231039	-2.256442
O	-0.390376	-2.31282	-1.709997
O	-0.01353	-1.083102	-3.511228
N	-0.502264	-1.108613	0.858696
O	-1.750347	-1.18177	1.035874
O	0.311556	-1.451644	1.766902
C	-0.429474	1.261908	0.765182
H	-0.217862	1.12639	1.835647
H	0.159045	2.125198	0.4372
H	-1.495953	1.479619	0.646537
Br	2.796443	0.0	0.0
