16

C	0.0	0.0	0.0
C	-0.419562	-0.104778	-1.504677
F	1.371375	0.0	0.0
H	-1.508827	-0.240654	-1.522816
N	-0.467711	1.271206	0.448985
H	-1.485131	1.270239	0.343087
H	-0.276764	1.308976	1.44552
N	-0.430367	-1.074977	0.83082
H	-0.174286	-1.970072	0.432428
H	-1.448789	-1.025714	0.869914
N	0.212683	-1.329855	-2.097626
O	1.204611	-1.197012	-2.809078
O	-0.298945	-2.404629	-1.785838
C	-0.009129	1.060148	-2.276242
N	0.287555	1.990426	-2.928003
Cl	-3.484256	0.0	0.0
