16

C	0.0	0.0	0.0
C	-0.473035	0.31724	-1.434689
F	1.388467	0.0	0.0
H	-1.570849	0.336202	-1.425042
N	-0.427335	1.097369	0.81989
H	-1.448647	1.058288	0.846005
H	-0.077977	0.949415	1.761209
N	-0.413639	-1.336036	0.311961
H	-1.435769	-1.340558	0.300669
H	-0.107473	-1.550741	1.25512
N	-0.054288	-0.793466	-2.359868
O	1.115716	-0.803003	-2.733734
O	-0.913063	-1.614832	-2.658435
C	0.093864	1.56899	-1.916559
N	0.532758	2.574509	-2.333471
Cl	-3.481947	0.0	0.0
