15

C	0.0	0.0	0.0
C	-0.597546	-0.000903	-1.401443
Cl	1.79929	0.0	0.0
H	-1.679205	-0.132011	-1.193797
H	-0.220051	-0.870096	-1.952192
C	-0.522855	1.16914	0.811145
H	-1.619885	1.065599	0.810776
H	-0.128123	1.143657	1.829125
H	-0.227409	2.092769	0.313268
C	-0.349101	-1.272808	0.653362
N	-0.557688	-2.288292	1.206736
N	-0.356638	1.261818	-2.086871
H	-1.242381	1.631965	-2.402491
H	0.244292	1.131634	-2.886476
H	-3.320264	0.0	0.0
