15

C	0.0	0.0	0.0
C	-0.401884	-0.364304	-1.473293
Cl	1.800207	0.0	0.0
H	0.300482	0.193771	-2.104731
H	-0.164009	-1.427383	-1.605205
C	-0.55397	1.343649	0.42211
H	-0.27071	2.100851	-0.310485
H	-1.647554	1.24362	0.454328
H	-0.174818	1.631732	1.402956
C	-0.386527	-1.049979	0.942109
N	-0.602827	-1.913259	1.709768
N	-1.744903	-0.083291	-1.900429
H	-2.471925	-0.290059	-1.172484
H	-1.845844	0.916461	-2.031055
H	-3.597985	0.0	0.0
