15

C	0.0	0.0	0.0
C	-0.53356	0.031547	-1.436741
Cl	1.801617	0.0	0.0
H	-0.144976	0.942092	-1.906508
H	-1.626692	0.116418	-1.297727
C	-0.529697	1.181698	0.785296
H	-1.62869	1.068747	0.767678
H	-0.23103	2.108614	0.287906
H	-0.149129	1.180471	1.809288
C	-0.36619	-1.270899	0.641595
N	-0.539675	-2.319665	1.142597
N	-0.240391	-1.123614	-2.26543
H	0.729243	-1.398918	-2.159474
H	-0.819015	-1.893945	-1.95128
H	-3.222921	0.0	0.0
