11
Coordinates from ORCA-job run
  C   -0.66310655170742     -0.37213188203394      0.26238447370126
  C   0.63475747677028     -0.70048523989201     -0.46674686024077
  F   -0.40179939800551     -0.50583153734925      1.63856324910799
  H   1.00629256981680     -1.66884700642274     -0.12542705848798
  H   -1.41902734033198     -1.12507341860297      0.02803590199567
  H   0.43916532065366     -0.75706908110562     -1.53984633882103
  N   -1.14711525648470      0.90588504786497     -0.08950609002861
  H   -0.48954781778880      1.63255132137905      0.16714210851523
  H   -2.03745285286618      1.09483467853871      0.35028815078580
  C   1.64861229304728      0.32209642675407     -0.21535807406651
  N   2.42922155689656      1.17307069086972     -0.00952946246106
