11
Coordinates from ORCA-job run
  C   -0.66237535877268     -0.40201394238093      0.22965659354735
  C   0.86104622843683     -0.48171875675201      0.23356047210029
  F   -1.09545386213509     -1.11053400352310      1.34311233982173
  H   1.21810714143677      0.01276736524789      1.14067847453046
  H   -1.07458503210329     -0.94383813203859     -0.63108544158791
  H   1.16312871347471     -1.53003084324170      0.27354872782609
  N   -1.09428026485245      0.95033727016259      0.35396004339990
  H   -0.53420722414196      1.58368060073192     -0.19959250669102
  H   -2.06666567447649      1.05748525327045      0.10070084061441
  C   1.43438024735409      0.16090389752548     -0.94458569616279
  N   1.85190508577958      0.70096129099803     -1.89895384739851
