11
Coordinates from ORCA-job run
  C   -0.71784929252723     -0.34054733865969     -0.15055193672635
  C   0.77109333042259     -0.65565919820375     -0.04634585278369
  F   -1.39060662163380     -1.50547033199649      0.19567212892087
  H   0.98620364843748     -0.90595733091914      0.99575953154115
  H   -0.99916845667661     -0.14855570629692     -1.19376729024849
  H   0.99503661324610     -1.52915406941331     -0.66171140089472
  N   -1.07943813997230      0.68534545719610      0.76991009531142
  H   -1.97915209616802      1.08793414900130      0.54736891130842
  H   -0.38769252737648      1.42043396553033      0.81658376303431
  C   1.58988826969547      0.47659637404281     -0.46765846511430
  N   2.20968527255279      1.41503402971877     -0.80225948434863
