11
Coordinates from ORCA-job run
  C   -0.70155533428853     -0.42308101147681      0.26532568118922
  C   0.65806940785342     -0.62136910690308     -0.42188585187640
  F   -0.50956633553642     -0.77414568545002      1.59260990122317
  H   1.02603223656723     -1.63201441730119     -0.22792682623681
  H   -1.42057136647188     -1.12853464969164     -0.16097746396231
  H   0.54043451840421     -0.50169015289912     -1.50261840261687
  N   -1.25689280651394      0.88366947264681      0.21262857427268
  H   -1.76911307383192      1.05457258539723     -0.63910193940541
  H   -0.56862189908413      1.60821094177709      0.36930309970545
  C   1.63098287558218      0.35568349820587      0.06024542455763
  N   2.36980177731979      1.17869852569486      0.45139780314965
