11
Coordinates from ORCA-job run
  C   -0.67252030750232     -0.38479722647248      0.22891211918349
  C   0.83555718482240     -0.56751929473498      0.08934583400653
  F   -1.07402553241219     -1.21419731086855      1.26807694615778
  H   1.05589662717819     -1.62846925838178     -0.04355045931129
  H   -1.19115403982360     -0.76851762026556     -0.65886720700308
  H   1.29876096901156     -0.23514082842168      1.02202860433468
  N   -0.98494243393936      0.96201223563704      0.57460214414698
  H   -1.96260215395512      1.16923836714337      0.42494478816309
  H   -0.42186095215792      1.62882933779844      0.06532779130529
  C   1.36668273576498      0.19894565730975     -1.03331325645573
  N   1.75020790301337      0.83961594125645     -1.93850730452773
