11
Coordinates from ORCA-job run
  C   -0.72106134792114     -0.41124330399596      0.12491616766682
  C   0.79879714489039     -0.56198492950934      0.17333359313765
  F   -1.19275642540742     -1.29570712572259      1.10416610316784
  H   1.13906420395416     -0.24866892049090      1.16532402855708
  H   -1.12083215109715     -0.78480608607419     -0.82112704726955
  H   1.07049446221016     -1.61226806444128      0.05203434860661
  N   -1.15430944922280      0.90435722629859      0.37814039970518
  H   -1.76774333141467      1.29699985573798     -0.31382405444685
  H   -0.44621732900978      1.55656216217665      0.67143177623238
  C   1.44957684551568      0.24788462673321     -0.85202109828493
  N   1.94498737750257      0.91087455928784     -1.68337421707225
