11
Coordinates from ORCA-job run
  C   -0.70596829024816     -0.41445752038420      0.26096348984961
  C   0.67895153315549     -0.63415597706564     -0.36593853934137
  F   -0.56063101524248     -0.70392766331197      1.60987925765359
  H   1.04865261107507     -1.62962334450391     -0.10749201748677
  H   -1.40420956455346     -1.14515164374962     -0.15702555066431
  H   0.59842969493775     -0.57050369944322     -1.45479538844571
  N   -1.26466290474591      0.88344091344404      0.12416417756216
  H   -1.78313184754770      0.99974970246095     -0.73222265324138
  H   -0.58472693278434      1.62255436667313      0.24063071707304
  C   1.62716977833948      0.37442319773138      0.10051971809626
  N   2.34912693761426      1.21665166814905      0.48231678894489
