14

C	0.029776	0.009779	0.021408
C	-0.566659	-0.203958	-1.375144
Cl	1.843512	-0.072115	-0.074802
H	-1.667871	-0.174223	-1.256632
H	-0.249109	0.596176	-2.048678
C	-0.284572	1.368497	0.470802
N	-0.488004	2.464833	0.840289
C	-0.47152	-1.025067	1.014772
H	-0.158356	-2.018815	0.688973
H	-0.065511	-0.826972	2.008019
H	-1.564693	-0.972704	1.025821
C	-0.171594	-1.489966	-1.937104
N	0.15366	-2.519098	-2.399134
Cl	-3.734629	-0.305737	-0.318825
