14

C	0.032378	0.007472	0.023888
C	-0.562096	-0.163365	-1.379444
Cl	1.846222	-0.069959	-0.072887
H	-1.663512	-0.139727	-1.261884
H	-0.245273	0.658385	-2.026825
C	-0.283661	1.350871	0.515999
N	-0.487844	2.431279	0.929395
C	-0.469845	-1.058143	0.983782
H	-1.563043	-1.006373	0.994013
H	-0.065494	-0.891053	1.983367
H	-0.155433	-2.040988	0.627463
C	-0.163819	-1.430064	-1.981523
N	0.162582	-2.44387	-2.475519
Cl	-3.73177	-0.301311	-0.330822
