15

C	0.0	0.0	0.0
C	-0.533545	-0.069517	-1.418926
F	1.386264	0.0	0.0
H	-1.636951	-0.146903	-1.31527
H	-0.336723	-0.904206	0.508585
C	-0.468396	1.245881	0.71363
H	-0.05841	2.132287	0.223922
H	-1.557958	1.278345	0.712979
H	-0.105612	1.218397	1.74329
N	-0.04886	-1.333998	-2.08674
O	-0.180051	-2.366825	-1.440118
O	0.418821	-1.255391	-3.219951
C	-0.15268	1.082935	-2.224909
N	0.113769	2.048303	-2.83774
Cl	-3.572223	0.0	0.0
