15

C	0.0	0.0	0.0
C	-0.543758	-0.20806	-1.402149
F	1.38618	0.0	0.0
H	-1.648285	-0.255613	-1.283535
H	-0.334659	-0.848486	0.597866
C	-0.463637	1.312265	0.589438
H	-0.077124	1.396099	1.607308
H	-1.552302	1.337787	0.608758
H	-0.072206	2.143794	-0.000215
N	-0.096038	-1.54433	-1.94405
O	0.294006	-1.600585	-3.106402
O	-0.184854	-2.494527	-1.176512
C	-0.151133	0.848931	-2.323798
N	0.132035	1.736167	-3.039388
Cl	-3.582089	0.0	0.0
