15

C	0.0	0.0	0.0
C	-0.414287	-0.485403	-1.415844
F	1.38671	0.0	0.0
H	0.530442	-0.562935	-1.968175
H	-0.338849	-0.753509	0.710967
C	-0.413179	1.380825	0.461011
H	-1.488843	1.506954	0.386376
H	-0.111073	1.467628	1.508451
H	0.110223	2.136056	-0.122208
N	-1.213127	0.438175	-2.311921
O	-0.908248	1.62425	-2.27392
O	-1.973608	-0.084273	-3.111723
C	-1.006712	-1.819193	-1.404219
N	-1.301303	-2.955655	-1.399811
Cl	-3.332861	0.0	0.0
