12

C	0.0	0.0	0.0
C	-0.494879	0.101206	-1.429251
Cl	1.759992	0.0	0.0
H	-1.591116	0.183808	-1.376819
H	-0.392803	-0.858905	0.535856
H	-0.064829	0.991506	-1.892627
N	-0.408013	1.21754	0.795822
O	-0.515965	2.275099	0.18785
O	-0.504916	1.057333	2.004773
C	-0.096996	-1.080054	-2.18459
N	0.241294	-2.021816	-2.798707
Cl	-3.348337	0.0	0.0
