12

C	0.0	0.0	0.0
C	-0.494282	0.101963	-1.42939
Cl	1.760071	0.0	0.0
H	-1.590908	0.179832	-1.37797
H	-0.392526	-0.859467	0.535192
H	-0.068006	0.995407	-1.890221
N	-0.40828	1.216717	0.796734
O	-0.516632	2.27484	0.18978
O	-0.504687	1.055389	2.005561
C	-0.089355	-1.07535	-2.187214
N	0.255818	-2.013793	-2.802589
Cl	-3.348556	0.0	0.0
