12

C	0.0	0.0	0.0
C	-0.273611	0.190862	-1.504016
Cl	1.76232	0.0	0.0
H	0.239237	-0.646623	-1.987428
H	-0.414055	-0.889368	0.45893
H	0.281297	1.087044	-1.788706
N	-0.411907	1.177505	0.842761
O	-0.522541	0.960382	2.042016
O	-0.485816	2.265563	0.286128
C	-1.577219	0.304359	-2.166858
N	-2.249392	0.473882	-3.120793
Cl	-3.072314	0.0	0.0
