12

C	0.0	0.0	0.0
C	-0.268343	0.320737	-1.483894
Cl	1.762383	0.0	0.0
H	0.26306	-0.460107	-2.03695
H	-0.416318	-0.925303	0.378616
H	0.270761	1.249712	-1.680284
N	-0.406888	1.100674	0.942491
O	-0.478771	2.233916	0.485205
O	-0.514218	0.779116	2.118177
C	-1.568689	0.467597	-2.145059
N	-2.250103	0.701453	-3.07883
Cl	-3.078633	0.0	0.0
