11
Coordinates from ORCA-job run
  C   1.22400933642314      0.07890798680232      0.02168950833312
  C   -0.14234501366183     -0.52360358038388     -0.23913268987517
  Cl  2.53398390825124     -1.02149419451374     -0.49990036221189
  H   -0.21840245554040     -1.47740297976962      0.29018035393645
  H   1.37387886580583      0.26999498659133      1.08491745048987
  H   1.35470475992224      1.01172051692893     -0.52804529683104
  H   -0.23738557669532     -0.74334900068160     -1.30607725512492
  C   -1.25551034541619      0.42044227307432      0.20822675450364
  H   -1.20822668534101      1.37179061491332     -0.32781499782059
  H   -2.23659811824949     -0.01926110559568      0.01771008449092
  H   -1.18910867549821      0.63325448263429      1.27824645010961
