11
Coordinates from ORCA-job run
  C   1.26197103473115     -0.15739821048051      0.10917403680841
  C   -0.16498441863271     -0.59706495879150     -0.15954392136883
  Cl  1.78310803714921      1.13326668523841     -1.01768018461658
  H   -0.35777913642102     -1.46641653404354      0.48033165857055
  H   1.96123933659651     -0.98330510664709     -0.02016570267483
  H   1.36669301360060      0.24359877641155      1.11841525004762
  H   -0.24149629743810     -0.94081313944460     -1.19517660220866
  C   -1.20193071533072      0.48498565968140      0.11625998534774
  H   -1.14313691884795      0.82596730503603      1.15353928981566
  H   -1.05275540276048      1.34953229857371     -0.53178119405208
  H   -2.21192853264648      0.10664722446615     -0.05437261566902
