16
Coordinates from ORCA-job run
  C   -0.81105652747687      0.04062344929240      0.00198892268262
  C   0.64281736012381      0.43995622396244     -0.32057717222306
  Cl  -1.89851084126195      0.62496590273100     -1.34105750339407
  H   0.67544024266526      1.50710127550153     -0.56960102916048
  N   -1.14462731882275      0.70914992433506      1.23947485397793
  H   -1.29775636560107      1.69970038641965      1.08039800569102
  H   -2.00121718929039      0.32072412217593      1.61664406400201
  N   -0.90107785919952     -1.37460743373881      0.04534479548546
  H   -0.14967864098258     -1.74981785612142      0.61156313157045
  H   -1.80805836532727     -1.69429889015968      0.35714716459949
  N   1.11076782247358     -0.23044245539867     -1.59443376999715
  O   1.60504796608512     -1.34774692380278     -1.51333572429352
  O   0.96716039068430      0.42711759824034     -2.62263689801659
  N   1.46281451125234     -0.00980403292215      0.76566803437581
  H   1.11376225982056      0.40265252624278      1.62128703015037
  H   2.43417255485744      0.23472618324237      0.62412609454972
