16
Coordinates from ORCA-job run
  C   -0.66363593627287      0.06730774658998      0.47477059749628
  C   0.69616167495891      0.60935288186499     -0.01555511096712
  Cl  -1.00451911577118      0.96024766587918      2.03661280743819
  H   0.66478655872476      1.69644823150519     -0.10568123238607
  N   -0.54114937362884     -1.32644804930812      0.82074108266070
  H   -0.70563040348445     -1.88552741048447     -0.00817903202680
  H   -1.18912489070548     -1.58325497361007      1.55222676492347
  N   -1.65157421032065      0.29527881357130     -0.51927081295795
  H   -1.68551729713026      1.25977371560043     -0.82749712110242
  H   -2.56572139967499      0.01033061503233     -0.19148015113660
  N   0.82530920144809      0.13782015622759     -1.47588355442553
  O   0.57697443640342      0.96361223974882     -2.35022232715574
  O   1.16919045663006     -1.02693354694406     -1.65788875670762
  N   1.73817764941639      0.17673032667855      0.81887636319651
  H   1.68709664734053     -0.82448069565415      0.95447088455849
  H   2.64817600206656      0.46974228330250      0.49495959859222
