16
Coordinates from ORCA-job run
  C   -0.69599988680732     -0.30658601059435      0.16104131222093
  C   0.64664633379744      0.42043947366351     -0.01331064765055
  Cl  -0.44379788524753     -2.06948131056020     -0.30747968347762
  H   0.49513478724147      1.46005623883951      0.28333138051545
  N   -1.67913229743027      0.18431782256066     -0.75889933482509
  H   -1.83627946521283      1.16902044099742     -0.56832043680395
  H   -2.55341348965709     -0.31007003065481     -0.61861931241319
  N   -1.04436116587754     -0.16363958343661      1.53616696276561
  H   -1.90998909077237     -0.65284036457136      1.73351429083169
  H   -0.30731225927545     -0.52057136822160      2.13362768432962
  N   1.00066224386100      0.52182798933896     -1.49805065965681
  O   1.76970221982561     -0.32100629819717     -1.95241075540846
  O   0.51125575711074      1.46513200035447     -2.11027834169139
  N   1.65444584517878     -0.18698586185978      0.77761490864503
  H   1.91079133993871     -1.08296305351918      0.37982852126092
  H   2.48064701332662      0.39434991586053      0.82324411135781
