16
Coordinates from ORCA-job run
  C   -0.76571530995286      0.08338018239705      0.42128563830617
  C   0.66141164809145      0.43824266452361     -0.07505232979009
  Cl  -0.82157366889961      0.97922456047260      2.08072656569622
  H   0.72354124657605      1.52108560212947     -0.23315935979541
  N   -0.85976253104200     -1.30408745084669      0.49874546771242
  H   -1.74568003807772     -1.60182764345046      0.88229294750653
  H   -0.06362823519172     -1.71186532795278      0.97151083575681
  N   -1.89056831704060      0.59666237230339     -0.28639445334241
  H   -1.87904443807372      0.24052605671742     -1.23430575554997
  H   -1.88610208523622      1.60780781645760     -0.30487587060954
  N   0.82246839560190     -0.15261454189176     -1.45761830888844
  O   0.12411977417341      0.35093940393018     -2.33461940639491
  O   1.61741469932958     -1.07115959688942     -1.61941324054321
  N   1.65141275340580     -0.14899413548060      0.78664886866947
  H   1.77864403491668      0.43382587195605      1.60265847958966
  H   2.53106207141957     -0.26114583437566      0.30056992167671
