16
Coordinates from ORCA-job run
  C   -0.74187237062263     -0.10616602556135      0.27674714387982
  C   0.65674461617156      0.44059363170673     -0.04915021059132
  Cl  -0.62785250361394     -1.96576319294892     -0.37435209281461
  H   0.62309878912832      1.51640010245580      0.13982583407621
  N   -1.78589854404254      0.55932844428871     -0.37174209013388
  H   -1.68074634152770      0.55979143402634     -1.37575685847961
  H   -2.68813304976905      0.18539709724580     -0.10885860597763
  N   -0.90387306448338     -0.10145018669378      1.66577952370511
  H   -1.77593657602399     -0.52292984317577      1.95580733518067
  H   -0.11377956894614     -0.53291096033226      2.12452469253933
  N   0.94483210599779      0.32895148164414     -1.55732844019106
  O   1.94497504469107     -0.29047900321582     -1.89467371556314
  O   0.17814120952406      0.91712343280512     -2.31644745301999
  N   1.64421014318108     -0.18671858804329      0.74522789269552
  H   2.51336491145671      0.32764371625540      0.72212816119607
  H   1.81272519887878     -1.13081154045686      0.41926888349851
