11
Coordinates from ORCA-job run
  C   -0.17090152385898      0.17110332437944      0.01884629187057
  C   1.16458195639747     -0.00523662606724     -0.14491678287079
  H   1.78968138517293      0.82517471368562     -0.44245093413015
  N   -1.09668719355143     -0.70993195278378      0.46382524100669
  H   -0.83525205860062     -1.68385874159755      0.46519370579649
  H   -2.05600835535275     -0.49101168994894      0.24691791474296
  N   -0.73240093266684      1.51738887946787     -0.25493239883119
  O   0.05070118639325      2.43530017094062     -0.46730078691908
  O   -1.96045058990987      1.60405695810780     -0.25906826536120
  C   1.71929511949834     -1.28755107904019      0.08666374458581
  N   2.12644100647850     -2.37543395714366      0.28622227010989
