11
Coordinates from ORCA-job run
  C   -0.32479616899762     -0.10353371902861      0.10092678091999
  C   0.84043749422012     -0.79401984952826      0.03436411109885
  H   0.78402016858046     -1.87207073143484      0.15943798335303
  N   -1.55892893955715     -0.60624348578764      0.38366490474964
  H   -2.32729243599199     -0.04604025167899      0.04630325057377
  H   -1.66988300419213     -1.60139340968060      0.27467353024491
  N   -0.35673545670986      1.36695736045280     -0.08405277002212
  O   -1.44712604911474      1.84790175708202     -0.39550786527086
  O   0.68576420378186      1.98918142315911      0.07654063481502
  C   2.13178234293641     -0.25852445258944     -0.19674140634774
  N   3.24275784504463      0.07678535903446     -0.39860915411451
