11
Coordinates from ORCA-job run
  C   -0.19359203196764      0.12196657207822     -0.08306697339962
  C   1.14408975444928     -0.02087509350269     -0.26059855525350
  H   1.69379698091320      0.70062666644434     -0.84796344085509
  N   -1.06394461152211     -0.71181482678195      0.53355169725503
  H   -1.93791763028450     -0.30192473971762      0.82292940981107
  H   -0.66686137017840     -1.41618939323018      1.13628462712182
  N   -0.85072065283700      1.30945879233161     -0.68269774750516
  O   -2.01629122048709      1.51430532294889     -0.34324719178201
  O   -0.19626101274559      2.00217047707935     -1.45214726448302
  C   1.79729754410450     -1.13046773112056      0.32949407151362
  N   2.28940425055534     -2.06725604652942      0.84846136757685
