11
Coordinates from ORCA-job run
  C   -0.16607515119755      0.17693893913658      0.01189089382298
  C   1.12984443053868     -0.05879841939358     -0.31399536946995
  H   1.70007041402374      0.68686864972032     -0.84963651560339
  N   -1.00821118731007     -0.58078382538388      0.75343868653168
  H   -0.74088308933645     -1.54165720475308      0.90266031942210
  H   -1.99098111932767     -0.39309980974328      0.63293744791361
  N   -0.77068785056292      1.45913639038427     -0.42655702100352
  O   -0.03003813891618      2.31263694780397     -0.89939404917665
  O   -1.99022725617052      1.55932652789165     -0.28936728798215
  C   1.71788046423134     -1.28889411138792      0.06960222251999
  N   2.15030848402760     -2.33167408427504      0.40842067302530
