11
Coordinates from ORCA-job run
  C   -0.32475409022902     -0.13216370517408     -0.05875306055682
  C   0.88284771656152     -0.74816688933830     -0.02102120909959
  H   0.88315345196197     -1.83488523374075     -0.01961351464648
  N   -1.54452001302458     -0.72760559884844     -0.16875118464125
  H   -1.58684416003005     -1.70673160007585      0.06299994585807
  H   -2.31608307598995     -0.16965897509732      0.16450110680376
  N   -0.43237367218546      1.34660571171355     -0.03902863542834
  O   0.55307305789892      1.99872661012050     -0.36093821557094
  O   -1.52140201051222      1.80390269785740      0.31032051588061
  C   2.15287791403778     -0.12228897799023      0.03363997981391
  N   3.25402488151108      0.29126596057352      0.09664427158707
