11
Coordinates from ORCA-job run
  C   -0.15282560514900      0.18416001376318      0.04478812054158
  C   1.04240507896565     -0.10392765732681     -0.52926674787041
  H   1.52569816149570      0.61772473076309     -1.17245067614480
  N   -0.86308084736123     -0.54071340230261      0.94101009111420
  H   -1.84159139614700     -0.31154899550426      1.01572500919317
  H   -0.61196979871642     -1.51248246654145      1.03920065055349
  N   -0.77948637580929      1.49096466807880     -0.27345810863683
  O   -1.94443457092310      1.63911090320786      0.09680062970112
  O   -0.11114541973948      2.31604852015058     -0.88424658167442
  C   1.64341757241416     -1.35884232217366     -0.26409698680040
  N   2.09301320097002     -2.41949399211471     -0.01500539997670
