11
Coordinates from ORCA-job run
  C   -0.32402532667203     -0.12363366385898      0.07816771714558
  C   0.83605375923300     -0.78176327997128     -0.16778629511398
  H   0.77453721463958     -1.85880504500979     -0.29869865495781
  N   -1.55711587206553     -0.67556132595406      0.25003694161414
  H   -2.32686723540909     -0.04772314023674      0.07411325886799
  H   -1.67731650877484     -1.61447459052034     -0.09378289411902
  N   -0.34919712137669      1.34875134008265      0.24829211270860
  O   -1.44169534788853      1.89282028272997      0.08190085867494
  O   0.70003598338760      1.91243955642819      0.53362150643339
  C   2.12695976864871     -0.20986786385538     -0.28649899018795
  N   3.23763068627782      0.15881773016577     -0.42036556106587
