11
Coordinates from ORCA-job run
  C   -0.32888398291951     -0.12020794998434     -0.06119903592775
  C   0.86932378785588     -0.75061899285552     -0.13923570471050
  H   0.85245219384522     -1.83018921875401     -0.26244070135840
  N   -1.56083659513776     -0.68551218758044     -0.19124450581948
  H   -1.60947897481663     -1.68418953111885     -0.07128385918322
  H   -2.31162796119169     -0.16060468281090      0.23105318066888
  N   -0.41241938901013      1.34759455868300      0.13079619304335
  O   -1.48246364520241      1.77510848209177      0.56599009808940
  O   0.57287143084750      2.02034328817594     -0.14592571379103
  C   2.15047306693683     -0.15042381310435     -0.06184182243562
  N   3.26059006879271      0.23770004725770      0.00533187142437
