11
Coordinates from ORCA-job run
  C   -0.17915197749373      0.16329188233159     -0.01711001227310
  C   1.13923948926065     -0.02230893631871     -0.27904301652694
  H   1.67150830182410      0.67664187134444     -0.90857344099172
  N   -0.98975549702901     -0.53816338858833      0.80947642884951
  H   -0.66256225859186     -1.44520482736043      1.10469838255572
  H   -1.97922038244269     -0.43856916750065      0.64681414245652
  N   -0.85751465364012      1.31921175612777     -0.65446651277466
  O   -2.08467363197946      1.34892213014018     -0.55872413386730
  O   -0.16363724917834      2.14566803070956     -1.23413438023695
  C   1.80266396680685     -1.13377061720967      0.29570248003010
  N   2.30410389246363     -2.07671873367575      0.79436006277882
