11
Coordinates from ORCA-job run
  C   -0.31307618180004     -0.08891169047596      0.14332846771081
  C   0.88897124321734     -0.71525384023019      0.19185136880743
  H   0.98704995388103     -1.54166959027052      0.89075676782839
  N   -1.43949560761158     -0.42831169689918      0.82922248861927
  H   -2.10826668701461      0.31938166430460      0.93575387116287
  H   -1.30976582153173     -1.01234048294067      1.63935952002557
  N   -0.54266230951289      1.06227903868506     -0.76279640697671
  O   -1.50717429684972      1.77905100033326     -0.49184332828353
  O   0.23140432059013      1.22000450398339     -1.69872996502836
  C   2.04583999733887     -0.39334480186637     -0.56022825304261
  N   3.06717538929320     -0.20088410462342     -1.11467453082313
