11
Coordinates from ORCA-job run
  C   -0.19982162187828      0.13158640349429     -0.04260792208906
  C   1.08931013254416     -0.01239906984316     -0.44144823776576
  H   1.55912880615774      0.74739609817164     -1.04971757101727
  N   -0.98221126819706     -0.74019609781931      0.63604496705491
  H   -1.78922672196906     -0.34552038006984      1.09265880248773
  H   -0.51403624756184     -1.49861071477204      1.10793389637092
  N   -0.91368886455332      1.37265505624563     -0.43195487210475
  O   -2.00156518156814      1.56661735980389      0.11104133936086
  O   -0.37459183136397      2.11606625517010     -1.24288912471411
  C   1.79657249931767     -1.17570827457720     -0.05054804676071
  N   2.33013029907210     -2.16188663580401      0.31248676917726
