11
Coordinates from ORCA-job run
  C   -0.19380673499425      0.12923292515431     -0.07015856900294
  C   1.12491257677075     -0.05753513014234     -0.33025502300805
  H   1.66181898853042      0.64623330404784     -0.95056309716733
  N   -1.05175140736761     -0.67697056539287      0.59759629642084
  H   -0.64500485974336     -1.39976139779427      1.17113549394528
  H   -1.89399285518226     -0.24079478406169      0.93761213300837
  N   -0.84665526476436      1.34066053984984     -0.62554234060831
  O   -0.21914619791126      2.01250083974523     -1.43508795538365
  O   -1.97987885317516      1.58506067634632     -0.21073789028568
  C   1.77557967390505     -1.19123664366444      0.21537200101643
  N   2.26592493393204     -2.14738976408794      0.69962895106505
