11
Coordinates from ORCA-job run
  C   -0.20566155898791      0.12096419421703     -0.04845228158672
  C   1.04371032505068     -0.10992045637690     -0.52477715099487
  H   1.44884132897644      0.51104435251498     -1.31120252626555
  N   -0.91685689800879     -0.59173520986192      0.85630555387000
  H   -1.68397972307539     -0.10770536140042      1.29527161732033
  H   -0.40155072808726     -1.24535382432751      1.42566818526978
  N   -0.96262403433033      1.26712445485176     -0.61073639887128
  O   -2.00140325219267      1.57173162918685     -0.02406895332452
  O   -0.50484546023753      1.83054318623374     -1.59730637320102
  C   1.79854477675227     -1.17618426551318      0.02229320920950
  N   2.38482522414048     -2.07050869952443      0.51800511857436
