11
Coordinates from ORCA-job run
  C   -0.18013363156405      0.16266394630019      0.00681877318296
  C   1.14628065098476      0.03814232958475     -0.25106716724032
  H   1.68391592139374      0.84097434978901     -0.73549026642981
  N   -0.99919633263031     -0.67997215949239      0.67859957264351
  H   -1.98614110890292     -0.56304727921098      0.51205295870626
  H   -0.66603362918989     -1.62059151749173      0.82292716954135
  N   -0.85971478431194      1.40641370096187     -0.43329310871168
  O   -0.16402839071788      2.32915292382609     -0.83945080415513
  O   -2.08910435300821      1.40629944420835     -0.36563541480644
  C   1.80897378798472     -1.15289407008232      0.13430011169541
  N   2.30518186996196     -2.16714166839284      0.47223817557388
