11
Coordinates from ORCA-job run
  C   -0.32877102079645     -0.13382999809647     -0.01895642310126
  C   0.86805012834992     -0.75252367973967      0.13663109126940
  H   0.84851423563818     -1.80854457277960      0.39234108632813
  N   -1.56128605571566     -0.70984318866106      0.04034613356193
  H   -2.31445675314540     -0.07195912833120      0.24923582138396
  H   -1.61409319570626     -1.60607528190364      0.49651650666508
  N   -0.40926736152309      1.31025255219514     -0.34467328060912
  O   0.57945992825028      1.84577331102467     -0.83017347427414
  O   -1.48110564901816      1.86179853221724     -0.09109215136100
  C   2.15051739738834     -0.16242222153560      0.01521638540967
  N   3.26043834627830      0.22737367561017     -0.04539169527264
