11
Coordinates from ORCA-job run
  C   -0.30223972657047     -0.10871408788368      0.14996290032574
  C   0.89877843859840     -0.73061478112567      0.12508940244275
  H   1.01477031589909     -1.58143651019132      0.79400783456675
  N   -1.40019182088145     -0.46564184194322      0.88569384695085
  H   -2.02839639829345      0.30686862222545      1.05293734763564
  H   -1.17344412375084     -0.99834836392111      1.71049340294998
  N   -0.59501094476502      1.05249869856171     -0.70944226112016
  O   -1.59854943780948      1.70701616458684     -0.41422296120779
  O   0.20023375524972      1.31329986384887     -1.60837789777993
  C   2.00868008503377     -0.37166623973297     -0.68033025647102
  N   2.97436985728974     -0.12226152442491     -1.30581135829278
