11
Coordinates from ORCA-job run
  C   -0.29003145145623     -0.09579219744661      0.18218273286382
  C   0.90603491247947     -0.71858119491191      0.03783945231839
  H   0.97733604942243     -1.74111795669117      0.39882306935406
  N   -1.40028548449918     -0.58840274567444      0.79789524528988
  H   -2.26613357016648     -0.15762460275589      0.51077466164156
  H   -1.43491592225255     -1.58673895065842      0.92552784569619
  N   -0.49581309737022      1.29091871469895     -0.30019633053024
  O   0.49414726082174      1.98854702635207     -0.48273307939900
  O   -1.66537000945231      1.63005378512836     -0.48535494120106
  C   2.07712578672389     -0.18046284432945     -0.55092902292924
  N   3.09690552574941      0.15920096628849     -1.03282963310436
