11
Coordinates from ORCA-job run
  C   -0.19836672918575      0.13727435057364     -0.03069312249928
  C   1.03796780866835     -0.09289261274409     -0.54023569717572
  H   1.47354138718131      0.60162192541045     -1.24453765250784
  N   -0.94319672314316     -0.64852810030047      0.78161061597459
  H   -1.68740820972289     -0.18805322169298      1.28116393563634
  H   -0.46092965096108     -1.39326898277064      1.26078861987669
  N   -0.89838745088394      1.37972011519861     -0.44045042757702
  O   -1.92188014005153      1.65789486641223      0.18499016813798
  O   -0.41186859679083      2.04117114257143     -1.34948447643103
  C   1.73660214218000     -1.25776281047431     -0.13885838852162
  N   2.27292616270951     -2.23817667218385      0.23570642508692
