11
Coordinates from ORCA-job run
  C   -0.19546064271208      0.12380984999627     -0.07568402769345
  C   1.14616985474066      0.02352046408826     -0.25262609432230
  H   1.68388329437461      0.79461268376388     -0.78591120333377
  N   -1.04966119047782     -0.76981566679296      0.47576830291650
  H   -1.93570025135393     -0.40221103748515      0.78424120445493
  H   -0.64094363986476     -1.50685730805147      1.02954996150649
  N   -0.87631905700063      1.33473652692880     -0.59667594002738
  O   -0.23430626643762      2.09194830210175     -1.31433052369205
  O   -2.04726909476525      1.49095730689383     -0.24951108595879
  C   1.82084572799464     -1.10943725744401      0.26455255804351
  N   2.32976126550216     -2.06926386399919      0.72162684810632
