11
Coordinates from ORCA-job run
  C   -0.27816131525841     -0.09265840660541      0.20106124349942
  C   0.84069264634674     -0.78452739055090     -0.12860087906753
  H   0.85925012713259     -1.84203018154222      0.12114102106842
  N   -1.36114892541827     -0.56327050777293      0.87932605753626
  H   -1.46868651774646     -1.56412223834100      0.91062613039251
  H   -2.21084931159413     -0.04054496714999      0.72916435876946
  N   -0.41075618881287      1.34921569725162     -0.11833292217763
  O   0.61245580975514      1.98572927861444     -0.33708580267702
  O   -1.55941690058016      1.79319298283579     -0.14304287941017
  C   1.99089637547683     -0.27652377675705     -0.78187176702219
  N   2.98472420069900      0.03453951001764     -1.33238456091153
