11
Coordinates from ORCA-job run
  C   -0.18904851873284      0.13488260311319     -0.06982094604921
  C   1.16414799086774      0.06407938324728     -0.14269389448655
  H   1.73515087131771      0.91523007845688     -0.48540183303952
  N   -1.07671561712319     -0.83805956723332      0.24234955389614
  H   -1.99123407733184     -0.52612711804424      0.52831553504471
  H   -0.70974659974158     -1.66024487467956      0.69639345802901
  N   -0.83770473557804      1.41966855639749     -0.43357804715646
  O   -0.14494472372506      2.28834559443043     -0.94919564836596
  O   -2.03687702962745      1.51564474442780     -0.17125744201984
  C   1.80511963805471     -1.14313319291186      0.22884903409422
  N   2.28085280161984     -2.17028620720410      0.55704023005345
