11
Coordinates from ORCA-job run
  C   -0.19095934740358      0.14847886874632     -0.02218507378829
  C   0.97618438673558     -0.19775286971632     -0.62134511137682
  H   1.39430569336046      0.42616265272646     -1.39839952055982
  N   -0.91264919254879     -0.53649873478838      0.89564912247221
  H   -1.57549281748240      0.00431680724278      1.42842309548726
  H   -0.44182687853590     -1.28760242857070      1.37626271065018
  N   -0.83757354291459      1.41647845839606     -0.44258473209562
  O   -1.78096847680784      1.80018526309680      0.24943683221575
  O   -0.38827041194067      1.99329300583050     -1.42544798719137
  C   1.62817714275707     -1.38675397778057     -0.21235434636032
  N   2.13007344478067     -2.38130704518295      0.17254501054685
