11
Coordinates from ORCA-job run
  C   -0.17394425205752      0.17053705615669     -0.00784274320287
  C   1.12217392328333     -0.05554696578172     -0.34014456954876
  H   1.63727490361639      0.61801328382227     -1.01023671312361
  N   -0.95457139450033     -0.49602943287086      0.87437203186417
  H   -1.94871941823393     -0.37543898894391      0.76379115569166
  H   -0.63258216606924     -1.40474862278267      1.16988950988042
  N   -0.85752980951634      1.33214418743155     -0.62814574091216
  O   -0.17635187080702      2.13027712617306     -1.26027071717364
  O   -2.07639576188220      1.39559150077844     -0.46546400605450
  C   1.78283226958062     -1.18059143543284      0.21121359009792
  N   2.27881357658625     -2.13520770855001      0.69283820248137
