11
Coordinates from ORCA-job run
  C   -0.31888917154044     -0.14388116247715      0.06636110206910
  C   0.87292882157462     -0.72944552606888     -0.20990025882271
  H   0.86060356700678     -1.79198966833359     -0.43626254562334
  N   -1.52830632673570     -0.76078398867760      0.16497691327511
  H   -2.32325524808137     -0.15318119305944      0.03764544792820
  H   -1.60358779933958     -1.67113775286210     -0.25836754867240
  N   -0.41170377648048      1.30646342501296      0.35418819739014
  O   -1.52633852147382      1.81370256011197      0.22088605526414
  O   0.60988900135556      1.89149145678167      0.69236498970742
  C   2.13780565776498     -0.09433631689897     -0.26842449037227
  N   3.23185379594944      0.33209816647113     -0.36346786214340
