11
Coordinates from ORCA-job run
  C   -0.32745186421949     -0.12897815215595      0.04888842475528
  C   0.86994467110603     -0.76316892278048     -0.00889009788128
  H   0.88832617009263     -1.81140423553097      0.27743274671488
  N   -1.53255158232417     -0.68159938054598      0.35945893454564
  H   -1.50924602313774     -1.56491357890835      0.84250613781079
  H   -2.22416224004599     -0.02450879256193      0.68727250628584
  N   -0.45246605842545      1.30706729451618     -0.29874511552221
  O   -1.45311243934021      1.88181148323105      0.13213396652285
  O   0.43445861255874      1.81413909304238     -0.97420976270565
  C   2.11193013917333     -0.19851309579927     -0.39138253830979
  N   3.19433061456233      0.17006828749331     -0.67446520221634
