11
Coordinates from ORCA-job run
  C   -0.18586475570848      0.14858256529277     -0.05018544837842
  C   1.07384864158499     -0.17068597685364     -0.44038919669502
  H   1.61709562602593      0.48069820630254     -1.11028146132424
  N   -1.05289006907059     -0.57030235607735      0.70086648785288
  H   -0.66743805394010     -1.33465475024351      1.23379154717642
  H   -1.80491229994807     -0.04994557416875      1.12423601021144
  N   -0.76044230273856      1.42695660602863     -0.53782079720680
  O   -1.80888274739533      1.78989323095997     -0.00395653874436
  O   -0.15671814624560      2.03111005314038     -1.41604906811197
  C   1.65466368147049     -1.37177240267535      0.03556249735741
  N   2.09154042596531     -2.37887960170568      0.46422596786266
