11
Coordinates from ORCA-job run
  C   -0.24317917285028     -0.00285331423806      0.25980881386459
  C   0.88422818843423     -0.73974210983762      0.10131606102445
  H   1.02127216479723     -1.58304199272946      0.77290732657182
  N   -1.19690629938443     -0.16150382718959      1.21910178062133
  H   -2.09965408992249      0.21996725193856      0.97965600678168
  H   -1.21516660093327     -1.05317801546021      1.68690912631826
  N   -0.53375663494602      1.15291773797116     -0.62181551106518
  O   0.40055946086978      1.66191620941985     -1.22848442006416
  O   -1.71192685263910      1.50819739212346     -0.67536106361696
  C   1.90325913426997     -0.53434455906805     -0.86146426082753
  N   2.79127070230439     -0.46933477293004     -1.63257385960829
