11
Coordinates from ORCA-job run
  C   -0.19200216020708      0.13657719143780     -0.06147945412451
  C   1.14304436408172      0.00769348651622     -0.26720244458199
  H   1.70038238647620      0.80415476636669     -0.73954808087637
  N   -1.06992786296321     -0.77358714666372      0.42137163716129
  H   -1.93774880633009     -0.40482121563723      0.77683357356377
  H   -0.68056308396492     -1.57140527637551      0.89971273517242
  N   -0.83707695029398      1.41133329312635     -0.46182681855148
  O   -0.17861901028325      2.20768147360201     -1.11984688072874
  O   -1.99676906006473      1.57564601980696     -0.08217602427207
  C   1.78383121953075     -1.18927695901039      0.13644597608539
  N   2.26444896401858     -2.20299563316917      0.49771578115229
