11
Coordinates from ORCA-job run
  C   -0.20335390914425      0.12715354245440     -0.04303866989512
  C   0.99684309103749     -0.19505943142448     -0.58807521590668
  H   1.36527027500381      0.34444314510430     -1.44913157021052
  N   -0.87145277048163     -0.48292654378002      0.96371924499753
  H   -1.58457039047878      0.06518784399981      1.41823342321429
  H   -0.34113480891046     -1.11546994970296      1.54300220073147
  N   -0.95499128185415      1.25939628400439     -0.63822502081844
  O   -1.93534014723851      1.65252913484326     -0.00541468999181
  O   -0.54858674313161      1.72824106679731     -1.69448327883801
  C   1.74694685796184     -1.25096200361840     -0.01488804799644
  N   2.32936982723626     -2.13253308867761      0.50730162471373
