11
Coordinates from ORCA-job run
  C   -0.22344507529990     -0.02526623014339      0.27534556416044
  C   0.93797290618278     -0.67703274487411      0.01932961906989
  H   1.18279644040610     -1.52056863434910      0.65926875456385
  N   -1.08961971215219     -0.26807113185488      1.29788794593066
  H   -1.01143024085210     -1.16708238384448      1.74496930468456
  H   -2.03140546120127      0.05523838385879      1.13624179744659
  N   -0.65801852762999      1.12328717899216     -0.55545689922544
  O   0.18997468302512      1.70411157490230     -1.22137866822684
  O   -1.85761336095731      1.39919147456162     -0.50988661124414
  C   1.86687677707959     -0.38350196484578     -1.00954206781199
  N   2.69391157139918     -0.23930552240314     -1.83577873934756
