11
Coordinates from ORCA-job run
  C   -0.18356018211924      0.15925926532491     -0.00799920022076
  C   0.91491184220134     -0.25222470715232     -0.69005516963414
  H   1.30334632776478      0.34184532715939     -1.50506244779938
  N   -0.86772255583850     -0.48082887043764      0.96919321092266
  H   -0.39911329406274     -1.25041809646094      1.42175596662259
  H   -1.45791437358128      0.09774772568332      1.54563813947117
  N   -0.79452673649823      1.45575012568672     -0.39297627004845
  O   -1.66036689650981      1.89419587264127      0.36478087460725
  O   -0.39344788364803      1.99997339755232     -1.41457007938059
  C   1.53132531940484     -1.47310142978680     -0.32129900911724
  N   2.00606843288688     -2.49219861021024      0.03259398457688
