11
Coordinates from ORCA-job run
  C   -0.19106995755127      0.13765943413896     -0.06067846974029
  C   1.14587453968636      0.01032287469000     -0.25431147718991
  H   1.70969019329868      0.81508683740339     -0.70436967044636
  N   -1.07570167640683     -0.77966922299301      0.39552438954003
  H   -0.69364203361324     -1.58649941080102      0.86443643669147
  H   -1.94865704421719     -0.41659924086788      0.74406741640655
  N   -0.82952572321919      1.42097167282290     -0.44467775811568
  O   -1.99388646220965      1.57941915740418     -0.07701231560120
  O   -0.16184976133009      2.22868103746859     -1.07894714100291
  C   1.78124365507940     -1.19444047664022      0.13407459013471
  N   2.25752427048302     -2.21493266262589      0.48189399932358
