11
Coordinates from ORCA-job run
  C   -0.18985941261739      0.13839054174889     -0.06367713312520
  C   1.09962387672221     -0.13110744365474     -0.38924190870205
  H   1.64083943449318      0.52505689494166     -1.05601306992701
  N   -1.05431663353590     -0.60033033101872      0.67033567855914
  H   -1.85075767668522     -0.10892813550361      1.04362477142232
  H   -0.65866775854214     -1.33339522791120      1.23853201911115
  N   -0.80187173604777      1.37299384806158     -0.61409568919178
  O   -0.18723582274036      1.98275974041304     -1.48085854181015
  O   -1.89037474921329      1.69782875346677     -0.13912539287435
  C   1.71419973576272     -1.28676188944581      0.15240263646000
  N   2.17642074240395     -2.25650675109787      0.63711663007794
