11
Coordinates from ORCA-job run
  C   -0.20744357868929      0.06949134446638      0.28017607690299
  C   0.99765707729233     -0.54843709236618      0.20781882261935
  H   1.34818584746774     -1.05343922565323      1.10396447732516
  N   -1.00109287085369      0.18927668135206      1.38028164231081
  H   -1.97567559439914      0.35522098933852      1.17934439820990
  H   -0.81831525733655     -0.45173007766452      2.13517646612891
  N   -0.78438513447613      0.76541413942390     -0.89509120969849
  O   -2.00176529800008      0.95120487453985     -0.86816608602501
  O   -0.02483723778625      1.09665118333872     -1.79697546286265
  C   1.84800089284651     -0.61977899501560     -0.92329577884048
  N   2.62067115393456     -0.75387382175990     -1.80223334607048
