18
Coordinates from ORCA-job run
  C   -0.59336957582494     -0.44048068585713     -0.47547652466853
  C   0.80666666172431      0.15210979703976     -0.29398280992701
  F   -0.88418059870764     -0.32957469725257     -1.85148462861988
  H   1.46795759017238     -0.40259276599582     -0.96829684018680
  C   -1.72092589204423      0.21021335277071      0.29611747090101
  H   -2.64312211364394     -0.33155476220659      0.07010536047204
  H   -1.53509994517257      0.14482100275498      1.36787565327862
  H   -1.85544823562896      1.24429808164965     -0.00356571038426
  N   -0.49468749265169     -1.81772773757714     -0.10523844645555
  H   -1.40413975266252     -2.25708080311662     -0.17634218634814
  H   0.13998256783794     -2.30509576447462     -0.72787233949909
  C   1.32841788801374      0.09752586993554      1.13312482470150
  H   2.37182681726056      0.40457558784301      1.15817198345963
  H   0.75458647698411      0.77171531402425      1.77355812531782
  H   1.22885457573845     -0.91552351225411      1.51754249770140
  N   0.95087482245332      1.57428098347531     -0.77810778526799
  O   2.11175428606815      1.97984909019830     -0.80717072742061
  O   -0.03094807991647      2.22224164904307     -1.12995791705416
