18
Coordinates from ORCA-job run
  C   -0.64569716861382     -0.44345543982570      0.24661941381787
  C   0.50748693929276      0.57419177221216      0.05095364607146
  F   -0.04261097525551     -1.54247350385410      0.87332335779602
  H   0.06730442263694      1.52588732197684     -0.25547226266229
  C   -1.19237968154546     -0.92291485199863     -1.08300152426826
  H   -2.05137243944104     -1.56557551243795     -0.88333641979689
  H   -1.50723571839950     -0.08572153544045     -1.71122333545285
  H   -0.44384702370225     -1.50721246272947     -1.61514914264759
  N   -1.71413848420629     -0.00097436645729      1.07670506331854
  H   -2.46576758012629      0.40894863611159      0.54273924696616
  H   -1.41188825769181      0.63659124037555      1.80084235586724
  C   1.59785744230971      0.12101249235091     -0.89683389456420
  H   1.95095237250012     -0.87262130955069     -0.62624965388903
  H   2.44434991516039      0.80787153080416     -0.86009600057859
  H   1.21712040217527      0.10751726405342     -1.91886931122591
  N   1.09475509592089      0.85166357210991      1.40770988491594
  O   2.14144827916634      0.29339289812069      1.71576047165959
  O   0.45466245981954      1.61387225417903      2.13757810467278
