18
Coordinates from ORCA-job run
  C   -0.63048133800171     -0.43250830968113     -0.38668323084144
  C   0.80247595091618      0.11786826540120     -0.37681040931956
  F   -1.13422695507830     -0.13302363446264     -1.67569375129499
  H   1.38583749916018     -0.47043284285001     -1.08854041830083
  C   -1.58572578625156      0.18825949101598      0.60714086837448
  H   -1.61621619781909      1.26861375335504      0.48424174268034
  H   -2.58491044179697     -0.21118813937215      0.41748377909389
  H   -1.29650545356378     -0.05538381338999      1.62900470930709
  N   -0.54114147759566     -1.83745213447659     -0.18761982914443
  H   -0.07095678945638     -2.27845541421934     -0.96951855252866
  H   -1.46336038795164     -2.24446023307625     -0.09282625254262
  C   1.44801982231182      0.13897087599585      0.99320867290970
  H   1.40092141901848     -0.86103388988297      1.42424671709415
  H   0.93586155773533      0.84202482587345      1.64880150098962
  H   2.49406690269857      0.44192278630544      0.91333356392287
  N   0.81396216414445      1.49626420101925     -0.96706873015755
  O   0.34814032698246      2.40737709761753     -0.28416642422921
  O   1.29323918454762      1.62163711482734     -2.09053395601285
