13
Coordinates from ORCA-job run
  C   -0.81024390689135     -0.73165274645088      0.20961351697686
  C   0.20860916784154      0.29813439652333     -0.26933653335756
  F   -1.41027764118716     -1.34097510675191     -0.88594410291229
  H   -0.35011633316965      1.10783991978925     -0.76145546794431
  H   -0.29386270744451     -1.50806367692503      0.78156668343194
  C   -1.84929960967862     -0.10204764711890      1.03230999881195
  N   -2.70684207173927      0.39285610702105      1.66133120153366
  N   1.14516251144680     -0.39685013023575     -1.14085487498567
  H   1.77503986071947      0.27336310356200     -1.56595112470014
  H   0.64594143763701     -0.87003818688450     -1.88530328001829
  N   0.84330567488898      0.84040709025156      0.90886848952405
  H   1.63151597432470      0.25347637507777      1.15538073617485
  H   1.17206764325206      1.78355050214201      0.75877475746495
