13
Coordinates from ORCA-job run
  C   -0.86133150771981     -0.72529009831596      0.21425385866905
  C   0.11335384196952      0.29269460208706     -0.38253627023839
  F   -1.62038212915875     -1.31560303414689     -0.77059102275620
  H   -0.48955905086125      1.07029178266855     -0.86048627904105
  H   -0.30050708048177     -1.51926242392392      0.72454781604944
  C   -1.76024358371906     -0.08526183092258      1.18584827527158
  N   -2.49518004165102      0.38975040926890      1.96697940270942
  N   0.88377989609805     -0.36062296351566     -1.42199434767594
  H   1.42526669953139      0.32021625543260     -1.93948609465992
  H   1.52628989097126     -1.03511790931118     -1.02130091441437
  N   0.80714752966618      0.90099158255046      0.74336495747870
  H   1.53957254930753      0.28794426381414      1.08271536271992
  H   1.23279298604774      1.77926936431448      0.47768525588775
