13
Coordinates from ORCA-job run
  C   -1.18019835652878     -0.14793246706424     -0.07734935494444
  C   0.21969125752519      0.27600844030626     -0.50715681719343
  F   -1.94956327473480      0.98049667656560      0.17592270935579
  H   0.09460903563774      0.80914721136516     -1.46202362712572
  H   -1.64951420549549     -0.71025349874063     -0.88660139465648
  C   -1.13144420314782     -0.98010917074664      1.13334571152182
  N   -1.09115487019800     -1.67074730961579      2.08066824804777
  N   0.96668199004204     -0.93173545635064     -0.77135967314691
  H   1.74699914688706     -0.75014753231958     -1.38810918824957
  H   1.32928156431407     -1.28802427969362      0.10671970740858
  N   0.79299164362716      1.08533989231640      0.55592155499274
  H   1.67789763759342      1.47566971542736      0.25488166543984
  H   0.17372263447818      1.85428777855035      0.78614045855001
