13
Coordinates from ORCA-job run
  C   -0.92939795129817     -0.69107501170285      0.12055115986732
  C   0.18638757945176      0.21911651858631     -0.40002553076355
  F   -1.79682447025755     -0.99844684387568     -0.90343158896904
  H   -0.30517826189177      1.01954226187702     -0.97193961840080
  H   -0.48609223605581     -1.61763548332139      0.49558188909304
  C   -1.68744033274999     -0.03783461047044      1.19980703649702
  N   -2.26812245251365      0.52123622289641      2.05271171203877
  N   0.98932542658600     -0.54896169304151     -1.31978978433931
  H   1.46051610497271      0.04777786336251     -1.98531629312131
  H   1.68228278682925     -1.07574073908413     -0.80002570077946
  N   0.95873655683843      0.67534635572880      0.75201645778744
  H   1.77409002198014      1.17849392082498      0.42332373125252
  H   0.42171722810865      1.30818123821997      1.33553652983734
