13
Coordinates from ORCA-job run
  C   -0.99542268730594     -0.58899940573057     -0.05302260089640
  C   0.47425717135680     -0.16877004888442     -0.04161347431959
  F   -1.67626459653196      0.10384471427608     -1.03213466654343
  H   0.98498606058880     -0.85774605854009      0.65010191240005
  H   -1.05258512150400     -1.65351205549716     -0.29177383854345
  C   -1.62914494979591     -0.33441093775351      1.25012432820866
  N   -2.08079814950468     -0.13031124862793      2.31368827910261
  N   0.57069188151565      1.23533921287224      0.33858461287960
  H   1.54058372026680      1.52465848897363      0.30584352880465
  H   0.23562743021377      1.38825017632386      1.28387304052934
  N   0.99166724890363     -0.42696983801490     -1.36513273180846
  H   0.63316637784620      0.28490002365680     -1.99120223188634
  H   2.00223561395083     -0.37727302305402     -1.36833615792725
