13
Coordinates from ORCA-job run
  C   -1.17817765504770     -0.25822741637132     -0.13630844065665
  C   0.18483156517720      0.36359928674360     -0.44800520466918
  F   -2.15913384512260      0.70791855080134     -0.19049925799389
  H   0.03237873645453      0.98929871674308     -1.33920112274175
  H   -1.42566321976899     -1.02251736674946     -0.88049404980274
  C   -1.16894883763779     -0.87587797875839      1.19704306526308
  N   -1.15124118139931     -1.35760093782902      2.26648103925836
  N   1.11633772421864     -0.74568396111754     -0.63952102977087
  H   2.06107193859215     -0.38606695679623     -0.69876741101691
  H   0.92262190194227     -1.24799233953070     -1.49930387973715
  N   0.56832930162181      1.23569352390833      0.62936001670476
  H   0.92923359982955      0.69294539866972      1.40595507808693
  H   1.26735997114024      1.90351148028658      0.33526119707601
