13
Coordinates from ORCA-job run
  C   -0.84182677174294     -0.68107179766205      0.16620656661942
  C   0.17291129436183      0.26663455433924     -0.49148892683064
  F   -1.71489312071754     -1.19530458212440     -0.76488392979568
  H   -0.40870226462757      1.00166824299605     -1.05651283598514
  H   -0.31352803153341     -1.52049733397539      0.63582740732664
  C   -1.61263786171466      0.03213962750925      1.19808339810652
  N   -2.20786804586975      0.63112989756838      2.01302736002207
  N   0.94936211487253     -0.50794989336603     -1.42990920304165
  H   1.53966581280758     -1.16653964871897     -0.93211766125238
  H   1.56325639913363      0.12118251113139     -1.93351925886387
  N   0.98523233374540      0.99725634417823      0.47078712435156
  H   0.43502768424692      1.65352803824963      1.01233769033351
  H   1.45400045703796      0.36582403987466      1.11116226900964
