13
Coordinates from ORCA-job run
  C   -0.79544821169023     -0.67825347462406      0.17887017617523
  C   0.26576383393336      0.27803127936345     -0.37565685400241
  F   -1.49117064922194     -1.26037997061657     -0.87184464642984
  H   -0.26851538880939      1.04156208619801     -0.96239924666378
  H   -0.29847990749417     -1.47714740363568      0.73722042234762
  C   -1.73956530100053      0.04050378009979      1.04439541701135
  N   -2.46680831553890      0.65731571212717      1.72871490040693
  N   1.19377003535779     -0.53084437811935     -1.13967134547955
  H   1.91579702013192      0.07614738088866     -1.50856394614032
  H   0.71686284690261     -0.97588624455178     -1.91404961621044
  N   1.02656261724886      0.95859348073542      0.64330153687397
  H   0.45433725613749      1.58400791470019      1.19540886321597
  H   1.48689416404312      0.28634983743476      1.24527433889526
