13
Coordinates from ORCA-job run
  C   -1.13429662878270     -0.09176170709484      0.12157354033016
  C   0.35029349627163      0.26522652208489      0.22601819929402
  F   -1.92019872834822      0.89114810422864      0.67865672709957
  H   0.59469531496891      0.31583553275119      1.29107198480825
  H   -1.41690275624318     -0.18661321810932     -0.93501961673577
  C   -1.41400697435666     -1.36418742916764      0.80309007054583
  N   -1.68170536696700     -2.35953937473132      1.36306582512698
  N   0.54836786054497      1.58874973478154     -0.32963246004457
  H   1.49559675714859      1.90318693424387     -0.16091928686853
  H   0.39061321275059      1.58505729707334     -1.33132185309967
  N   1.07718023702658     -0.86202105963243     -0.34042923953933
  H   1.07054958514055     -0.81623065975389     -1.35292683094280
  H   2.04081399084591     -0.86685067667400     -0.03322705997414
