13
Coordinates from ORCA-job run
  C   -0.95265354929910     -0.51662087509308     -0.03271032422776
  C   0.55026957300729     -0.22110679425998     -0.09094739396764
  F   -1.62084651004331      0.48005603344052     -0.73899789172660
  H   1.05339249666706     -1.00682012021936      0.48300333073583
  H   -1.17557269779750     -1.47070603268542     -0.51558556178585
  C   -1.43498751051184     -0.51467962202298      1.35340480780148
  N   -1.77151587804135     -0.50754043382886      2.47757654836485
  N   0.92308919609712      1.05472053193227      0.49858820542942
  H   0.82074758284551      1.04235780317810      1.50703665624083
  H   0.33638193796219      1.79390978529232      0.12841571471677
  N   0.93903133817099     -0.34990895570510     -1.47943489564235
  H   0.41494190729480      0.31677453321439     -2.03546685397058
  H   1.91772211364813     -0.09943585324283     -1.55588234196838
