13
Coordinates from ORCA-job run
  C   -0.89478594380720     -0.60183251924971     -0.01693065522551
  C   0.54675483303501     -0.06084584501653      0.00345895350306
  F   -1.59767156718143     -0.03543723115678     -1.06063492811478
  H   1.09769040656335     -0.67922911292270      0.73218362344537
  H   -0.87322186789938     -1.68419434155133     -0.18173816993246
  C   -1.58557077715694     -0.32273456319451      1.24950218699685
  N   -2.07136360472738     -0.09998504253964      2.29457689543456
  N   0.51044364563112      1.35278236442076      0.31085211134703
  H   0.22285286949946      1.52107434075116      1.26694140014100
  H   1.44133408170320      1.72657939571677      0.17771644006601
  N   1.21095109843387     -0.19362334220864     -1.27354617083359
  H   0.63695649404345      0.24307431352460     -1.98559180102441
  H   1.35563033186288     -1.16562841657346     -1.51578988580313
