13
Coordinates from ORCA-job run
  C   -0.90050912077073     -0.53403383543232      0.01598628014740
  C   0.56520331999514     -0.09058458586690      0.05940110786601
  F   -1.59887309294704      0.35433719949206     -0.79870163623449
  H   1.09662973231899     -0.79472658828740      0.70917618243382
  H   -0.98332609636527     -1.52285808372574     -0.44373873505316
  C   -1.52333550178997     -0.55897056201102      1.34405433617138
  N   -2.02486596118125     -0.61706939729870      2.40308453730163
  N   0.60432460443434      1.21616713513180      0.67115223435656
  H   1.55685839511012      1.55810745736541      0.64300583611155
  H   0.03027035946379      1.85955084430649      0.13873798801135
  N   1.20691947298547     -0.13474183120669     -1.24821235081381
  H   1.33551412086208     -1.08874952799172     -1.56649394422603
  H   0.63518976788432      0.35357177552473     -1.92845183607223
