13
Coordinates from ORCA-job run
  C   -1.00936122612314     -0.38002435376495     -0.06256063141343
  C   0.50783256290908     -0.11591435208843     -0.11268831921572
  F   -1.69104764559501      0.73031585269400     -0.51780431978590
  H   0.99225478587301     -0.93665976507602      0.44044867743921
  H   -1.28894294907215     -1.22603671260489     -0.69906956884532
  C   -1.41910971577371     -0.65355922725162      1.32320053218518
  N   -1.68609466609826     -0.88095152800194      2.44307746313675
  N   0.89549586117259      1.12126448904268      0.52192247522171
  H   0.33085920719213      1.87537491575177      0.14905311307531
  H   0.77040457717021      1.07767931444714      1.52526921955626
  N   0.89293006095796     -0.01893128407131     -1.50712312327279
  H   1.84264105102558      0.32969856072719     -1.54209464071209
  H   0.86213809636170     -0.92325590980360     -1.96163087736918
