13
Coordinates from ORCA-job run
  C   -1.16892601112342     -0.20566986320078     -0.09262292717723
  C   0.21401833158552      0.28478699277783     -0.50522489214341
  F   -1.99564256588557      0.88522697303656      0.14436525422709
  H   0.07656960593506      0.80769567458046     -1.46404325757330
  H   -1.59986480998767     -0.79376402680834     -0.90495004184872
  C   -1.09808091484853     -1.02984564060831      1.12239845509374
  N   -1.05454990594351     -1.72198209069237      2.06854158957744
  N   1.02383027570751     -0.88498322258376     -0.75355085319069
  H   1.80399774270298     -0.66647937385733     -1.35841492376395
  H   1.38939134662283     -1.22210348412538      0.13082561616988
  N   0.73103166533533      1.12577746995225      0.56236913869114
  H   0.07452598274143      1.86818194565200      0.77564040731918
  H   1.60369925715801      1.55215864587715      0.27466643461882
