13
Coordinates from ORCA-job run
  C   -0.93237175246624     -0.64976572571630      0.14744009351802
  C   0.14924377953422      0.31069422675599     -0.35291024972616
  F   -1.73230043849029     -1.07456274389532     -0.88884672970503
  H   -0.36412769038514      1.18550881640277     -0.76249410277889
  H   -0.46176319404064     -1.53676931175795      0.59135867883763
  C   -1.77669730634189     -0.00383307041040      1.16297474813914
  N   -2.48643014130294      0.48754551056411      1.95738623627769
  N   0.86310117871149     -0.32465459045699     -1.44242084822043
  H   1.42073313394954     -1.10017740909746     -1.10201215539085
  H   1.48442791819866      0.33721053453957     -1.89009081468169
  N   0.88593869942245      0.74240739870056      0.82618548206885
  H   1.55042644322748      0.03150973967438      1.10986780195212
  H   1.39881936998331      1.59488662469703      0.64356185970962
