13
Coordinates from ORCA-job run
  C   -1.05007509658709     -0.13431587487358      0.06140194911859
  C   0.41249883064169      0.31655397789402      0.13581536820439
  F   -1.86774115415830      0.84843724215046      0.60216722668405
  H   0.64405798162438      0.47445356069026      1.20075953786110
  H   -1.32983638346188     -0.26513917835206     -0.98809969082511
  C   -1.24459839202208     -1.38664061028652      0.80407513488736
  N   -1.35163952602749     -2.38277213889480      1.41539399773607
  N   0.52331958276870      1.50232638352478     -0.68921022037082
  H   -0.06575906014624      2.24061515265834     -0.32450788254847
  H   1.48643758157637      1.81502858566736     -0.66864153581170
  N   1.34803661492133     -0.65368270182228     -0.37823316728225
  H   1.13075449104242     -0.87339976133002     -1.34296891470023
  H   1.36454452982819     -1.50046463702596      0.17504819704700
