13
Coordinates from ORCA-job run
  C   -0.82086624828115     -0.58292534246156      0.02495285467806
  C   0.63914050221846     -0.08363438948564     -0.05288281694265
  F   -1.60300238293635      0.23030290022934     -0.78589809202079
  H   1.22798373247727     -0.70847933683508      0.62843129989737
  H   -0.91741171752162     -1.60699569943572     -0.34956190347206
  C   -1.32555365384853     -0.51231464384718      1.40183389751582
  N   -1.66373734273787     -0.45366345274525      2.52425272874667
  N   0.75611896016283      1.29336435518728      0.37244443615146
  H   -0.02797860016614      1.83811818446595      0.03452714409693
  H   0.78860538031369      1.36730488812025      1.37966061887280
  N   1.18655038400227     -0.21326190857924     -1.39136757449853
  H   0.92976541194211     -1.09923496643759     -1.81068482920209
  H   0.82938557437504      0.53141941182442     -1.97670776382296
