13
Coordinates from ORCA-job run
  C   -1.07139336102115     -0.15190272235345     -0.16290796839587
  C   0.31547273458816      0.40348267629779     -0.55864807119835
  F   -1.95595500346660      0.90214961505775      0.01565133527081
  H   0.16108402571834      0.93468510563702     -1.50467461411895
  H   -1.47748139204102     -0.79355567672144     -0.95116239673141
  C   -0.96356653822063     -0.91054585301956      1.09098874134297
  N   -0.79273574933962     -1.50638201608871      2.08786804933031
  N   1.28289649559117     -0.64603449599791     -0.77898337784405
  H   1.36898140100195     -1.25059034217702      0.03005283461723
  H   1.04677857524624     -1.20943837254915     -1.58455811834237
  N   0.83083485968459      1.34728075732261      0.40638728099564
  H   0.11144439209910      2.01063260767863      0.66678530563802
  H   1.14463956015946      0.86921871691346      1.24320099943602
