13
Coordinates from ORCA-job run
  C   -1.10520471177015     -0.23607610907160     -0.14464222945782
  C   0.27638582282128      0.32926060589645     -0.50341207488641
  F   -2.00670827258110      0.81786793749570     -0.09296604456228
  H   0.12726573013832      0.91271603988921     -1.42524482215611
  H   -1.46128128943553     -0.93622832468298     -0.90763957655502
  C   -1.07463708817549     -0.90489918033082      1.16154059927156
  N   -1.03686468893353     -1.42390867448366      2.21306662912548
  N   1.18524372049216     -0.79167577471114     -0.62597715508504
  H   2.12823080169567     -0.42675085425065     -0.68357348646297
  H   0.99903412801907     -1.32923068533598     -1.46366353275493
  N   0.82401171457752      1.22418464303300      0.48583705131695
  H   0.22065891355805      2.02574317946146      0.61689103711004
  H   0.92486521959371      0.73799719709099      1.37078360509653
