13
Coordinates from ORCA-job run
  C   -0.89935925338036     -0.64660318311514      0.09339159820376
  C   0.25281949696397      0.30159036457385     -0.22502641061124
  F   -1.52182277301863     -1.03859169211364     -1.08569696601600
  H   -0.18576622464567      1.22687793452773     -0.62701192510438
  H   -0.50178855172456     -1.54444682767657      0.57537678823002
  C   -1.88925767985984     -0.00092840351301      0.96295025829988
  N   -2.70610709878139      0.50493574150509      1.63583814767885
  N   1.13649076051576     -0.39198906318562     -1.15137036134434
  H   1.85988329036063      0.24217217873539     -1.46959394982329
  H   0.61700670344469     -0.70431961421692     -1.96380963743630
  N   0.89783580650718      0.61593206332301      1.02780200954517
  H   1.33902214780502      1.52417372323638      1.00706155852756
  H   1.60104337581318     -0.08780322208057      1.22008888985029
