13
Coordinates from ORCA-job run
  C   -1.03994289283882     -0.50010034622585     -0.09571577330112
  C   0.45897855104369     -0.20288956127569     -0.05599499915323
  F   -1.65844038314125      0.32046682225109     -1.01620231284887
  H   0.91052647717429     -0.98527121233209      0.57488154137231
  H   -1.18332037196382     -1.53446811992939     -0.41704331307619
  C   -1.65565429259052     -0.29769073154539      1.22490866614492
  N   -2.09590406139255     -0.15403417951754      2.30314093110131
  N   0.66692790765125      1.15295680247952      0.43858291233279
  H   1.65498236544193      1.37243068023382      0.40571732929654
  H   0.36225701024995      1.24776935630821      1.40166616733365
  N   0.95659790498217     -0.39176157213101     -1.39825627054040
  H   0.65406250925722      0.39262559344563     -1.96439180229051
  H   1.96792927612648     -0.42103353176133     -1.40329307637119
