13
Coordinates from ORCA-job run
  C   -1.06536448549048     -0.37090204474332     -0.06732002320989
  C   0.44021087516647     -0.10630991259164     -0.02690062861528
  F   -1.72157924266392      0.75601042646249     -0.51920120691349
  H   0.89754525231648     -0.94011600510401      0.52757526490197
  H   -1.30156848076055     -1.18774096820651     -0.75737299717976
  C   -1.56292227687426     -0.71628436635389      1.27203650030685
  N   -1.95847506835725     -1.04766929558999      2.32525090741694
  N   0.65184501662311      1.08990304353943      0.74493336235569
  H   1.62620092625598      1.20532030346674      0.98817532709904
  H   0.34450332010985      1.89124600956057      0.20772161272089
  N   0.91140047387387      0.01207009822878     -1.40560320155112
  H   0.85381562345987     -0.87826460692328     -1.88877041753681
  H   1.88438806634085      0.29373731825464     -1.40052449979504
