13
Coordinates from ORCA-job run
  C   -1.09619901904963     -0.20848399745005     -0.15317138383567
  C   0.28112718201294      0.38603889514783     -0.46521288402258
  F   -2.00586609671093      0.82067145205742      0.05404676422903
  H   0.15982504684182      0.95501750925140     -1.40129010421776
  H   -1.45503992951541     -0.79616976346032     -1.00399769502658
  C   -1.04390781498416     -1.06613407040870      1.03861392054960
  N   -0.98360284120653     -1.80533911721221      1.94772687827043
  N   1.30851683739210     -0.60405671276020     -0.68155454866331
  H   1.41846274396629     -1.17959050361651      0.14553035893073
  H   1.11818542145081     -1.18697543390253     -1.48598970841175
  N   0.68224307534396      1.17868258431357      0.67470535605431
  H   1.59411976978336      1.57763156567928      0.49000737299595
  H   0.02113562467538      1.92670759236101      0.84058567314762
