13
Coordinates from ORCA-job run
  C   -1.21024901372469     -0.29350572008215     -0.11966828571253
  C   0.11131709015179      0.35090505430153     -0.54286904364936
  F   -2.20812039620775      0.64580726247823     -0.00851783374371
  H   -0.09597031583977      0.86171772825047     -1.48808216314098
  H   -1.50246775717675     -1.02831198179555     -0.87207963545549
  C   -1.02796605313738     -0.97182683024213      1.17596806385466
  N   -0.80507291689315     -1.48481918170690      2.20780192100024
  N   1.02696559915169     -0.74821880173321     -0.82734385344152
  H   1.38081198543749     -1.14219116447802      0.03814910983331
  H   1.82094635838936     -0.41459078499248     -1.35911745297968
  N   0.48433263780538      1.36085243288915      0.42514769881903
  H   1.24386731048075      1.92945255212330      0.07375214876996
  H   0.78060547156300      0.93572943498777      1.29685932584602
