13
Coordinates from ORCA-job run
  C   -1.13070624937085     -0.27387400182352     -0.15315090544046
  C   0.17026698849301      0.46851097001251     -0.49668271878349
  F   -2.19260522288279      0.59442911868091     -0.05366964489307
  H   -0.04425217178171      1.04100951691324     -1.40502387981107
  H   -1.35995411703623     -0.99383204298895     -0.94501298477190
  C   -0.96309576207997     -1.00648013393082      1.11414546757751
  N   -0.74314473330989     -1.59268529317245      2.10702742855988
  N   1.26930152141426     -0.43913813576262     -0.79666143148852
  H   1.45822181469252     -1.05488171192020     -0.01317731343085
  H   1.08651803998834     -1.00358519557535     -1.61832984067229
  N   0.46793263129988      1.40227713225123      0.55917730756113
  H   1.27595981335431      1.94968469880415      0.28929847636435
  H   0.70655744721909      0.90856507851189      1.41306003922880
