13
Coordinates from ORCA-job run
  C   -1.14578230563587     -0.23022205206771     -0.10661710221218
  C   0.20659952971991      0.30145957251312     -0.60013190724957
  F   -2.00218235270195      0.84061443415995      0.09931850880933
  H   -0.00449064088567      0.79049975342837     -1.55693245201580
  H   -1.59008864564790     -0.88962768683115     -0.85474096797648
  C   -0.96902844229423     -0.95031967583774      1.16256559162078
  N   -0.74092521904430     -1.49760558027340      2.17561910542661
  N   1.04460695994913     -0.84697312511591     -0.85345973220988
  H   1.88693502396515     -0.53922722515599     -1.32379218723733
  H   1.33054550117885     -1.27149475587079      0.02318265094092
  N   0.80805931611788      1.29615957336315      0.26793831135557
  H   0.19010862137366      2.09184907501530      0.37961961602227
  H   0.98564265390533      0.90488769267282      1.18743056472576
