17

C	0.0	0.0	0.0
C	-0.396724	0.182269	-1.49225
F	1.390259	0.0	0.0
H	0.566851	0.252563	-2.011927
H	-0.262777	0.915781	0.550303
N	-0.558597	-1.172741	0.590835
H	-1.579733	-0.965639	0.466931
H	-0.378856	-1.12475	1.590269
C	-1.166363	1.488924	-1.684447
H	-2.089493	1.381249	-1.107087
H	-1.395413	1.652753	-2.744799
H	-0.585606	2.348448	-1.329643
C	-1.18598	-0.983252	-2.086653
H	-0.691386	-1.938423	-1.894002
H	-2.174274	-0.978243	-1.61949
H	-1.279012	-0.845771	-3.171787
F	-2.932627	0.0	0.0
