17

C	0.0	0.0	0.0
C	-0.384737	-0.110134	-1.499169
F	1.418217	0.0	0.0
H	0.582747	-0.139482	-2.016809
H	-0.247484	1.007421	0.363448
N	-0.55185	-1.034205	0.807924
H	-1.575421	-0.852819	0.650101
H	-0.366842	-0.791777	1.778147
C	-1.15774	1.130491	-1.949225
H	-1.343175	1.097198	-3.031016
H	-2.101498	1.118133	-1.393504
H	-0.598588	2.050396	-1.730297
C	-1.172906	-1.369094	-1.855919
H	-0.678042	-2.271013	-1.489476
H	-2.154797	-1.268369	-1.388903
H	-1.276427	-1.441411	-2.94649
F	-2.917959	0.0	0.0
