17

C	0.0	0.0	0.0
C	-0.360766	-0.240222	-1.504662
F	1.408464	0.0	0.0
H	0.601153	-0.251994	-2.03672
H	-0.293767	1.018085	0.269671
N	-0.561721	-0.857015	0.986341
H	-0.444642	-1.818565	0.684998
H	-1.578924	-0.628441	0.863666
C	-1.206389	0.916484	-2.043215
H	-1.475038	0.747566	-3.092783
H	-2.108695	0.956667	-1.427029
H	-0.651117	1.860984	-1.987706
C	-1.076636	-1.566171	-1.739427
H	-0.475233	-2.422135	-1.409377
H	-2.024112	-1.525298	-1.19838
H	-1.27115	-1.702241	-2.809037
F	-2.919373	0.0	0.0
