15

C	-0.471823	-0.159852	-1.447907
C	0.0	0.0	0.0
F	-0.117392	0.990672	-2.128124
H	1.100762	0.0	0.0
C	0.149875	-1.284478	-2.173365
N	0.621417	-2.095877	-2.879712
C	-1.942967	-0.278691	-1.51581
N	-3.113637	-0.357749	-1.573296
N	-0.42171	-1.122773	0.784674
O	-0.650614	-2.196391	0.186326
O	-0.415425	-1.002437	2.022921
N	-0.367898	1.269149	0.539597
H	0.482773	1.689502	0.909404
H	-1.010201	1.136714	1.310991
H	2.3974	0.0	0.0
