15

C	-0.43224	-0.058132	-1.452731
C	0.0	0.0	0.0
F	-1.831131	-0.048723	-1.563253
H	1.091794	0.0	0.0
C	0.030437	1.184406	-2.107428
N	0.286	2.199242	-2.639429
C	0.074752	-1.18591	-2.248198
N	0.465746	-1.990929	-3.008582
N	-0.44255	-1.207962	0.714448
O	-0.566136	-2.247474	0.044609
O	-0.537579	-1.153585	1.940486
N	-0.385824	1.193761	0.666854
H	-1.1634	1.675481	0.243386
H	0.419712	1.802206	0.752792
H	2.493604	0.0	0.0
