15

C	-0.451548	-0.009976	-1.4469
C	0.0	0.0	0.0
F	-1.849194	0.044287	-1.540346
H	1.094689	0.0	0.0
C	0.051889	1.228361	-2.080399
N	0.423348	2.221504	-2.585615
C	0.015157	-1.142373	-2.266695
N	0.372844	-1.948976	-3.042053
N	-0.444279	-1.223083	0.687486
O	-0.734697	-2.206411	-0.012909
O	-0.385661	-1.237757	1.915776
N	-0.35837	1.175728	0.709486
H	0.45563	1.773916	0.800709
H	-1.150465	1.672841	0.330004
H	2.484691	0.0	0.0
