15

C	-0.499596	-0.067763	-1.443293
C	0.0	0.0	0.0
F	-0.104716	1.101683	-2.069253
H	1.112272	0.0	0.0
C	0.065454	-1.180966	-2.233645
N	0.49775	-1.984574	-2.972485
C	-1.973819	-0.119932	-1.49236
N	-3.147052	-0.123235	-1.525892
N	-0.44314	-1.136019	0.73651
O	-0.724	-2.175975	0.098064
O	-0.408175	-1.070954	1.982615
N	-0.345935	1.254195	0.604881
H	-0.828126	1.062899	1.474104
H	0.533037	1.705118	0.850084
H	2.371957	0.0	0.0
