15

C	-0.520581	-0.187454	-1.417893
C	0.0	0.0	0.0
F	0.071633	-1.247305	-2.071269
H	1.11147	0.0	0.0
C	-1.987611	-0.376105	-1.441009
N	-3.158488	-0.467979	-1.460549
C	-0.214996	1.030122	-2.199795
N	0.001668	1.94185	-2.907159
N	-0.41885	-1.07689	0.860019
O	-0.3221	-0.885848	2.084855
O	-0.727345	-2.167426	0.346195
N	-0.316639	1.30428	0.497249
H	0.536147	1.681537	0.908828
H	-1.012302	1.2473	1.228742
H	2.398176	0.0	0.0
