15

C	-0.499592	0.140117	-1.417438
C	0.0	0.0	0.0
F	-1.87478	0.413585	-1.450778
H	1.106093	0.0	0.0
C	0.165332	1.319546	-2.013328
N	0.621533	2.276087	-2.519848
C	-0.249052	-1.003962	-2.312697
N	-0.053336	-1.809015	-3.145268
N	-0.47631	-1.241125	0.620056
O	-1.055192	-2.084819	-0.08823
O	-0.181486	-1.410051	1.803265
N	-0.288476	1.136602	0.815194
H	-1.009053	1.738814	0.446947
H	0.576324	1.643533	0.976254
H	2.462356	0.0	0.0
