15

C	-0.480998	-0.043405	-1.454176
C	0.0	0.0	0.0
F	-0.146639	1.16207	-2.043242
H	1.113111	0.0	0.0
C	0.152911	-1.098024	-2.271226
N	0.645185	-1.840271	-3.037241
C	-1.951545	-0.17357	-1.513492
N	-3.125121	-0.223137	-1.525073
N	-0.423181	-1.175987	0.691525
O	-0.655052	-2.199322	0.009473
O	-0.419926	-1.154655	1.936537
N	-0.350532	1.22426	0.641451
H	0.503537	1.608022	1.042192
H	-0.99802	1.044502	1.398975
H	2.377279	0.0	0.0
