16

C	0.0	0.0	0.0
C	-0.344921	-0.345899	-1.441475
Br	2.027059	0.0	0.0
H	0.211602	-1.248266	-1.691538
H	0.077848	0.469526	-2.035561
N	-0.559031	1.179075	0.479496
H	-0.441228	1.249086	1.483176
H	-1.557888	1.180669	0.266201
N	-0.271734	-1.216064	0.943955
O	-0.231855	-2.339457	0.460604
O	-0.474626	-0.944634	2.122289
C	-1.817251	-0.538851	-1.767238
H	-2.421611	0.352309	-1.625038
H	-2.2856	-1.310496	-1.161292
H	-1.894129	-0.8331	-2.818765
Cl	-4.513288	0.0	0.0
