16

C	0.0	0.0	0.0
C	-0.499601	0.276627	-1.406411
Br	1.954109	0.0	0.0
H	0.041686	-0.367003	-2.099325
H	-1.553747	-0.018414	-1.410563
N	-0.546476	0.847569	0.959349
H	-1.568116	0.821823	0.81961
H	-0.336531	0.507869	1.890332
N	-0.274504	-1.515495	0.334356
O	-0.288791	-2.317155	-0.589735
O	-0.411378	-1.787919	1.521514
C	-0.374138	1.747108	-1.783549
H	-0.64561	1.879327	-2.834622
H	-1.050813	2.349957	-1.179676
H	0.644778	2.116239	-1.641965
Cl	-3.601915	0.0	0.0
