16

C	0.0	0.0	0.0
C	-0.493126	-0.089469	-1.440471
Br	1.943733	0.0	0.0
H	-1.550615	-0.360905	-1.361664
H	0.040037	-0.888582	-1.955582
N	-0.509174	1.034774	0.817146
H	-1.530589	0.910321	0.83581
H	-0.298588	1.926912	0.386307
N	-0.340635	-1.344443	0.696146
O	-0.652975	-1.316621	1.875784
O	-0.227605	-2.350616	0.003991
C	-0.368916	1.232969	-2.184236
H	-1.053416	1.974514	-1.767218
H	0.65183	1.626947	-2.160346
H	-0.650759	1.091321	-3.230936
Cl	-3.592814	0.0	0.0
