16

C	0.0	0.0	0.0
C	-0.407264	0.096304	-1.46937
Br	1.955609	0.0	0.0
H	0.128959	-0.67503	-2.023807
H	-0.027219	1.064019	-1.817929
N	-0.530872	0.962387	0.887405
H	-0.653344	1.841088	0.400293
H	-1.429055	0.651816	1.248461
N	-0.370767	-1.398122	0.526704
O	-0.87769	-1.470628	1.638931
O	-0.113844	-2.340846	-0.211583
C	-1.90781	-0.008974	-1.68951
H	-2.316271	-0.959196	-1.347846
H	-2.485451	0.753736	-1.171018
H	-2.119764	0.077789	-2.758783
Cl	-4.800685	0.0	0.0
