11
Coordinates from ORCA-job run
  C   0.83795646928654      0.16475891896023      0.33479982562141
  C   -0.50461089852599     -0.19041987373398     -0.29217505052459
  F   1.36235772209977      1.26912292000481     -0.31151063471519
  H   -0.33301639403988     -0.27546229959153     -1.36930982057858
  H   0.69990754238828      0.43158821236794      1.38580987531893
  H   -0.80891483991244     -1.18054835822138      0.06652115319881
  C   1.79308901397025     -0.94905421323944      0.22684940924735
  N   2.51739070816145     -1.86799734177453      0.13553727839368
  N   -1.47126334933221      0.85040970219755      0.01981512224134
  H   -1.88488626295067      1.23928465940175     -0.81292308372207
  H   -2.20800971114509      0.50831767362857      0.61758592551892
