11
Coordinates from ORCA-job run
  C   0.68711037236755     -0.71413095198888      0.27250913345594
  C   -0.74510842267536     -0.20599510714539      0.19495494742625
  F   0.84968261419524     -1.48594426207313      1.40941596962695
  H   -0.97364774764736      0.32257699642757      1.12983937240962
  H   0.90842156128154     -1.32928846207869     -0.60214170096231
  H   -1.39321296886825     -1.08352350621257      0.13894216220385
  C   1.62885739921523      0.41602271851978      0.31679135508943
  N   2.33680714425315      1.35124580375386      0.34761493122481
  N   -0.88159280865029      0.58097045582429     -1.02182660594477
  H   -0.56958154023737      1.53132337557428     -0.86775652404474
  H   -1.84673560323411      0.61674293939888     -1.31834304048502
