11
Coordinates from ORCA-job run
  C   0.74780808392764      0.15181603957394      0.25905358384698
  C   -0.60704060492826     -0.34929663513384     -0.23874181560027
  F   1.14834413184692      1.21658487574041     -0.53658304159557
  H   -0.47382977605407     -0.69713973274060     -1.26662008572444
  H   0.67005761663220      0.52633628847733      1.28455325674038
  H   -0.90590844885411     -1.21216600781343      0.36285367410197
  C   1.76945055465198     -0.90287634702033      0.20240301747492
  N   2.54830514574578     -1.77939579704242      0.15671064481816
  N   -1.65895214344674      0.64691265581488     -0.21494242730015
  H   -1.37403581500570      1.46315360663081     -0.74026030756244
  H   -1.86519874451564      0.93707105351325      0.73257350080047
