11
Coordinates from ORCA-job run
  C   0.63057757316646     -0.31077707329469      0.53382097175747
  C   -0.38727234931450      0.10808976075557     -0.50849899226452
  F   0.76072026701100      0.71236251986319      1.46462120515502
  H   -0.45766492835472     -0.68655051088218     -1.25605654569335
  H   0.27511450317295     -1.19556829950744      1.06710414595108
  H   -0.00635963255470      1.01029527420829     -1.00833795793445
  C   1.94536889218903     -0.57631952172749     -0.06812744071919
  N   2.97766102943770     -0.79738536426036     -0.57984066001241
  N   -1.67506917768268      0.26215891947880      0.15159317664667
  H   -2.40676504928945      0.38869764275415     -0.53501245730398
  H   -1.65731112778109      1.08599665261216      0.73873455441766
