11
Coordinates from ORCA-job run
  C   0.67035049100516     -0.67430344394284      0.38980453464862
  C   -0.74868127258395     -0.14803014719422      0.23145706548968
  F   0.82309047621066     -1.24121518925781      1.64277747691521
  H   -0.95422512221654      0.54182080747356      1.06053205862529
  H   0.86684672372592     -1.43766969749510     -0.36590775220787
  H   -1.42011753046258     -1.00369535431704      0.33274747308793
  C   1.64213239900533      0.41975435735408      0.23249672218987
  N   2.37489607058217      1.32616876462812      0.09723879152337
  N   -0.87564234942173      0.41732523162550     -1.10385299341656
  H   -0.53735657117503      1.37115245698356     -1.11993350149262
  H   -1.84229331466942      0.42769221414220     -1.39735987536292
