11
Coordinates from ORCA-job run
  C   0.67489915690888     -0.69764692635789      0.33761106814808
  C   -0.75224197768550     -0.19337943760684      0.18032740313817
  F   0.79526926969935     -1.40394024262711      1.52131974820120
  H   -1.40083638370493     -1.07190330214988      0.15255439147232
  H   0.92471284441920     -1.36140588708490     -0.49281566725071
  H   -1.01184272484803      0.38922933657846      1.07393188189339
  C   1.61767706539408      0.43237195490889      0.35047188899709
  N   2.32652563723840      1.36749570383845      0.35276707958775
  N   -0.84277277285524      0.52087714498854     -1.08484031186627
  H   -0.53487995491599      1.47878403334697     -0.97561648893767
  H   -1.79651015965023      0.53951762216531     -1.41771099338336
