11
Coordinates from ORCA-job run
  C   0.60827703505903     -0.65980241530867      0.34593097027421
  C   -0.83372741537650     -0.15494338146750      0.24827589459587
  F   0.77241118938693     -1.37871854190222      1.51678719062786
  H   -1.48897376418009     -1.02926722759438      0.27811615775739
  H   0.84171404134882     -1.32653099921406     -0.49033547624253
  H   -1.04053349162804      0.43909150898459      1.14165302397381
  C   1.55092740253916      0.46984751057861      0.32902461989042
  N   2.25810376096459      1.40569908813675      0.29649769841353
  N   -1.12778561234920      0.63353627983600     -0.92974886398258
  H   -0.95901295253572      0.11514025217056     -1.78129870886968
  H   -0.58240019322899      1.48494792578033     -0.95290250643830
