15
Coordinates from ORCA-job run
  C   -0.40917253416447      0.26135105853944      0.15330757373988
  C   0.44111120556342     -0.97801488916136     -0.03912906019775
  Br  -1.16411611727344      0.27599659639493      1.92937318438286
  H   -0.17451386570892     -1.87400657502887      0.01315291980686
  H   0.95694689849634     -0.92126044448981     -0.99927702643367
  N   0.45055227645032      1.51224230747874     -0.08076448428127
  O   1.10543663248639      1.46440176234513     -1.11737230097798
  O   0.36939788228423      2.45315031000013      0.68793151087078
  C   -1.52098702371272      0.31482413329287     -0.88321642079225
  H   -2.09871550263943      1.23201620900151     -0.75844692634096
  H   -1.08777536272184      0.29591488554396     -1.88537890707507
  H   -2.18977032078559     -0.53690087729576     -0.75602533625794
  N   1.50314030590620     -1.12703754093330      0.99965535838099
  O   2.08922516274236     -0.10501823408069      1.34250352633201
  O   1.73024036307715     -2.26565870160693      1.39468638884350
