15
Coordinates from ORCA-job run
  C   -0.45562856613175      0.17806776467933      0.13826838500266
  C   0.57357680616304     -0.89501082282476     -0.15442722847298
  Br  -1.40523478052642     -0.24223675180939      1.76499491005604
  H   1.18673866028212     -0.59048717298919     -1.00437734987934
  H   0.08509763912952     -1.84687709594606     -0.35392115983098
  N   0.24575758876825      1.53955980553723      0.25626503467307
  O   -0.04935988335008      2.29404635887776      1.16531963667772
  O   1.01478736222384      1.77222892593580     -0.67105109992752
  C   -1.43729077645746      0.30941126174232     -1.01592782318327
  H   -1.99351225308767     -0.62023724257120     -1.13938077555175
  H   -0.89275384558248      0.53700004097179     -1.93466737755282
  H   -2.14539973155929      1.11334302067046     -0.80899674980455
  N   1.51514163917890     -1.12655766408460      0.98127363355409
  O   1.83698735485251     -2.28920019383801      1.20178337405908
  O   1.92009278609698     -0.13205023435149      1.57484459018054
