15
Coordinates from ORCA-job run
  C   -0.37306602604511      0.33334382917607      0.21302829612357
  C   0.90094191893078     -0.44235532057275      0.53304532142532
  Br  -1.80764881949336     -0.23149556105694      1.39663320465749
  H   1.15174257790228     -0.37309319660690      1.58691457928885
  H   1.71840027623659     -0.07140911060186     -0.08611030652170
  N   -0.09486933226520      1.80238594454986      0.56585610173711
  O   0.93399333911893      2.04472023394331      1.19058854936012
  O   -0.92394984437857      2.62098671213217      0.19658229419807
  C   -0.82495092367161      0.27470706444577     -1.22823826618383
  H   -1.69351272814174      0.91584323343590     -1.36355779043128
  H   -1.07912675649750     -0.74657486786229     -1.50388220470172
  H   -0.01571900603338      0.61926662256768     -1.87828584161949
  N   0.73850659188569     -1.88919925529483      0.20824445602732
  O   0.55508869654411     -2.65822891362011      1.14769828262829
  O   0.81317003590810     -2.20189741463509     -0.97951667598812
