15
Coordinates from ORCA-job run
  C   -0.39353934217051      0.34365851616071      0.22933866026391
  C   0.95085650778496     -0.35114370598419      0.44889208525122
  Br  -1.63252649893210     -0.15444188916143      1.62478505608530
  H   1.33295362277388     -0.13989732986228      1.44664192301639
  H   1.64714740015761     -0.02801098653212     -0.32700269077192
  N   -0.02326512755765      1.83396966464146      0.37494306689693
  O   -0.19740894175188      2.39671528223797      1.44465273069111
  O   0.49722602823938      2.31724980497502     -0.62714310881428
  C   -1.02743658793906      0.13318268930867     -1.13057591480019
  H   -0.30233790362372      0.32789304550547     -1.91945562441421
  H   -1.87470035828323      0.81128685949251     -1.24355767814865
  H   -1.38156393306661     -0.89154024448465     -1.21990484249544
  N   0.82921542916949     -1.83175117854633      0.33211359303296
  O   0.66048013022636     -2.28021681148538     -0.80057713858652
  O   0.91189957497309     -2.48695371626543      1.36684988279339
