15
Coordinates from ORCA-job run
  C   -0.32701813639541      0.35617402578873      0.24750667900576
  C   0.99334723761076     -0.39556585853619      0.38405190832050
  Br  -1.49244851813918     -0.07723552013508      1.74141149225789
  H   1.44841002478251     -0.22146701122315      1.35404554392657
  H   1.66707028021380     -0.09783473995393     -0.42014828510760
  N   -0.00067487404572      1.85047094334171      0.39206117446885
  O   1.13024788464810      2.14446425470890      0.76911257716586
  O   -0.89680131647269      2.63554149893857      0.11925853270683
  C   -1.05457428457921      0.16063546978704     -1.06301669542069
  H   -1.94001870897679      0.79250286533433     -1.08534856711425
  H   -1.34602963605644     -0.88067924978125     -1.18228535483213
  H   -0.39391789346691      0.43401348704288     -1.89066332282348
  N   0.78547173354946     -1.86652582789887      0.24811942686460
  O   0.81111817545183     -2.53425856674763      1.27822727983009
  O   0.61681803187590     -2.29923577066607     -0.89133238924881
