15
Coordinates from ORCA-job run
  C   -0.48708668003274      0.37889185962786      0.27615770258180
  C   0.32645358542541     -0.75452335097605      0.87039548987706
  Br  -1.80720363953550      0.85118760605419      1.63528300012732
  H   0.86711805170676     -0.41994687856813      1.75505201570627
  H   -0.31328829208105     -1.59880551026836      1.12117053145331
  N   0.39586735909472      1.61910592090680      0.13001451182971
  O   1.23633631826875      1.79956057572537      1.00107635220436
  O   0.16688700877592      2.35008941794911     -0.82369255872436
  C   -1.18525389100172      0.05311295163687     -1.02211416525143
  H   -0.44835429577741     -0.12121695556766     -1.80631191799456
  H   -1.82635137150153      0.87712542000408     -1.32708690969856
  H   -1.79693199267752     -0.84030002425752     -0.88302660040806
  N   1.35933317333387     -1.27136711709895     -0.08391195235514
  O   1.81526276622619     -0.48229344043927     -0.90834838375822
  O   1.69821189977592     -2.43962047472835      0.06534288441056
