15
Coordinates from ORCA-job run
  C   -0.42186276838680      0.25589132817473      0.12059592653620
  C   0.45415143667174     -0.97336907904422     -0.01465604984952
  Br  -1.31308498737101      0.24732937582587      1.83264334696548
  H   1.04795327382264     -0.89865308316952     -0.92731682433833
  H   -0.15464800679147     -1.87544531356216     -0.02392187246510
  N   0.44077908860335      1.51711218738887     -0.03502176779614
  O   0.29771205902672      2.44621880433584      0.73910160467765
  O   1.17611532543155      1.48528663600135     -1.01674467578706
  C   -1.44982170693453      0.30875916155037     -0.99897865268701
  H   -2.04277132527773      1.22070726941958     -0.91325387263213
  H   -0.93958187822574      0.30076011385306     -1.96435906666260
  H   -2.11966000362001     -0.54884316559844     -0.93041264272395
  N   1.42605837966256     -1.12322562983600      1.10862955035988
  O   1.98536586919408     -0.10146331283415      1.49440767191030
  O   1.61229524419465     -2.26006529250514      1.52928732449231
