15
Coordinates from ORCA-job run
  C   -0.48796732356048      0.38266183335519      0.26923541926644
  C   0.32590515443277     -0.73977964585410      0.88335413663120
  Br  -1.81077289735915      0.87563150002935      1.61845466116688
  H   -0.31300539190250     -1.58057555031693      1.14753708093201
  H   0.86495247845754     -0.38965022104864      1.76299833489924
  N   0.39371635796428      1.62144419760361      0.10404994051555
  O   1.23272724556469      1.81705495529203      0.97324999089931
  O   0.16523180212480      2.33643340868433     -0.86176590482753
  C   -1.18369588225894      0.03488093514884     -1.02466020387075
  H   -1.82596500459957      0.85273535802855     -1.34345278922756
  H   -1.79395707952977     -0.85730832348925     -0.87206388821196
  H   -0.44551930075757     -0.15064700196459     -1.80505669614788
  N   1.36077367835193     -1.27113746217178     -0.06070618557420
  O   1.70050905272452     -2.43646770257094      0.10819638496240
  O   1.81706711034744     -0.49527628072565     -0.89737028141313
