15
Coordinates from ORCA-job run
  C   -0.44395450158006      0.37079680556136      0.35002468291064
  C   0.43900922416271     -0.77828074745268      0.79680743508820
  Br  -1.56624892691516      0.80373214327713      1.88824857237812
  H   1.09594042092444     -0.46779017344657      1.60859113944189
  H   -0.16324509337621     -1.62953801905845      1.10919149865033
  N   0.41484362035555      1.61531507228644      0.12018380258027
  O   0.06090471165756      2.37254895076118     -0.77286436782784
  O   1.36605803043562      1.77187840932149      0.87408524161798
  C   -1.31258495003616      0.08107373564418     -0.85028818700391
  H   -1.90145326321320     -0.81712815089393     -0.65488865675177
  H   -1.98760189722741      0.91223715587780     -1.04144718288141
  H   -0.68945138725897     -0.06931713944791     -1.73199534498374
  N   1.33113185902257     -1.26767931584254     -0.30276968584539
  O   1.67434303865035     -0.45503877297178     -1.15839296312278
  O   1.68230911439838     -2.43980995361573     -0.23448598425057
