15
Coordinates from ORCA-job run
  C   -0.27990187813108      0.40840326705832      0.22487366968577
  C   1.00734733273035     -0.40232173148481      0.33944683391891
  Br  -1.30086226865249      0.26738221041137      1.87275484796330
  H   1.60721374062682     -0.26211464983762     -0.56036491082674
  H   1.56971994988888     -0.12755655253003      1.22632347032845
  N   0.13640918377438      1.88323125666770      0.11677217038096
  O   1.31354941673964      2.15221402066407      0.33936357462234
  O   -0.74098111680021      2.67955724854084     -0.18302002051540
  C   -1.15167626761822      0.07887180467385     -0.96521990197569
  H   -0.56959333129383      0.18758966274686     -1.88472887924067
  H   -2.00046586853206      0.75896350948397     -0.99381455118211
  H   -1.50840116100057     -0.94688175407094     -0.90069241255638
  N   0.71036298793617     -1.86107719280027      0.43488175641034
  O   0.40927847724641     -2.43456523314056     -0.61133975130452
  O   0.80000080308578     -2.38069586638273      1.54376410429142
