15
Coordinates from ORCA-job run
  C   -0.48982060142740      0.37622176394514      0.27479101233516
  C   0.35394478978104     -0.72748609875141      0.88261438453207
  Br  -1.79794596911722      0.85583037848080      1.64321050333791
  H   -0.26550944784354     -1.57725579538374      1.16388834718973
  H   0.90190465181300     -0.36160675903671      1.75024609190234
  N   0.36705895256147      1.62894727820117      0.08595681082103
  O   0.11059691063143      2.33226191462734     -0.88135082203390
  O   1.21626832004166      1.84591309128356      0.94009360725382
  C   -1.20154821549001      0.00711361719826     -1.00434973401243
  H   -0.47378817070995     -0.17121436220888     -1.79613429207635
  H   -1.86358149501805      0.81121015225093     -1.31766827407115
  H   -1.79336568214278     -0.89443535574892     -0.83498058551483
  N   1.38126353826837     -1.24771272569345     -0.07576905206159
  O   1.80992188572505     -0.46974100481159     -0.92500208912783
  O   1.74360053292697     -2.40604609435250      0.09445409152594
