17
Coordinates from ORCA-job run
  C   0.73485762807746      0.50844269680938     -0.01963613782706
  C   -0.69115791826153      0.07737431043430     -0.36135577639505
  Br  0.84153657377304      2.50765615570818     -0.31047516051839
  H   -0.91237918855052      0.39078706083251     -1.37831186759933
  N   1.19676623916463      0.05264279096690      1.20494583668207
  H   2.15811036008483      0.31169540482720      1.38141511620565
  H   0.57328139809684      0.31413044172638      1.95780729923651
  N   1.68841488398624     -0.02021565456196     -1.10087407687456
  O   2.86017776865303     -0.12959255160207     -0.76973663053929
  O   1.21471764821756     -0.26498384686404     -2.20291308080202
  N   -1.66750082658863      0.82641479052845      0.49869330052464
  O   -1.49726472756826      0.78708294386731      1.71765271591497
  O   -2.60012033168398      1.37785131856731     -0.07397273230552
  C   -0.92869452208231     -1.41090291614400     -0.16368193876883
  H   -1.95930110367201     -1.64935518429884     -0.43545893764724
  H   -0.26426733885775     -1.97955218428313     -0.81436174135749
  H   -0.74717654278866     -1.69947557651388      0.87026381207092
