17
Coordinates from ORCA-job run
  C   0.79359525928207      0.15282267039568     -0.29296008482827
  C   -0.65137302342884     -0.03561389936594      0.19691009321679
  Br  1.34424155229006     -1.16878733041089     -1.57959584602436
  H   -0.81920098171567      0.75535068251802      0.93389946960150
  N   0.91456127755778      1.44483435391373     -0.86181653446453
  H   1.80671887050481      1.55934954406509     -1.32689617412262
  H   0.82018388152269      2.14579230890260     -0.13423005948831
  N   1.69543408712822      0.00333885900155      0.98845386229788
  O   1.70988748097832      1.01557327892322      1.68342000494087
  O   2.24849530247852     -1.05643851428254      1.22750367876748
  N   -0.76304430395376     -1.30556131657822      0.99585356882046
  O   -1.05609334203114     -2.33497734623324      0.39590088894025
  O   -0.54525993054289     -1.20700060546538      2.20320684382371
  C   -1.68249787578831     -0.00117457958601     -0.90801177081443
  H   -2.68258636825834     -0.05816807565316     -0.47362427917314
  H   -1.58344068718813      0.93158055958096     -1.46148403025435
  H   -1.55062119883540     -0.84192058972547     -1.58552963123892
