17
Coordinates from ORCA-job run
  C   0.62884264165818      0.72358027657001     -0.02504355338069
  C   -0.73026102211922      0.08268463784280     -0.33741647071316
  Br  0.67903679019040      2.60604639702367     -0.52644652334894
  H   -1.05066399911810      0.42702823837928     -1.31878729629076
  N   1.01096872838838      0.59176287755341      1.30694283447865
  H   1.95617485978832      0.90796720301634      1.47457174118770
  H   0.86927096499400     -0.33905264376992      1.67396380428407
  N   1.61760720947462      0.03962504400743     -1.04001713469196
  O   2.62583275901708     -0.45892081485605     -0.55485725914453
  O   1.29250784561484      0.03594231525194     -2.21917051439124
  N   -1.73810199155392      0.62550904137822      0.63581245419071
  O   -2.40513000435515      1.58684635689824      0.26336501427483
  O   -1.82193355824228      0.06380835903864      1.72514334487673
  C   -0.72153840373952     -1.43601928016956     -0.26852163163936
  H   -0.38443084355168     -1.80888821711731      0.69781429371374
  H   -1.73661053838794     -1.80488250517526     -0.42573336539820
  H   -0.09157143805801     -1.84303728587186     -1.05961973800757
