17
Coordinates from ORCA-job run
  C   0.69987933017593      0.54550458384949     -0.23009484146769
  C   -0.76629097891321      0.10928511425808     -0.12618266412662
  Br  1.00036276153012      1.11681707398874     -2.13838950341764
  H   -1.35655926625331      1.00212604703119     -0.34583949319916
  N   0.96888145517496      1.52686502760393      0.71934407169585
  H   1.95083611666330      1.75428166548876      0.79468084375026
  H   0.39456521263336      2.35091215544505      0.60662990468403
  N   1.70876460173024     -0.59411623062853     -0.03990711081344
  O   1.49423938633711     -1.62891313588845     -0.64949373583573
  O   2.67289012798976     -0.35378525799770      0.67478876824890
  N   -1.01817651243348     -0.16450754411590      1.33227687313304
  O   -1.85330469193776      0.53430869507156      1.89839984365510
  O   -0.37126906671734     -1.07850468825136      1.83307658949913
  C   -1.27728901322591     -1.06886230654275     -0.93399035138049
  H   -0.83394048110069     -1.99935209112915     -0.59120968740924
  H   -2.36208669099512     -1.11668632782610     -0.81276613269056
  H   -1.04950229065796     -0.93537278035688     -1.99032337432575
