17
Coordinates from ORCA-job run
  C   0.68169579909028      0.70044286424878     -0.14717930312116
  C   -0.69738373993871      0.03580768848090     -0.34005959119024
  Br  0.54735011151914      2.54978858113357     -0.83919993934669
  H   -1.01099692139679      0.17487735367695     -1.37274854818980
  N   1.26201301767347      0.67238389736803      1.12127046525233
  H   1.96856928528153     -0.04148432383863      1.22088016330706
  H   0.57823842618874      0.69187352230134      1.86352869202235
  N   1.59738841197927     -0.05550941938801     -1.13482813813304
  O   2.58623279156320     -0.61214264439690     -0.67058054973709
  O   1.23381878481756     -0.08291399147058     -2.30108280358762
  N   -1.72238003375872      0.75817810595613      0.47982398892455
  O   -2.68348554799982      1.23268679685057     -0.11519710052135
  O   -1.54801235894582      0.78760419828166      1.69929769127861
  C   -0.69298161926148     -1.42745624049959      0.06478914430487
  H   -1.70253599351431     -1.83470623883204     -0.02025543879646
  H   -0.04575526189990     -2.00121601796907     -0.60102020153080
  H   -0.35177515139761     -1.54821413190312      1.09256146906447
