17
Coordinates from ORCA-job run
  C   0.66984848764730      0.64725857116122     -0.20335644691947
  C   -0.78162511398824      0.14648017911642     -0.17289004433116
  Br  0.99384980168839      1.41353021195827     -1.96222765620018
  H   -1.38641720426263      1.03293470991339     -0.37126524119432
  N   0.86938828057575      1.65077747810909      0.76829275396334
  H   0.89239368723412      1.23214508398318      1.69194825613668
  H   1.74551249315742      2.13403315207861      0.61676411963594
  N   1.70316044314102     -0.51789130900141     -0.08532389234173
  O   2.58124429771095     -0.37103103138295      0.75335193455924
  O   1.57297508997123     -1.46557752464971     -0.84665270676773
  N   -1.13108784561076     -0.23881855346167      1.23786967879737
  O   -2.29197136254373     -0.06137993667630      1.58526785489312
  O   -0.24134304433957     -0.75271587879368      1.91783649010721
  C   -1.21188513114550     -1.00521137412760     -1.06774339701401
  H   -2.29943487363637     -1.08330431620373     -1.01581222070802
  H   -0.91981223890283     -0.81629789862248     -2.09936779681073
  H   -0.76479576669656     -1.94393156340064     -0.74769168580555
