17
Coordinates from ORCA-job run
  C   0.79741068074502      0.26801053762700     -0.18151059701522
  C   -0.66027842182778     -0.12149145736267      0.11225896022935
  Br  1.62845443472769     -0.82734006157531     -1.52854690563421
  H   -0.99667604908612      0.56193614601585      0.89759244917996
  N   0.82955634356230      1.62415781935256     -0.59047745812055
  H   0.58128620861136      2.21994143552862      0.19250946426885
  H   1.74724208713470      1.88247524653533     -0.93186977954225
  N   1.56992445687936      0.05698906651007      1.17336427293975
  O   2.19159458544941     -0.97375345318735      1.36720312349432
  O   1.41399752028976      0.98328147641739      1.96417024062929
  N   -0.71143574754204     -1.47620569919782      0.76512919439477
  O   -0.65527121894022     -1.48796226132406      1.99443200104860
  O   -0.80173484551851     -2.45885109946016      0.03590658799666
  C   -1.56394374405549     -0.07320039980028     -1.09857999991099
  H   -1.50511551454732      0.91604861267770     -1.55049832885376
  H   -1.27067414855347     -0.82481232515072     -1.82821360850742
  H   -2.59333662732866     -0.26922358360616     -0.79186961659715
