17
Coordinates from ORCA-job run
  C   0.88100782867232      0.03899566141250     -0.16118068623486
  C   -0.60801870901542     -0.01505364485420      0.24205137076636
  Br  1.45093282695637     -1.66034836290423     -0.86392674077188
  H   -0.78662321997774      0.87732394643628      0.84912686646421
  N   1.22184232736591      1.06449790145684     -1.09820685348127
  H   0.86622084376779      1.96248828029971     -0.79058985315428
  H   0.89663665651976      0.84185401806133     -2.02848433183073
  N   1.70196036150480      0.40875441338110      1.09705806005807
  O   2.57499499085927     -0.32988803901844      1.50841018507573
  O   1.38827079801614      1.50745688501713      1.54547908097174
  N   -0.82733448289255     -1.16426562416888      1.19006880065449
  O   -0.20524242792268     -1.10262678316123      2.24845847914740
  O   -1.58342736994051     -2.06834326441318      0.85044754738869
  C   -1.55776183036677     -0.08254720673381     -0.93234630978742
  H   -1.35725214063117     -0.95110940826625     -1.55838582963385
  H   -1.47262222186067      0.82771410614895     -1.52710005822949
  H   -2.58358423105486     -0.15490287869363     -0.57187972740288
