17
Coordinates from ORCA-job run
  C   0.73982263746383      0.63039548410848     -0.24139090638856
  C   -0.73238053480280      0.15321945050895     -0.21400075714761
  Br  1.04516552958835      1.37841917227393     -2.02726390774572
  H   -1.33254031576750      1.03688670223707     -0.43977076415161
  N   1.08935283887122      1.58598361944707      0.73541678083460
  H   0.37510116000937      2.29002732408642      0.85891934095140
  H   1.35494750203432      1.15199151821814      1.60973127893454
  N   1.68144728963170     -0.57545496023844     -0.07384919736561
  O   2.28859407140066     -0.65533266363046      0.98769877436344
  O   1.71751336049279     -1.37848653693369     -0.99370101034260
  N   -1.04244762587127     -0.15233879617796      1.22403700770502
  O   -1.73257141363298      0.65994750137833      1.83708758559807
  O   -0.55084146754737     -1.17922689876419      1.68796967566373
  C   -1.14158977181701     -1.02254852959309     -1.07742697341308
  H   -0.64532074936248     -1.93638541688811     -0.75915848921401
  H   -2.22254312710815     -1.15784904872362     -0.99503084550795
  H   -0.89170938358270     -0.82824792130885     -2.11926759277408
