17
Coordinates from ORCA-job run
  C   0.67721130766572      0.64788571395498     -0.17444690037598
  C   -0.77704804281724      0.15434009778258     -0.18351344247150
  Br  1.04007043383543      1.45024742917470     -1.90959955181491
  H   -1.37288481458102      1.04961170319920     -0.36928562255888
  N   0.86323308423891      1.62911258715727      0.82235519931718
  H   1.74461495033037      2.11054067597630      0.69796931722718
  H   0.86648035657950      1.19015608795274      1.73676418440337
  N   1.70250275195406     -0.52510009048267     -0.06226132546010
  O   1.57809314799402     -1.45851373766593     -0.84200244136297
  O   2.56907973850698     -0.39840396785929      0.79144246982626
  N   -1.15535595813965     -0.26602041439627      1.21003711658811
  O   -0.27858831606515     -0.79035069493328      1.89881995778204
  O   -2.32489566252886     -0.10343527433464      1.53470710610969
  C   -1.19813000941971     -0.97050427725210     -1.11613376630557
  H   -0.88357781349503     -0.75794669672133     -2.13647524431724
  H   -0.76479757286484     -1.92067017586744     -0.81133380443305
  H   -2.28700758119349     -1.04094896568480     -1.08804325215364
