17
Coordinates from ORCA-job run
  C   0.62294333751336      0.71743735924988     -0.12236800708196
  C   -0.74743821318546      0.05103275615604     -0.30248931219084
  Br  0.63285209517602      2.55086358780127     -0.78246977900746
  H   -1.12184240395068      0.30538112184205     -1.29207988065187
  N   1.08032445734140      0.69967132432180      1.19249970163595
  H   2.03052740863626      1.03342036859185      1.27833596737557
  H   0.97072677074778     -0.19925074827711      1.64109296958658
  N   1.55788723628711     -0.04725196282315     -1.13001169287316
  O   1.16397181922388     -0.15843905266059     -2.28274230050472
  O   2.60012297774192     -0.49198011393024     -0.66463832700103
  N   -1.70621829751950      0.67908515958360      0.66962409366825
  O   -1.72656243051762      0.22219592174341      1.80972011059034
  O   -2.40143611561454      1.59804730739469      0.24503084888899
  C   -0.72807087389243     -1.45514408213969     -0.09650918535039
  H   -0.34963706359623     -1.73676749981757      0.88528004646947
  H   -1.74724373741432     -1.83733171910292     -0.17670027140285
  H   -0.12990696697697     -1.93296972793333     -0.87257498215087
