17
Coordinates from ORCA-job run
  C   0.66797630999984      0.61241746927208     -0.13821734161171
  C   -0.75906690612076      0.05371339250170     -0.19110726267601
  Br  1.08688808662025      1.31160864338894     -1.97941437329623
  H   -1.40212871208634      0.90651904160173     -0.42133974380833
  N   0.76630411646661      1.55840281171995      0.87853970160763
  H   1.71490001379584      1.85968084220849      1.05522735344833
  H   0.13778710801854      2.33936217882128      0.74870474293189
  N   1.74890320212398     -0.45126188009520      0.09106739672423
  O   1.68083511063461     -1.46262952065597     -0.58795052151405
  O   2.61881813406048     -0.17641407837527      0.90703095880544
  N   -1.11383485483191     -0.32034075007596      1.22277170003795
  O   -2.05318474588912      0.27510857146998      1.74169503200477
  O   -0.43691389552823     -1.20488469042633      1.73657617334771
  C   -1.09314283730341     -1.11507785756440     -1.09874957077232
  H   -0.78398962971468     -0.90493202427837     -2.12141578227344
  H   -2.17623134507046     -1.25802309487053     -1.08235287814683
  H   -0.60391915517523     -2.02424905464212     -0.76106558480903
