17
Coordinates from ORCA-job run
  C   0.80989711976888      0.33188229525693     -0.19533299585748
  C   -0.52393292166124     -0.33631278374689      0.20230263743981
  Br  1.06068234120336      0.25108290433633     -2.10276806772849
  H   -0.47729330247135     -0.47534391187383      1.28644026684240
  N   0.96435552885006      1.68767090084403      0.23375281898833
  H   0.38886045594863      2.31707294115037     -0.30802344052936
  H   0.76725777299480      1.77293198915342      1.22447567807000
  N   1.95202436331433     -0.41301681091863      0.53464393628007
  O   1.84187780153655     -0.34366114247242      1.75516822934891
  O   2.84804650279957     -0.94305193843770     -0.09257508534365
  N   -0.56748338872372     -1.73468014384004     -0.35447862988132
  O   0.31087121699881     -2.49291227430585      0.05116701623066
  O   -1.44606857653626     -2.01655878936816     -1.16261043685826
  C   -1.74803595991167      0.45434163211874     -0.20025082307599
  H   -1.75883545266392      1.40890283997502      0.32726979151138
  H   -1.77539965008580      0.62782871751221     -1.27527178300435
  H   -2.64782385136104     -0.09417642538354      0.07709088756733
