17
Coordinates from ORCA-job run
  C   0.66111905103281      0.69380686228890      0.00679875485316
  C   -0.72591120092755      0.13030349395699     -0.32932040007071
  Br  0.79081655008741      2.59556227568727     -0.40334655832969
  H   -1.03124712479453      0.53333796568904     -1.29287627519165
  N   1.04325137598305      0.48011265134764      1.32731295124072
  H   0.85023569208334     -0.45566610288486      1.65576115562191
  H   2.00447363666997      0.73784612355315      1.50314023562625
  N   1.61606413684028      0.02008528557132     -1.04711295395969
  O   2.61013768124397     -0.53417559246659     -0.59445132327594
  O   1.28225837647051      0.08090017084729     -2.22226253627818
  N   -1.70777532933491      0.67258685642222      0.67030751259687
  O   -1.80687499396705      0.07289770252042      1.73792654649861
  O   -2.34169259291353      1.67064851794030      0.33888487681063
  C   -0.78653603269721     -1.38892561628120     -0.32918044179891
  H   -1.81706382683801     -1.70362919834025     -0.50274788450222
  H   -0.46787241546860     -1.81953520196193      0.61922344859558
  H   -0.17438298346996     -1.78815619388970     -1.13805710843675
