17
Coordinates from ORCA-job run
  C   0.79912455003803      0.24215612608898     -0.20628678023102
  C   -0.66195106023922     -0.11451441890341      0.11162404686607
  Br  1.72010171231518     -1.12114688635155     -1.20530424418939
  H   -1.05154823234201      0.72547503822032      0.69435371917026
  N   0.82036756070522      1.45717722115142     -0.93513762843316
  H   0.51974673026908      2.21763673691469     -0.33428741841743
  H   1.74749275145524      1.65525503074137     -1.29093933609392
  N   1.50792300810212      0.39795788768992      1.19027999815210
  O   1.27849379615212      1.47908563999620      1.72530624354569
  O   2.15635446171063     -0.52474307437699      1.65336589172427
  N   -0.71335198494773     -1.27443804069479      1.06902040082651
  O   -0.75836492330071     -2.40539358689136      0.59526784766694
  O   -0.70367126376222     -0.98957141174831      2.26625279381703
  C   -1.50639021625638     -0.38830800442207     -1.11191928845855
  H   -2.54433398975637     -0.54218800601708     -0.81007670108414
  H   -1.45014370814233      0.46649743500662     -1.78450883026176
  H   -1.15984919200064     -1.28093768640396     -1.62801071459951
