17
Coordinates from ORCA-job run
  C   0.81002522317810      0.11982551212901     -0.26333566479650
  C   -0.66376965033740     -0.01995032412091      0.15077071195348
  Br  1.50435225315708     -1.43651243607400     -1.15862528582215
  H   -0.91773988658499      0.91406583459505      0.66073464113085
  N   0.93712646166899      1.24761978036298     -1.11174256080048
  H   0.76139602660398      2.09360050262650     -0.57975182901782
  H   1.86073592584809      1.29436352613423     -1.52415204911532
  N   1.60752985690716      0.31758640743542      1.07824779395472
  O   2.16594344967250     -0.63056971788550      1.60325028884679
  O   1.53886609692208      1.46463043399571      1.51112661923091
  N   -0.80137550496307     -1.06736188362649      1.22212812668639
  O   -0.69330134518330     -0.67292358492557      2.38291933831646
  O   -1.00491932344417     -2.22438993712589      0.86791475229993
  C   -1.60063677726753     -0.30189865265078     -1.00167566808714
  H   -1.39270320158946     -1.27598162672799     -1.43887081945092
  H   -1.47910966574691      0.47113618909193     -1.75922400881120
  H   -2.63141993884115     -0.29524002323369     -0.64171438651801
