17
Coordinates from ORCA-job run
  C   0.73625994796878      0.63096535202758     -0.25319150871475
  C   -0.73399814555551      0.14904886712599     -0.21156200775597
  Br  1.02935733944335      1.35787474972873     -2.05041995221934
  H   -1.33886031256817      1.02838520435210     -0.44188718028862
  N   1.08768819305751      1.59841050706056      0.71060251011625
  H   0.36731350079277      2.29535833343263      0.83847935319979
  H   1.37070144407945      1.17502772099895      1.58464566899376
  N   1.68165678953114     -0.57058259246705     -0.07673190753825
  O   1.71726636833661     -1.38326840124120     -0.98816316988171
  O   2.29080959316363     -0.63930828751757      0.98467004063019
  N   -1.03378003303537     -0.14303209601308      1.23187991281953
  O   -1.71443177588706      0.67823325902166      1.84367117808898
  O   -0.54448661171790     -1.16889469531075      1.70052471853146
  C   -1.14502620862483     -1.03639924731537     -1.06041721720729
  H   -0.64106497447437     -1.94511788393668     -0.73973122709691
  H   -0.90702415224291     -0.84905603822175     -2.10634295179094
  H   -2.22438096226711     -1.17664475172474     -0.96602625988619
