17
Coordinates from ORCA-job run
  C   0.66737101967962      0.64846145524346     -0.20786015469486
  C   -0.78168126056887      0.14047226464111     -0.17412800534893
  Br  0.98924026543089      1.39915811168506     -1.97356679562796
  H   -1.39024159388054      1.02320190866575     -0.37768917135765
  N   0.86081907113321      1.66262741141409      0.75412483252586
  H   0.88802723515010      1.25275099438469      1.68150420095896
  H   1.73306630036640      2.15093424310850      0.59675348372696
  N   1.70628873605220     -0.51004869332664     -0.07733745669438
  O   1.57874678681495     -1.46799466396386     -0.82632850786907
  O   2.58546776524539     -0.34906377092640      0.75757628534161
  N   -1.13034394157210     -0.23774247786062      1.23916018081327
  O   -0.23641225293510     -0.73281419843201      1.92751033346123
  O   -2.29487989143874     -0.07347919975928      1.58058387321174
  C   -1.20762557468609     -1.01821122794891     -1.06205712164783
  H   -0.75813723861787     -1.95352939611332     -0.73558837437115
  H   -2.29497651575464     -1.09885606587764     -1.01120378509618
  H   -0.91472891041881     -0.83486669493398     -2.09445381733161
