17
Coordinates from ORCA-job run
  C   0.68067962318541      0.56602482244232     -0.12074286645913
  C   -0.70990265724643     -0.03249905821911     -0.33118933312425
  Br  0.58139372745791      2.51423011052224     -0.65902565888440
  H   -1.00174023993542      0.12755216684764     -1.36588829925111
  N   1.23472953613481      0.31304775256555      1.12405162941633
  H   2.17317642760585      0.67819096311986      1.21579723801785
  H   0.62057137874350      0.61001828276989      1.87137243880118
  N   1.63552873394378     -0.00615804936524     -1.17794326226586
  O   1.14283207610860     -0.43421033824385     -2.21378977820813
  O   2.82522477023139      0.03718782066033     -0.89960156101164
  N   -1.71760674659888      0.72845965064500      0.48069688778100
  O   -1.49385243380746      0.86026708597622      1.68448993691851
  O   -2.72174661607856      1.11676660630797     -0.10477874866240
  C   -0.79447126526796     -1.49880967149281      0.06038365940780
  H   -0.10302625654344     -2.08319418985444     -0.54668039960671
  H   -1.80667987879506     -1.86319601945330     -0.12804535344142
  H   -0.54711017913805     -1.63467793522826      1.11189347057239
