17
Coordinates from ORCA-job run
  C   0.65907164873506      0.69677560444563     -0.01768467539178
  C   -0.72994995320018      0.12101416579796     -0.32553870277648
  Br  0.78222524376083      2.58638931481103     -0.47624705433739
  H   -1.04733188852924      0.49954740279786     -1.29522396930523
  N   1.05260016299502      0.51790094650002      1.30561654940673
  H   0.88157774928397     -0.41644333603395      1.65063882424748
  H   2.01139688634538      0.79368369789087      1.46755705629119
  N   1.60318558643719     -0.00584631005167     -1.06187187775700
  O   1.26576258532261      0.03717466029005     -2.23673046270605
  O   2.59013097355440     -0.56672278802701     -0.60152963526556
  N   -1.70224228391548      0.68531860899287      0.67141101561699
  O   -1.79645141302751      0.10588903288691      1.75049178326115
  O   -2.33256163047093      1.68118185026730      0.32658848017426
  C   -0.78483911055776     -1.39781763915690     -0.28796426831896
  H   -0.46024638574384     -1.80362556557111      0.66931562801543
  H   -0.17601813052312     -1.81544488040525     -1.09004429164934
  H   -1.81531004046642     -1.71997476543462     -0.44778439950547
