17
Coordinates from ORCA-job run
  C   0.62405147252589      0.72502205443726     -0.06929631618834
  C   -0.73932700800524      0.06644842483700     -0.32026293077499
  Br  0.64925618296784      2.58796096536506     -0.64006213177352
  H   -1.08867712245780      0.37274827907661     -1.30436032287147
  N   1.04312592562031      0.64396838410032      1.25550872354208
  H   1.98954909877206      0.97324866577835      1.38681472836041
  H   0.91809384417365     -0.27338690254846      1.66035451280385
  N   1.58803227948853      0.00874175197030     -1.08551986288187
  O   2.61043328639983     -0.46999620405433     -0.61016132211187
  O   1.23111227912014     -0.03832431368064     -2.25451141933327
  N   -1.72369615843718      0.64040763400563      0.65931738681585
  O   -2.40660592096693      1.58347079922195      0.26930071711981
  O   -1.77420727888125      0.12007093226459      1.77099397800637
  C   -0.72004653780469     -1.44855201128006     -0.19505850191349
  H   -0.35626914713951     -1.78297618990559      0.77564044513977
  H   -1.73669076582975     -1.82777587073714     -0.31242524181352
  H   -0.10813442954591     -1.88207639885084     -0.98627244212581
