17
Coordinates from ORCA-job run
  C   0.85031578285164      0.02752465807586     -0.28243692353082
  C   -0.56821993133623     -0.04951159345254      0.32155832963926
  Br  1.12261935196302     -1.39935661514670     -1.54593208110535
  H   -0.56043652275326      0.61545660304663      1.19022330035865
  N   1.17896774861721      1.27001926890085     -0.91023944410494
  H   0.97535260670271      2.04741768438487     -0.29235791595299
  H   0.70676639544866      1.37526901213681     -1.79725169778885
  N   1.86858160049591     -0.07349580313345      0.87805850785880
  O   1.74530333255333      0.84646186267881      1.68117782098872
  O   2.69843019210534     -0.96113094997333      0.90044900635697
  N   -0.79019168345326     -1.42158565553134      0.90114103598943
  O   -1.68522396879407     -2.11765932808633      0.43350716586638
  O   -0.02910438426187     -1.73963477301399      1.81248143429675
  C   -1.66695802900914      0.32203625667255     -0.64814335238387
  H   -2.63735542021650      0.20856981540931     -0.16553830653661
  H   -1.55795716893862      1.36581762266818     -0.94522002347466
  H   -1.65188990197487     -0.31519806563617     -1.53147685647689
