17
Coordinates from ORCA-job run
  C   0.66877435616241      0.65280111374499     -0.18700366153606
  C   -0.78000139196854      0.14327270042487     -0.17884809986082
  Br  1.00873987123651      1.44113354212734     -1.93293309367236
  H   -1.38684845375720      1.03012333115331     -0.36930436732553
  N   0.85164971581832      1.64621809801528      0.79839256322740
  H   0.87069249219709      1.21643112870173      1.71692614450291
  H   1.72453151421343      2.13895023326515      0.65950073168175
  N   1.70776661551078     -0.50745296641442     -0.07081569005372
  O   2.58018746052502     -0.36170444326885      0.77390157285960
  O   1.58712915367818     -1.45085341184734     -0.83902999612551
  N   -1.14169289675555     -0.26538691624032      1.22247848680623
  O   -2.30996621701407     -0.11089305589271      1.55571657846170
  O   -0.25355787849546     -0.77259285525493      1.90950686308764
  C   -1.19710018935750     -0.99560819541597     -1.09589095676967
  H   -0.74998483094373     -1.93776443010454     -0.78624887022055
  H   -2.28477342022257     -1.07835596067898     -1.05591227394665
  H   -0.89554590082713     -0.78931791231461     -2.12143593111635
