17
Coordinates from ORCA-job run
  C   0.77559841252104      0.58746255095576      0.03817528664325
  C   -0.65948736673598      0.20190818545698     -0.36411331226461
  Br  0.96714275944656      2.54989276176238     -0.29557870976997
  H   -0.85337956671692      0.58034103901633     -1.36547745943516
  N   1.21202886319300      0.22114613407829      1.29820239623501
  H   0.48834653426517      0.14636678851640      1.99453127975073
  H   1.94139230654719     -0.47327359651713      1.31711109639325
  N   1.67134399666887     -0.08212977190635     -1.02806073368497
  O   1.38936636926444      0.14006988653818     -2.19575803493862
  O   2.56947432491171     -0.81348573418891     -0.62595994203160
  N   -1.63837490618049      0.91127559439036      0.52128818939879
  O   -2.46962422704287      1.62874978924483     -0.02321645833918
  O   -1.56540435308349      0.68732009704649      1.73076440236010
  C   -0.90606153918122     -1.29292824585183     -0.26211576849616
  H   -0.27359587978782     -1.82795010407010     -0.97282270321351
  H   -1.94662567951907     -1.50957902616224     -0.51241124738123
  H   -0.70214004857012     -1.65618634830945      0.74444171877386
