17
Coordinates from ORCA-job run
  C   0.64587491384861      0.70459361562680     -0.06719571978896
  C   -0.74307701358073      0.09679420689448     -0.30537789447609
  Br  0.72490775344601      2.57608753899195     -0.60421904411672
  H   -1.09834610732559      0.43140242774328     -1.27810358400640
  N   1.08477204742956      0.58472634211407      1.24861802081623
  H   2.04377149902950      0.88113087214349      1.36738834624289
  H   0.94138694590777     -0.33840453452990      1.63426623229624
  N   1.56834677131683     -0.02351433036582     -1.11337236631655
  O   1.18956589372678     -0.04014275344817     -2.27623724943721
  O   2.58588379550786     -0.53810565598978     -0.66561849248962
  N   -1.68971706924750      0.68582248229451      0.70193774083625
  O   -2.34131443528456      1.66293969180472      0.34357430321937
  O   -1.74292133563238      0.14329953320728      1.80281394090706
  C   -0.77244639195415     -1.42017305383897     -0.20748691516223
  H   -1.80318945326171     -1.76266357312463     -0.31442651641994
  H   -0.40504566143139     -1.78463914316180      0.75095959454896
  H   -0.18845215249493     -1.85915366636150     -1.01652039665328
