17
Coordinates from ORCA-job run
  C   0.73689776336986      0.63651024776323     -0.23552517260851
  C   -0.73195297156171      0.14815589475774     -0.21910665084586
  Br  1.04813255599234      1.39170560312628     -2.01696418290810
  H   -1.33711709704168      1.02740965858530     -0.44852275699997
  N   1.07352892960879      1.59261607090965      0.74588944558667
  H   1.33029212096781      1.15728012159087      1.62230793792745
  H   0.35347850209298      2.29180924482889      0.86385941198345
  N   1.68577278052557     -0.56282905216668     -0.06420458429637
  O   1.73611091838048     -1.36248881149321     -0.98643402691664
  O   2.28179344106139     -0.64360379143502      1.00360395350933
  N   -1.05040295074753     -0.16070703871259      1.21659765904159
  O   -0.55720099900503     -1.18574266193537      1.68281699229395
  O   -1.74858587901153      0.64769801384036      1.82562461256172
  C   -1.12472047369116     -1.03031405276598     -1.08622421555148
  H   -0.62372290131146     -1.94022132269714     -0.76405710619885
  H   -0.86815990688755     -0.83365833246019     -2.12596974612158
  H   -2.20514383274156     -1.17461979173615     -1.01269157045683
