18

C	-0.633082	-0.017625	-1.389363
C	0.0	0.0	0.0
F	-0.30175	-1.238885	-1.932169
H	1.089198	0.0	0.0
C	-2.126059	0.154479	-1.492898
H	-2.415182	0.079815	-2.542339
H	-2.436693	1.121578	-1.107506
H	-2.60492	-0.641363	-0.924203
N	0.07516	0.998127	-2.298796
O	-0.584489	1.949287	-2.71234
O	1.236688	0.742752	-2.57842
N	-0.476588	-1.231175	0.704079
O	-1.624745	-1.223955	1.15828
O	0.299281	-2.179009	0.756996
N	-0.399384	1.166245	0.800325
O	-0.346363	1.069286	2.022832
O	-0.638885	2.204215	0.176958
F	2.444828	0.0	0.0
