18

C	-0.362706	-0.009458	-1.476362
C	0.0	0.0	0.0
F	-0.000146	1.188098	-2.033239
H	1.089882	0.0	0.0
C	0.379533	-1.110196	-2.180325
H	1.413104	-1.019191	-1.838244
H	0.303219	-0.96368	-3.257619
H	-0.02644	-2.084804	-1.92274
N	-1.867413	-0.044709	-1.727176
O	-2.289553	-0.723171	-2.657573
O	-2.540713	0.690239	-1.013391
N	-0.456799	-1.241545	0.668732
O	-1.355289	-1.905133	0.137559
O	0.101377	-1.529014	1.720549
N	-0.515095	1.158313	0.776583
O	-1.247918	0.943609	1.740673
O	-0.131143	2.260987	0.406644
F	2.490288	0.0	0.0
