18

C	-0.391313	0.0277	-1.475056
C	0.0	0.0	0.0
F	-1.631564	0.560528	-1.688238
H	1.087839	0.0	0.0
C	0.669349	0.723124	-2.2994
H	0.567876	1.796404	-2.152465
H	0.534952	0.479042	-3.354936
H	1.642494	0.409189	-1.908355
N	-0.444209	-1.408667	-1.983697
O	-1.331194	-1.690091	-2.778661
O	0.469144	-2.139716	-1.619755
N	-0.597081	-1.127438	0.752518
O	-1.668505	-1.584513	0.346691
O	0.006044	-1.504191	1.751695
N	-0.46207	1.247734	0.658703
O	-1.111013	1.16315	1.699026
O	-0.122655	2.297935	0.121174
F	2.506438	0.0	0.0
