18

C	-0.546144	0.00874	-1.424482
C	0.0	0.0	0.0
F	-0.405546	-1.264844	-1.918636
H	1.089481	0.0	0.0
C	-1.964745	0.44758	-1.651378
H	-2.616203	-0.211249	-1.079807
H	-2.097144	1.478895	-1.333247
H	-2.202953	0.380232	-2.71509
N	0.381712	0.854008	-2.31849
O	-0.050036	1.942135	-2.711226
O	1.469319	0.343877	-2.591734
N	-0.500392	-1.20448	0.730243
O	0.330736	-1.822598	1.389639
O	-1.704298	-1.470648	0.67672
N	-0.445129	1.200345	0.736915
O	-0.164306	2.265166	0.183336
O	-1.008115	1.07641	1.824956
F	2.485192	0.0	0.0
