14

C	-0.412276	-0.047193	-1.444905
C	0.0	0.0	0.0
Br	-2.391047	0.013282	-1.681181
H	1.094401	0.0	0.0
H	-0.043748	0.830088	-1.97197
C	0.061628	-1.266301	-2.076967
N	0.450817	-2.244777	-2.599344
N	-0.463319	-1.101963	0.762096
H	-1.372218	-0.930305	1.17266
H	0.202905	-1.283165	1.501506
N	-0.400022	1.335804	0.548731
O	-0.817685	1.384283	1.707742
O	-0.240915	2.323595	-0.170613
F	2.490793	0.0	0.0
