14

C	-0.428095	-0.020193	-1.440436
C	0.0	0.0	0.0
Br	-2.409324	0.045279	-1.650962
H	1.094391	0.0	0.0
H	-0.068304	0.869404	-1.953908
C	0.038627	-1.225416	-2.10699
N	0.41797	-2.19424	-2.651955
N	-0.452938	-1.118254	0.746604
H	-1.352524	-0.950851	1.178503
H	0.228207	-1.318986	1.46612
N	-0.394705	1.323326	0.578577
O	-0.795333	1.350067	1.744433
O	-0.249522	2.324931	-0.12417
F	2.492498	0.0	0.0
