14

C	-0.55638	0.18028	-1.421448
C	0.0	0.0	0.0
Br	-0.356489	-1.478983	-2.441501
H	1.097579	0.0	0.0
H	-1.631662	0.381564	-1.413355
C	0.110832	1.22513	-2.192234
N	0.590469	2.019596	-2.91276
N	-0.408457	-1.226885	0.623674
H	-1.065905	-1.053386	1.374623
H	0.42666	-1.633783	1.028978
N	-0.438187	1.175848	0.792274
O	-0.683223	2.228172	0.191134
O	-0.511195	1.058575	2.018086
F	2.499607	0.0	0.0
