14

C	-0.436454	0.007893	-1.437324
C	0.0	0.0	0.0
Br	-2.419734	0.070183	-1.631354
H	1.098306	0.0	0.0
H	-0.085005	0.908271	-1.936385
C	0.028455	-1.182744	-2.133873
N	0.367879	-2.134076	-2.734365
N	-0.45154	-1.134662	0.722818
H	-1.359711	-0.987253	1.148037
H	0.225572	-1.340449	1.446158
N	-0.391669	1.311505	0.609031
O	-0.792276	1.314051	1.775471
O	-0.240149	2.327898	-0.070665
F	2.490753	0.0	0.0
