14

C	-0.326197	-0.032834	-1.472424
C	0.0	0.0	0.0
Br	-2.289025	-0.064571	-1.837609
H	1.093625	0.0	0.0
H	0.031612	0.870183	-1.960702
C	0.239268	-1.221861	-2.094232
N	0.671608	-2.183533	-2.611669
N	-0.443986	-1.093474	0.78113
H	-1.267621	-1.558841	0.425655
H	0.321926	-1.735272	0.916621
N	-0.462726	1.318626	0.541167
O	-0.296502	2.300742	-0.191087
O	-0.921203	1.378085	1.67719
F	2.494663	0.0	0.0
