14

C	-0.561836	0.083994	-1.417341
C	0.0	0.0	0.0
Br	0.318859	1.353562	-2.613146
H	1.098407	0.0	0.0
H	-0.347132	-0.89109	-1.851846
C	-2.005589	0.299117	-1.458394
N	-3.171638	0.443049	-1.506185
N	-0.388947	-1.262346	0.577852
H	-1.119188	-1.151253	1.272489
H	0.429905	-1.632714	1.040091
N	-0.452422	1.149645	0.824368
O	-0.613112	0.966962	2.033522
O	-0.599377	2.238236	0.268765
F	2.507577	0.0	0.0
