14

C	-0.534943	-0.012656	-1.438771
C	0.0	0.0	0.0
Br	0.044962	-1.641749	-2.352195
H	1.089864	0.0	0.0
H	-1.628599	-0.044925	-1.446385
C	-0.0943	1.141032	-2.21494
N	0.242408	2.051388	-2.87863
N	-0.475867	-1.069171	0.820115
H	-1.361186	-1.460606	0.521039
H	0.242043	-1.780759	0.858802
N	-0.568124	1.282752	0.559889
O	0.192113	2.139576	0.997209
O	-1.804185	1.385567	0.539123
F	2.553766	0.0	0.0
