14

C	-0.633724	-0.036985	-1.393984
C	0.0	0.0	0.0
Br	0.239871	-1.441386	-2.444816
H	1.090095	0.0	0.0
H	-1.669478	-0.379301	-1.305812
C	-0.620359	1.178764	-2.19887
N	-0.707124	2.10645	-2.915171
N	-0.4223	-1.162462	0.725629
H	-1.177323	-0.931075	1.359233
H	0.374885	-1.472632	1.268305
N	-0.427576	1.274781	0.680066
O	-1.090726	1.202167	1.721907
O	-0.059283	2.332247	0.172804
F	2.522216	0.0	0.0
