13

C	-0.324608	0.031525	-1.469387
C	0.0	0.0	0.0
Br	-0.312322	-1.906552	-2.179836
H	1.091401	0.0	0.0
H	-0.353686	0.928188	0.453729
H	-0.420483	-0.859278	0.511101
N	-1.771432	0.413599	-1.776321
O	-2.601916	0.233965	-0.890205
O	-2.00637	0.861351	-2.89421
N	0.519412	0.890701	-2.148113
H	1.485974	0.771289	-1.8493
H	0.407449	0.879084	-3.150027
Cl	3.442226	0.0	0.0
