13

C	-0.324825	-0.098482	-1.464292
C	0.0	0.0	0.0
Br	-2.252492	-0.508478	-1.802174
H	1.091656	0.0	0.0
H	-0.351382	-0.900523	0.503294
H	-0.418542	0.891008	0.456246
N	-0.21107	1.316171	-2.133612
O	0.193542	1.333837	-3.291913
O	-0.550249	2.296665	-1.483671
N	0.475858	-1.04835	-2.099531
H	1.431889	-0.979634	-1.748026
H	0.453486	-0.949291	-3.105351
Cl	3.423991	0.0	0.0
