13

C	-0.310734	0.278854	-1.448026
C	0.0	0.0	0.0
Br	-0.422301	-1.531358	-2.452436
H	1.089401	0.0	0.0
H	-0.350677	0.841275	0.601367
H	-0.425542	-0.929886	0.361363
N	-1.724992	0.796981	-1.700358
O	-1.914736	1.413803	-2.744233
O	-2.573949	0.556937	-0.849321
N	0.591415	1.171646	-1.987617
H	0.485853	1.334642	-2.977302
H	1.549358	0.970095	-1.7003
Cl	3.442941	0.0	0.0
