14

C	-0.442691	-0.011282	-1.442557
C	0.0	0.0	0.0
F	-1.859619	0.033855	-1.485789
H	1.094544	0.0	0.0
H	-0.098942	0.907947	-1.928968
H	-0.335608	0.943436	0.458088
C	0.025419	-1.226479	-2.204163
H	-0.34398	-2.126158	-1.714575
H	1.117646	-1.248143	-2.196231
H	-0.331851	-1.193003	-3.236476
N	-0.482193	-1.191409	0.700529
H	-1.447532	-1.052883	0.97787
H	0.072594	-1.322117	1.538584
Br	3.737453	0.0	0.0
