14

C	-0.481653	0.020585	-1.444698
C	0.0	0.0	0.0
F	-0.03486	1.207452	-2.036402
H	1.093452	0.0	0.0
H	-0.015216	-0.801967	-1.998694
H	-0.346183	0.919569	0.485399
C	-1.988125	-0.006054	-1.613147
H	-2.435285	0.818045	-1.050886
H	-2.417932	-0.947011	-1.265079
H	-2.248006	0.115279	-2.667152
N	-0.437637	-1.157758	0.779482
H	-1.421934	-1.350604	0.648073
H	0.094459	-1.972394	0.501812
Br	3.805541	0.0	0.0
