15
Coordinates from ORCA-job run
  C   0.81042548040733      0.00220402314723     -0.19565587622549
  C   -0.51894578668930      0.20203740033057      0.10892381548183
  N   1.27839933990124     -1.28909343525219     -0.36697248285231
  H   2.22670076711776     -1.42177798214769     -0.04946326020158
  H   0.66155913313503     -2.02238858672769     -0.06071761085213
  N   1.77869373746227      0.95464274409221     -0.35369830638486
  H   1.41364746114645      1.89547763759566     -0.39562058137515
  H   2.48662743635627      0.72146604892600     -1.03277113919774
  C   -1.43192296087989     -0.95760568157921      0.37525098683895
  H   -2.44085531620500     -0.58850314020335      0.53516548451157
  H   -1.46334403150105     -1.64811451500676     -0.47395723608840
  H   -1.14015289136867     -1.51928195236060      1.27078218181455
  N   -1.06802619968644      1.52012552283125      0.18551462414324
  O   -0.32481338352042      2.50497162308053      0.01002435320689
  O   -2.26899278567560      1.64684029327403      0.44319504718063
