15
Coordinates from ORCA-job run
  C   0.76417856977523      0.00966600017819     -0.37402059209201
  C   -0.48483994373511      0.18011198760193      0.18122449216230
  N   1.63724763392994      1.00053361245390     -0.73024995703620
  H   2.60773574532219      0.76860143238566     -0.58407987166064
  H   1.35263579029883      1.91932311462928     -0.42027054514511
  N   1.25712918921039     -1.25449844471673     -0.64751646176184
  H   1.73950310203050     -1.32778592798702     -1.53056922650566
  H   0.63569285534732     -2.02360449695955     -0.46663131511418
  C   -1.45855820319789     -0.93758790594147      0.39977034296446
  H   -1.37651107653206     -1.68645488242156     -0.39146328605466
  H   -2.47521297392857     -0.54692269214159      0.37534312805572
  H   -1.33014609115300     -1.43068203033099      1.36871263611046
  N   -0.84739455665673      1.43119599632449      0.77388550376220
  O   -1.82266595844303      1.43586892694261      1.53310548013294
  O   -0.19979408226799      2.46223530998283      0.51175967218223
