15
Coordinates from ORCA-job run
  C   0.79682153680191     -0.02291298648655     -0.29790766051797
  C   -0.44012223106939      0.17369494251164      0.27554192614712
  N   1.14846367747063     -1.24954357088477     -0.83488190485225
  H   2.09202926514194     -1.53664669472247     -0.62213804691385
  H   0.47456615561998     -1.98868075442686     -0.73494305752990
  N   1.80102078653053      0.89984011065172     -0.39883574165205
  H   2.34696099720317      0.82743436718884     -1.24353945166452
  H   1.52142308220532      1.83332144409083     -0.13154980305517
  C   -1.43729387511145     -0.92160546355585      0.50141969429366
  H   -2.10108442840935     -1.07642611777343     -0.35522210063269
  H   -0.93588617953234     -1.86389718507335      0.73451570252410
  H   -2.07036593535498     -0.67010474202621      1.35160709450841
  N   -0.92384443737381      1.49913005157024      0.51347727498569
  O   -0.13558999344824      2.46331472495158      0.52526256052051
  O   -2.13609842067391      1.63108187398463      0.71519351383892
