15
Coordinates from ORCA-job run
  C   0.80649026858853     -0.10101504973308     -0.25115040562352
  C   -0.42852462842132      0.18060249256323      0.28996914970421
  N   0.92236993193568     -0.66132798262008     -1.51170123583274
  H   0.06503550348698     -0.79907451030511     -2.01803592133361
  H   1.65988006875065     -0.26336958805780     -2.07347779220882
  N   2.02155112592215      0.13304968962603      0.33136137421660
  H   2.72074893454650     -0.56322461536369      0.12346066220783
  H   1.95764231639242      0.41984938162789      1.29816379140116
  C   -1.71668308804569      0.05068749150956     -0.46425605160860
  H   -1.57959152704384      0.30608856920436     -1.51768299389900
  H   -2.45180836823336      0.74202186625577     -0.05394759534375
  H   -2.15034018198573     -0.95230485118633     -0.39705128112382
  N   -0.56276254276394      0.43083728332738      1.69239296179553
  O   0.43546193732714      0.72567565334687      2.37630356484320
  O   -1.69746975045616      0.35050416980500      2.17565177280535
