15
Coordinates from ORCA-job run
  C   0.81375655723857     -0.02574058587540     -0.19058619807497
  C   -0.47504603592890      0.17981674394152      0.25643873023347
  N   1.24904611713501     -1.31993337928721     -0.40007438436786
  H   0.59116401647654     -1.96121275103969     -0.80820881245507
  H   2.19622668620786     -1.42698220136904     -0.72267139848236
  N   1.77502888192823      0.93402584294413     -0.33728035736060
  H   2.41070361824653      0.80696730969683     -1.10907106377976
  H   1.42167737282857      1.87324889092416     -0.20908385176746
  C   -1.41233907978436     -0.94155311788786      0.57632628509179
  H   -2.08202806625238     -0.64376812158974      1.38308977069437
  H   -0.85015928623707     -1.81740568394260      0.90580105739851
  H   -2.04653598620490     -1.22122052827722     -0.27210319849341
  N   -1.03378142782529      1.48976201169575      0.29482465903875
  O   -2.26025907456260      1.57791481546564      0.42560353817230
  O   -0.29845429326581      2.49408075460073      0.20699522415229
