15
Coordinates from ORCA-job run
  C   0.78253361478315     -0.00922149807119     -0.29432885261256
  C   -0.43688867006345      0.16161623388481      0.32788232383290
  N   1.71661973060197      0.96442833264835     -0.50873431299658
  H   2.24945402619360      0.88573325214496     -1.36054741075611
  H   1.38434860039593      1.89240224974448     -0.28120440876970
  N   1.18630076870723     -1.28623992266801     -0.63179044794395
  H   0.48080992804331     -1.90888942461237     -0.98559267986059
  H   2.08439395975579     -1.36961870206724     -1.07786956811590
  C   -1.32706346277176     -0.98254759384800      0.69761118184457
  H   -2.06014268437682     -1.22036732854168     -0.08111558406552
  H   -1.89323738033265     -0.73418607337078      1.59519242977916
  H   -0.72739737646240     -1.87059383754456      0.90638056095889
  N   -0.98585307585829      1.46374806548482      0.50959468880499
  O   -2.18651806567286      1.53662064086257      0.79677544451859
  O   -0.26635991294275      2.47611560595384      0.38874663538181
