15
Coordinates from ORCA-job run
  C   0.82301325446779     -0.02713783108699     -0.14626636785005
  C   -0.48613136719423      0.17394074057554      0.23904707037550
  N   1.25775437013951     -1.31662088734222     -0.38574526332394
  H   0.61670273790893     -1.93019121815644     -0.85851842177822
  H   2.21914020010307     -1.41894708121163     -0.66522181735183
  N   1.79920689814593      0.92741677220048     -0.19804865383664
  H   1.44728421243457      1.86427251855318     -0.04981080025407
  H   2.47669877474696      0.82602775417536     -0.93736233874903
  C   -1.45015903395918     -0.94922246390356      0.45734187821081
  H   -2.03819870500891     -1.18491273606626     -0.43649252367566
  H   -2.16148358034377     -0.67815208501161      1.23744023839153
  H   -0.91521740250291     -1.84467505471988      0.77940075823925
  N   -1.03449496967338      1.48738043072884      0.30078151101794
  O   -0.28641505705411      2.48607721879113      0.29768931870024
  O   -2.26570033221026      1.58374392247406      0.36476541188418
