15
Coordinates from ORCA-job run
  C   0.78963543991858      0.04226137310986     -0.31321219700052
  C   -0.53085662481559      0.11699227776124      0.07200990064280
  N   1.33637107075521      0.57579761947658     -1.44756849935296
  H   0.64994321944877      0.93566780936217     -2.09595691638552
  H   2.07581679920449      0.02141766625366     -1.85098037269704
  N   1.72767203978191     -0.60215003479532      0.47469598288319
  H   1.39957441435473     -0.96148202172165      1.35424747051856
  H   2.61054553615472     -0.11870229432312      0.54326867636188
  C   -1.03658049265681     -0.34799717910925      1.40358883372633
  H   -0.29337673316026     -0.17487177064467      2.18551890822085
  H   -1.31385490048881     -1.40709578224584      1.40747682244992
  H   -1.92986026788317      0.21462924920720      1.67222910335238
  N   -1.54159351227550      0.46952021957327     -0.87747085859984
  O   -2.71267795275544      0.20837520079728     -0.58093900796473
  O   -1.23175803558283      1.02763766729858     -1.94690784615531
