15
Coordinates from ORCA-job run
  C   0.76159741949343      0.00170741335384     -0.37935808763674
  C   -0.49246055634149      0.17559411438369      0.16311942592559
  N   1.57560323467998      0.98245120537566     -0.87572503375584
  H   2.55831268784682      0.82525877260282     -0.71281972258568
  H   1.24145925293821      1.91752467736519     -0.68823283641925
  N   1.32416744889380     -1.25849973022028     -0.48743710209620
  H   0.74912087068990     -2.02948545545888     -0.19530968243459
  H   1.80289935059185     -1.42328058894108     -1.36010254998799
  C   -1.40151329008155     -0.95471205697765      0.53878470435026
  H   -1.24477520442249     -1.30393241816081      1.56444387727284
  H   -2.43846782205553     -0.62788196346100      0.47021626318266
  H   -1.27837325126781     -1.79835686839843     -0.14439136646982
  N   -0.92443744764979      1.47330431158437      0.58408241704645
  O   -1.89762591908556      1.52669966789798      1.34409482318517
  O   -0.33650677422979      2.49360891905459      0.17863487042314
