15
Coordinates from ORCA-job run
  C   0.77023351322020      0.02257553532203     -0.31789791436781
  C   -0.51067592022066      0.17588028479765      0.16634810668539
  N   1.31480879878466     -1.24496585361004     -0.44220038721899
  H   0.83397006617015     -1.97330086423371      0.05760599680603
  H   2.31126933373605     -1.26738494437052     -0.28605807583605
  N   1.63086195970547      1.01275724583142     -0.70632212705302
  H   2.24736662347110      0.75149217407751     -1.46051962314783
  H   1.18582861504269      1.91459392941722     -0.79706239754416
  C   -1.31306616705609     -0.99586990219495      0.64709732491784
  H   -1.30278640008779     -1.81314086720423     -0.07962924084383
  H   -2.34758503991762     -0.69085085369244      0.78334917092406
  H   -0.95800306294809     -1.37886489914631      1.61067887415800
  N   -1.12321215828128      1.46676666349464      0.23367716942569
  O   -0.48238656161723      2.47157619082924     -0.12638088383939
  O   -2.25662360000155      1.54873616068249      0.71731400693408
