15
Coordinates from ORCA-job run
  C   0.79807757169345      0.00639220845093     -0.29455633699181
  C   -0.45402663136695      0.16881989129357      0.25611534125927
  N   1.72981839632891      0.98677802878239     -0.49790002543478
  H   1.37674384093881      1.91935091962838     -0.33435388447680
  H   2.28277664269739      0.86540432384636     -1.33240067908708
  N   1.24649994619594     -1.24115409987706     -0.69281334932530
  H   2.20806816783555     -1.43009800616351     -0.45310872089032
  H   0.62987959356711     -2.01440901160310     -0.51342491897384
  C   -1.36484861890787     -0.96916813789186      0.60317451457927
  H   -2.00516859606944     -1.27210773890197     -0.23153676832755
  H   -0.79328948009041     -1.83629951109812      0.94247170681146
  H   -2.02481367656121     -0.67400297105378      1.41805693922557
  N   -1.04008269500037      1.47112418061255      0.34670921490323
  O   -0.32840807627952      2.48858415184818      0.25029398450717
  O   -2.26022638498139      1.53078577212705      0.53427298222151
