15
Coordinates from ORCA-job run
  C   0.76112814861714      0.04183001949566     -0.34423885217305
  C   -0.55905211543603     -0.10283337066190      0.02852811144361
  N   1.20979972794703      0.37663008962409     -1.59035735584859
  H   0.46721536590992      0.65000279073418     -2.22070332417390
  H   2.04293760560068      0.94286006793733     -1.62300146330941
  N   1.75062786221802     -0.29754517726821      0.55865205139422
  H   1.59097053468287     -0.04806517090424      1.51953014669640
  H   2.69975429240373     -0.17549087455111      0.24689135099559
  C   -0.97295790175089     -0.65553480060061      1.35579901262494
  H   -1.91710302871820     -1.19056946788020      1.25416703557648
  H   -1.13212740109302      0.12328584102140      2.10969537526580
  H   -0.22053825923308     -1.35741545952533      1.72044068975306
  N   -1.60698711471134      0.42084257105159     -0.78244414010035
  O   -2.72576785423579      0.52151976081554     -0.26532556882600
  O   -1.38689986220103      0.75048318071182     -1.96563306931880
