15
Coordinates from ORCA-job run
  C   0.78672662179572      0.03709288206061     -0.27300893195328
  C   -0.47847318536585      0.15372561425598      0.27144461437543
  N   1.73634726753981      0.99771181275552     -0.32017627524047
  H   2.49391851512300      0.90497926728683     -0.97175113892595
  H   1.51200970518457      1.89340271763036      0.08013183686200
  N   1.16584643447482     -1.15244189747758     -0.87925699098263
  H   0.53234655143817     -1.92114642923895     -0.73691740041286
  H   2.12383380118578     -1.41324776012577     -0.69902127830389
  C   -1.44792359985992     -0.99064939779609      0.25724769569644
  H   -1.70676296822504     -1.30593243589578     -0.75932483147706
  H   -1.05887250843444     -1.85901197045855      0.80042650874394
  H   -2.36756191516724     -0.68294223762585      0.74849852375418
  N   -0.96378929914126      1.42490187192053      0.69589269265710
  O   -0.16162771142439      2.37171623761025      0.82833677929797
  O   -2.16601770912372      1.54284172509847      0.95847819590908
