15
Coordinates from ORCA-job run
  C   0.79313215601398     -0.04986181648825     -0.25868438342199
  C   -0.43244716992003      0.13864886741509      0.34175994804030
  N   0.85340892479263     -0.41707636458031     -1.59364778393946
  H   -0.02347233982411     -0.40777428370469     -2.08637872454265
  H   1.59419829935901      0.03754646150394     -2.10638636858725
  N   2.02672000030015      0.10066094459137      0.30894154367980
  H   2.72961795119109     -0.52000048179752     -0.06058696260231
  H   2.00063252378256      0.21401594725787      1.31181791392264
  C   -1.70843824266770      0.04018939741131     -0.43978576575168
  H   -1.93412518558135     -0.98755881609431     -0.74719362830122
  H   -1.67107570124577      0.66508952321715     -1.33811860629604
  H   -2.53385016557507      0.38492678900099      0.17679444827050
  N   -0.53535097756249      0.23572440528873      1.76661976950471
  O   0.49430584796611      0.41943179127314      2.44229337003483
  O   -1.65325592102903      0.14503763570549      2.28355522998982
