15
Coordinates from ORCA-job run
  C   0.78185694155807     -0.02082893136507     -0.29601029734096
  C   -0.53809559911286      0.17549730329458      0.05238479377580
  N   1.65358177929385      0.94485676913369     -0.71357228201687
  H   2.61372309262550      0.82492687385151     -0.43159410867898
  H   1.28257695853861      1.88167670006080     -0.62359878419872
  N   1.26851866706275     -1.31243855461523     -0.36416307393451
  H   0.95522821048786     -1.95139452620722      0.34616806268688
  H   2.23726670337594     -1.41132344709359     -0.61835647378781
  C   -1.48663877208842     -0.95186809737388      0.31244178798042
  H   -1.53527594211045     -1.23239818129222      1.37035473800518
  H   -1.19999631430718     -1.82578836063954     -0.27574621157697
  H   -2.49490108912310     -0.65981382379551      0.01909703217321
  N   -1.03274301607248      1.48313485627294      0.32901782761967
  O   -2.12313882624800      1.56480273563870      0.90634569056923
  O   -0.38096279388009      2.49095868413003     -0.01176870127559
