15
Coordinates from ORCA-job run
  C   0.81247347943578      0.01519121928572     -0.25215906686256
  C   -0.45877266249752      0.14485124233689      0.26228923833668
  N   1.22481336282010     -1.16439782576542     -0.84771361103050
  H   2.16282443041724     -1.44388338221992     -0.60294749355902
  H   0.56595216153086     -1.92342079754670     -0.83559696731008
  N   1.79659492536961      0.96489013817409     -0.23488303828399
  H   1.47721473266170      1.87159167534745      0.07663750344151
  H   2.38790440554676      0.96256084979804     -1.05176850898929
  C   -1.43764924030415     -0.98557127914162      0.35748275514352
  H   -2.12570253352021     -0.80502407820786      1.18256718915040
  H   -0.92537060636576     -1.92928722282623      0.55896862405670
  H   -2.04606956413455     -1.09883433356888     -0.54558718432000
  N   -0.98982175969437      1.44018393127357      0.55824375065425
  O   -2.21433712792959      1.53110088117637      0.69904307286321
  O   -0.22905400333592      2.41904898188449      0.67742373670918
