15
Coordinates from ORCA-job run
  C   0.81575142793898      0.00489115798915     -0.24191371788511
  C   -0.51006279933868      0.17970067863752      0.08853831719828
  N   1.72324090574491      0.99252888051847     -0.50932152148163
  H   1.38015265016281      1.92126770783377     -0.30693196379126
  H   2.65977892024891      0.79056574427329     -0.19466421250234
  N   1.36252320406232     -1.26187348030866     -0.35363590520772
  H   0.72953588445858     -2.03273095657971     -0.22922869468136
  H   1.98309079205606     -1.37530314538777     -1.14098095975005
  C   -1.49264784185257     -0.94496892553002      0.21065961271109
  H   -1.27197018943891     -1.73580280210224     -0.51012204761131
  H   -2.49604439020730     -0.57881883855772     -0.00344286778473
  H   -1.51953913135041     -1.37925908704614      1.21527266514533
  N   -0.98118258890330      1.45469900368789      0.53530918728489
  O   -2.06900502551461      1.48249909994460      1.12133458417961
  O   -0.31162181806677      2.48260496262756      0.32012752417631
