15
Coordinates from ORCA-job run
  C   0.78633390945643      0.02781026508981     -0.32405198271370
  C   -0.49496851544381      0.17132211218060      0.16123189454036
  N   1.67705197212140      1.03489556888183     -0.57559863919482
  H   2.63723078758865      0.79516018715071     -0.38178129186568
  H   1.37079345047352      1.93687697578353     -0.23801467749577
  N   1.29700442811456     -1.22083427171882     -0.63155536967193
  H   1.83201119412656     -1.25210037485042     -1.48614958137848
  H   0.67146521183163     -1.99957326755963     -0.52024696935449
  C   -1.47879705550610     -0.95469722468611      0.25818941558085
  H   -1.34706994868311     -1.65932124155692     -0.56630649199276
  H   -1.41006011373383     -1.50026124379088      1.20487693957904
  H   -2.49240834963557     -0.56093862458717      0.19258158157092
  N   -0.89643985547951      1.39062466366205      0.79280397562542
  O   -1.91606099413454      1.35755528700777      1.49059033255344
  O   -0.23708612109629      2.43348118899364      0.62243086421760
