15
Coordinates from ORCA-job run
  C   0.81692142880667      0.00019927334630     -0.23671981942408
  C   -0.46179022677002      0.15554410766540      0.25142534590463
  N   1.81440462839253      0.93531863635950     -0.21403723801276
  H   1.50358205610919      1.85100375873402      0.07924533999378
  H   2.42243257123168      0.91241098550703     -1.01816819556598
  N   1.22258698675174     -1.19378714537926     -0.80776043130869
  H   0.55206828568581     -1.94262652105126     -0.79717856036523
  H   2.15147091959246     -1.48391188028105     -0.54147737706535
  C   -1.45858361494519     -0.95938074479560      0.34292282400192
  H   -2.04786536489108     -1.07994766020855     -0.57184388961061
  H   -2.16254015605073     -0.75509821363644      1.14877953552932
  H   -0.96456725063774     -1.90656797851202      0.57215378381822
  N   -0.97888597552234      1.46251053581869      0.51925676048302
  O   -0.20582009403535      2.43152830175340      0.63985842048640
  O   -2.20441419371761      1.57380454467984      0.63454350113541
