15
Coordinates from ORCA-job run
  C   0.79406428371081     -0.23977053751950     -0.18892993676389
  C   -0.44452905763773      0.11235363455893      0.29993460366568
  N   1.94553113259391     -0.37421020428156      0.53663922704652
  H   2.77940458449900     -0.09053676036495      0.04558022022115
  H   1.86308883070248     -0.05002398243692      1.49014784826731
  N   0.97861012757294     -0.51925519387237     -1.53247533647291
  H   0.15331519468189     -0.50108468954654     -2.10626558630914
  H   1.56987246016939     -1.31773026051669     -1.70855024617343
  C   -1.70026994383774      0.08525618576968     -0.51713407228039
  H   -2.55777383543820     -0.07161193445880      0.13613644928550
  H   -1.87817863809376      1.02119112468040     -1.05649976595638
  H   -1.68049981554980     -0.73818681336705     -1.23500236355347
  N   -0.56526365958715      0.72506924718421      1.58761898536984
  O   0.36614694680859      0.64622029256515      2.41061154951164
  O   -1.62351861059464      1.31231989160600      1.83818842414197
