15
Coordinates from ORCA-job run
  C   0.81140821615441      0.00705763781164     -0.25367430089696
  C   -0.50738130593050      0.17707192817847      0.10223568229692
  N   1.71494341783515      0.99939019237090     -0.52147366962909
  H   2.65491935578560      0.79108913610331     -0.22109412010701
  H   1.37641055270973      1.92435351185640     -0.29498172951981
  N   1.35309852398998     -1.25815344862431     -0.39827782381995
  H   1.97186337507570     -1.35941007287621     -1.18874767807331
  H   0.72628222178529     -2.03394281157664     -0.27219077489513
  C   -1.49053412961049     -0.94795509707353      0.22334445762157
  H   -1.28659608345954     -1.72763986840504     -0.51441984892259
  H   -2.49651013414802     -0.57469252692953      0.03645209567836
  H   -1.49710652283942     -1.39857748776050      1.22112864052442
  N   -0.97214171029546      1.44872873015831      0.56711756084205
  O   -2.05382228228256      1.47444877237308      1.16406986063646
  O   -0.30383349476986      2.47723140439365      0.35051164826407
