16

C	0.0	0.0	0.0
C	-0.330876	-0.275006	-1.45431
Br	2.200663	0.0	0.0
H	0.132406	-1.226234	-1.733866
H	0.15483	0.491713	-2.064417
N	-0.404287	1.258094	0.421705
H	-0.037691	1.997234	-0.157498
H	-0.239297	1.446737	1.399372
N	-0.41151	-1.01124	0.853297
H	-0.076016	-1.919036	0.571383
H	-0.226225	-0.840911	1.830347
C	-1.843148	-0.2973	-1.683288
H	-2.347222	-1.03645	-1.064154
H	-2.049402	-0.521007	-2.733671
H	-2.312815	0.651532	-1.430588
Cl	-5.156724	0.0	0.0
