16

C	0.0	0.0	0.0
C	-0.381468	-0.083349	-1.474415
Br	2.037758	0.0	0.0
H	0.16213	0.709476	-1.992902
H	-0.004294	-1.036775	-1.861412
N	-0.39518	1.25679	0.572427
H	-1.414319	1.252748	0.602455
H	-0.056597	1.325106	1.525783
N	-0.486257	-1.121708	0.70886
H	-0.256314	-1.09658	1.692977
H	-0.198079	-2.00076	0.301298
C	-1.883005	0.041893	-1.712533
H	-2.481064	-0.628513	-1.097887
H	-2.246712	1.047776	-1.502018
H	-2.103567	-0.165029	-2.763221
Cl	-4.957112	0.0	0.0
