16

C	0.0	0.0	0.0
C	-0.454913	0.185235	-1.437655
Br	2.041982	0.0	0.0
H	-1.537548	0.017523	-1.389854
H	0.003532	-0.605552	-2.035219
N	-0.423481	1.078688	0.812364
H	-0.272796	0.896038	1.795139
H	0.00198	1.958041	0.554934
N	-0.433985	-1.278776	0.471245
H	-1.458777	-1.23566	0.428576
H	-0.163518	-1.399428	1.442073
C	-0.191841	1.561591	-2.030895
H	-0.796931	2.316781	-1.523878
H	-0.484129	1.572905	-3.084135
H	0.864635	1.838324	-1.970128
Cl	-3.76697	0.0	0.0
