16

C	0.0	0.0	0.0
C	-0.410733	-0.129448	-1.465251
Br	2.058527	0.0	0.0
H	-1.495753	0.02934	-1.441014
H	0.054554	0.682364	-2.035144
N	-0.457946	1.206744	0.526615
H	-0.226029	1.318667	1.501332
H	-0.251176	2.017354	-0.033387
N	-0.422775	-1.037332	0.889777
H	-1.446547	-0.980923	0.890294
H	-0.131794	-1.941118	0.540596
C	-0.089883	-1.471346	-2.107446
H	-0.675333	-2.270713	-1.647529
H	-0.357305	-1.450374	-3.167158
H	0.972245	-1.715992	-2.027978
Cl	-3.789497	0.0	0.0
