16

C	0.0	0.0	0.0
C	-0.413337	0.134657	-1.461743
Br	2.064024	0.0	0.0
H	0.076119	-0.665349	-2.026104
H	-1.493655	-0.052456	-1.435823
N	-0.46475	1.059771	0.772099
H	-0.182635	1.973267	0.458086
H	-0.305004	0.913558	1.757186
N	-0.417707	-1.210709	0.640308
H	-0.157658	-2.004344	0.066996
H	-1.441655	-1.149314	0.671075
C	-0.14885	1.490374	-2.10185
H	-0.367155	1.450504	-3.172266
H	0.892161	1.800212	-1.980658
H	-0.808731	2.246811	-1.671075
Cl	-3.757061	0.0	0.0
