15

C	0.0	0.0	0.0
C	-0.535788	0.106167	-1.429797
Cl	1.799715	0.0	0.0
H	-1.636116	0.093001	-1.254478
H	-0.222687	1.06091	-1.859101
N	-0.525831	1.154135	0.689039
H	-1.550782	0.978704	0.594012
H	-0.291599	1.055889	1.673175
C	-0.431115	-1.323881	0.626953
H	-0.033805	-2.184673	0.083493
H	-0.074169	-1.368737	1.660288
H	-1.52515	-1.298301	0.597252
C	-0.159221	-0.992846	-2.303827
N	0.094332	-1.89087	-3.019144
F	-2.899871	0.0	0.0
