15

C	0.0	0.0	0.0
C	-0.523164	-0.207612	-1.421481
Cl	1.797789	0.0	0.0
H	-0.202651	-1.179374	-1.806585
H	-1.623647	-0.198751	-1.261391
N	-0.525198	1.258509	0.461617
H	-1.550498	1.077577	0.396279
H	-0.289976	1.359127	1.44512
C	-0.43957	-1.189069	0.853053
H	-0.04356	-2.135177	0.471709
H	-1.533636	-1.161978	0.813703
H	-0.085183	-1.053075	1.879557
C	-0.116789	0.833863	-2.354466
N	0.203634	1.635276	-3.150845
F	-2.903383	0.0	0.0
