11
Coordinates from ORCA-job run
  C   1.03945043736761      0.64233231384216     -0.24021635087289
  C   -0.21453725178455     -0.22809709234092     -0.29348336354878
  Cl  2.48978018965472     -0.31034085227384     -0.60829338800899
  H   -0.22230025876160     -0.75396102928777     -1.25278537418128
  H   1.15741083393320      1.06900425144429      0.75734644037548
  H   0.97112918763810      1.44798448385296     -0.97076645211808
  C   -1.39251292411637      0.66777766873638     -0.25876906491059
  N   -2.32914706023814      1.37244664517980     -0.17911295378831
  N   -0.20320889776665     -1.22330836480372      0.76272249139010
  H   -0.94224486950001     -1.90007984694266      0.62010725831846
  H   -0.35381938642631     -0.78375817740668      1.66325075734488
