11
Coordinates from ORCA-job run
  C   1.09024482950263      0.44880786577568     -0.40893450341553
  C   -0.29833763895441     -0.16248766730315     -0.24098817680593
  Cl  1.59225853054396      1.39760594871350      0.99975005703155
  H   -0.53083305946757     -0.63687641793073     -1.21022074545933
  H   1.10085791729279      1.10263803149920     -1.28126602288019
  H   1.81737302876418     -0.35280498133239     -0.55383345563313
  C   -1.30760680832897      0.88507908417604     -0.03987982465880
  N   -2.13870040107778      1.69872786872941      0.11399134249498
  N   -0.32979176237873     -1.08077582746438      0.88790568629758
  H   0.27291369563380     -1.87309605209905      0.69878293842141
  H   -1.26937833152990     -1.42781785276414      1.03469270460740
