11
Coordinates from ORCA-job run
  C   1.10856245516461      0.44555614603447     -0.35514705688280
  C   -0.29198759107497     -0.15259344265317     -0.25357226505176
  Cl  1.57131384176938      1.34742395864785      1.09730836997070
  H   -0.49617590852631     -0.59660726286989     -1.24334848942336
  H   1.83102883892075     -0.36077295559023     -0.49739650259193
  H   1.15803713229105      1.12396123652113     -1.20709058805305
  C   -1.29509103710762      0.90253267908341     -0.06017060705414
  N   -2.11893869733659      1.72835517956008      0.06498953976880
  N   -0.37418987294503     -1.10142382033454      0.84699312507147
  H   0.22894174552379     -1.89373310240240      0.65933080719685
  H   -1.32150090667906     -1.44369861599671      0.94810366704923
