11
Coordinates from ORCA-job run
  C   1.03061424659107      0.61431979930814     -0.20575533646604
  C   -0.29456196203942     -0.13967498626427     -0.23911172383906
  Cl  2.38366579817479     -0.51895516430007     -0.46139455696473
  H   -0.36606286004047     -0.65836584688957     -1.20755755444083
  H   1.07385226560696      1.36112136116294     -0.99719275137959
  H   1.15742856178074      1.07667159112260      0.77223078852710
  C   -1.38115063456601      0.84839917967078     -0.19241566247561
  N   -2.24178725968433      1.64606885424124     -0.17261605622004
  N   -0.39665753463506     -1.01767400227657      0.92007067308028
  H   -1.29305752961292     -1.48908891119042      0.92141197402392
  H   0.32671690842463     -1.72482187458478      0.86233020615461
