11
Coordinates from ORCA-job run
  C   1.03227510744067      0.68110259794338     -0.14883718278283
  C   -0.18677716134340     -0.22474569664809     -0.31224326717257
  Cl  2.53381798164556     -0.21648629494272     -0.44179369869010
  H   -0.11270237370856     -0.72096887331028     -1.28448749711424
  H   0.98828881885005      1.50510589501151     -0.86056250218876
  H   1.06788239090146      1.08183596540720      0.86559528971128
  C   -1.39279720775777      0.63349016761372     -0.33428570593715
  N   -2.35516494457015      1.30696147192239     -0.30980842808637
  N   -0.21518801700919     -1.25083666755868      0.71331510667499
  H   -0.44510822869127     -0.84564436216545      1.61304874796262
  H   -0.91552636575739     -1.94881420327297      0.49805913762313
