11
Coordinates from ORCA-job run
  C   1.12948623379918      0.45638888400410     -0.16890440421845
  C   -0.27824772439636     -0.13089403816727     -0.22374414366185
  Cl  1.35552566676020      1.68928561029943     -1.42818776482587
  H   -0.48580185155748     -0.43528805639384     -1.25974034465177
  H   1.85766740463819     -0.33705420494825     -0.34028497023854
  H   1.30221873759673      0.90876362745165      0.80588973687486
  C   -1.27246267455017      0.88879450847808      0.12902402800793
  N   -2.08221628458072      1.68576916178234      0.42180559927716
  N   -0.34141061022888     -1.21981559771267      0.75093658223396
  H   0.11799575983056     -2.03819739205825      0.36919944501157
  H   -1.30375465731126     -1.46775250273530      0.94500623619100
