11
Coordinates from ORCA-job run
  C   1.07248481742420      0.40139155087486     -0.06172038691093
  C   -0.32903065294393     -0.15467523603350     -0.33014662256186
  Cl  1.47902735082457      1.71545597802065     -1.18875549989218
  H   -0.38642976680047     -0.43814980304450     -1.38607006796703
  H   1.80394798064676     -0.39599582810925     -0.19937764314537
  H   1.13942346286373      0.79076694695364      0.95518353440682
  C   -1.33959481954369      0.88763365945830     -0.10128418689832
  N   -2.13455565458468      1.72033593422803      0.12469584164201
  N   -0.66549737367051     -1.32205485636873      0.47095841842366
  H   -0.59906501607919     -1.11373402311068      1.45989591585388
  H   -0.04071032813678     -2.08897432286882      0.25562069704931
