11
Coordinates from ORCA-job run
  C   0.97387361298883      0.59945258059801     -0.15501667673435
  C   -0.33119553165757     -0.18920697951961     -0.33246389269961
  Cl  2.37153506348789     -0.48982054228972     -0.33187704014841
  H   -0.31249965144223     -0.64790158260190     -1.32687221344038
  H   1.01658229649590      1.04172643428907      0.84121290104433
  H   1.06370890762712      1.38088804929449     -0.90993671093787
  C   -1.43790766238262      0.77915047803782     -0.30707130499279
  N   -2.28478588320318      1.58935347421845     -0.24605200435756
  N   -0.59377016407042     -1.24246415208082      0.63058814276723
  H   -0.59110749201364     -0.87057145038712      1.57319849250486
  H   0.12556650416992     -1.95160630955865      0.56429030699455
