11
Coordinates from ORCA-job run
  C   1.05892954599139      0.42654146803212     -0.30182732912779
  C   -0.34408538005015     -0.18996708299304     -0.35457447805090
  Cl  1.39541585299414      1.12950706230827      1.29704763693806
  H   -0.45921116632195     -0.60584077528034     -1.36372074269231
  H   1.16554686790984      1.21770510279300     -1.04502637320659
  H   1.80124200913825     -0.35218680367357     -0.48412058353130
  C   -1.35875478672356      0.86510509336386     -0.21248663709981
  N   -2.15196971911512      1.72148533425117     -0.09551170909841
  N   -0.62440674667099     -1.25407998967086      0.59201624549872
  H   -0.00016648658084     -2.03490818054528      0.42938466648091
  H   -0.48253999057100     -0.92336122858534      1.53881930388943
