14
Coordinates from ORCA-job run
  C   -0.50695619283456      0.11358648618377     -0.27035967109626
  C   0.85739144432601      0.31672134795874     -0.92296269496788
  Cl  -1.75580698324435      0.46392287912094     -1.48858610164745
  H   0.93393997025296      1.33068698492201     -1.31561830859986
  H   0.94263980451277     -0.38388057521890     -1.75772456013529
  N   -0.68678797152275      1.17250827561327      0.82382105020051
  O   -0.08751802612026      2.23140578020601      0.67313089403697
  O   -1.44483834364284      0.89165145109009      1.74344853197204
  C   -0.70998693240398     -1.26270088187770      0.31357055062286
  H   -0.56615941458081     -2.00693621175415     -0.47156753285586
  H   0.01236664943458     -1.43880573909434      1.11329039308820
  H   -1.71464747127120     -1.35868241048992      0.71869898446759
  C   1.93713806876309      0.07359173949706      0.03025633953136
  N   2.78822539833141     -0.14306912615685      0.80860212538302
