14
Coordinates from ORCA-job run
  C   -0.38877619280138     -0.00877214952185     -0.20840174716426
  C   1.11449252551964     -0.13231158193188     -0.45406414336240
  Cl  -1.19696207251487      0.50527974913227     -1.68674113034351
  H   1.27074104573422     -0.86080926877120     -1.25361693156509
  H   1.59365114923463     -0.50210589542524      0.45428125095656
  N   -0.59100937608243      1.04727913164563      0.88887806696946
  O   -1.42785178363776      1.92226051400459      0.74043492589616
  O   0.11302390115162      0.86523194280878      1.87870223105266
  C   -0.99458724557300     -1.29969197890245      0.30800219726090
  H   -2.06164920337557     -1.16300270859910      0.49083400129093
  H   -0.50261972652181     -1.59204784291197      1.23711967778604
  H   -0.86756984468348     -2.08581855134866     -0.43766189572575
  C   1.72374711746691      1.14006556057820     -0.83138068998300
  N   2.21536970608329      2.16344307924288     -1.12738581306872
