14
Coordinates from ORCA-job run
  C   -0.36761455265249      0.04495897427305     -0.24328283877951
  C   1.12877113151592     -0.24624086963515     -0.35444207540556
  Cl  -0.96500445083365      0.70546275557612     -1.76238465904498
  H   1.27884078866811     -0.95992965698206     -1.16844354797197
  H   1.47050951867947     -0.70158310012103      0.57701408303234
  N   -0.54803712287942      1.07695161524509      0.88061086575178
  O   -1.21683558391090      2.07801270391495      0.68503519507623
  O   -0.00265604087521      0.75257297687452      1.93225640778906
  C   -1.16277112877963     -1.18447845812913      0.15220992549884
  H   -0.79896100255667     -1.56768533061770      1.10661589731403
  H   -2.22028339754025     -0.93098772795146      0.24295851815499
  H   -1.05440927754108     -1.95086906948310     -0.61656278600089
  C   1.91370322793695      0.95729895042974     -0.61421385563355
  N   2.54674789076885      1.92451623660616     -0.81537112978081
