17

C	0.0	0.0	0.0
C	-0.388641	-0.321201	-1.522031
Br	2.028974	0.0	0.0
H	0.539116	-0.206124	-2.086364
N	-0.519142	1.262985	0.407762
H	-0.274583	1.416518	1.38207
H	-1.551115	1.049301	0.355432
C	-0.305722	-1.086103	0.943043
N	-0.483252	-1.951389	1.720461
N	-1.359848	0.578193	-2.104794
H	-1.023281	1.526398	-1.970281
H	-2.195458	0.472423	-1.509805
C	-0.889142	-1.750347	-1.653569
H	-1.073206	-1.952734	-2.710123
H	-0.167397	-2.476527	-1.268868
H	-1.823643	-1.816241	-1.099833
F	-2.786881	0.0	0.0
