17

C	0.0	0.0	0.0
C	-0.483343	-0.05842	-1.459809
Br	1.970212	0.0	0.0
H	-1.567665	-0.16701	-1.293985
N	-0.584087	1.120674	0.657334
H	-0.390595	1.051752	1.652202
H	-1.62195	0.877905	0.504399
C	-0.308188	-1.290802	0.661178
N	-0.51036	-2.265781	1.286449
N	0.036262	-1.257024	-2.108428
H	-0.623446	-1.565017	-2.810583
H	0.917138	-1.054371	-2.567538
C	-0.201716	1.239132	-2.205201
H	-0.682232	1.196924	-3.188507
H	-0.594535	2.093766	-1.654062
H	0.874521	1.383739	-2.353605
F	-2.817555	0.0	0.0
