17

C	0.0	0.0	0.0
C	-0.30678	-0.292285	-1.551216
Br	2.025203	0.0	0.0
H	0.56506	0.118709	-2.067859
N	-0.566378	1.241722	0.391745
H	-0.391478	1.383823	1.383107
H	-1.595379	1.006253	0.296445
C	-0.323637	-1.126357	0.895993
N	-0.475738	-2.05258	1.605316
N	-1.467142	0.349278	-2.120497
H	-1.323114	1.351288	-2.057734
H	-2.256061	0.141535	-1.478618
C	-0.376002	-1.790708	-1.797738
H	-1.262149	-2.198615	-1.304362
H	0.510197	-2.309383	-1.424041
H	-0.467081	-1.956099	-2.874404
F	-2.852202	0.0	0.0
