17

C	0.0	0.0	0.0
C	-0.463631	0.091378	-1.47046
Br	1.981196	0.0	0.0
H	-1.546381	-0.055206	-1.318534
N	-0.556679	0.962882	0.893877
H	-1.592737	0.744815	0.738739
H	-0.355898	1.888394	0.528529
C	-0.334582	-1.345732	0.505236
N	-0.536364	-2.429754	0.906903
N	0.086197	-1.012882	-2.248539
H	0.986482	-0.758597	-2.637663
H	-0.543542	-1.228024	-3.010676
C	-0.219735	1.465758	-2.083017
H	-0.761846	2.249652	-1.54877
H	-0.591066	1.461295	-3.112647
H	0.847637	1.716352	-2.10302
F	-2.785381	0.0	0.0
