17

C	0.0	0.0	0.0
C	-0.408268	-0.058267	-1.524982
Br	2.052052	0.0	0.0
H	0.512311	0.087992	-2.094137
N	-0.511833	1.125006	0.695218
H	-0.315782	0.998525	1.68469
H	-1.541985	0.978433	0.55553
C	-0.26052	-1.271664	0.702767
N	-0.42037	-2.277201	1.292551
N	-1.297942	1.048015	-1.857229
H	-1.467806	0.993971	-2.856025
H	-2.169966	0.82745	-1.352331
C	-0.993385	-1.427131	-1.883209
H	-0.312666	-2.255358	-1.665878
H	-1.208376	-1.437715	-2.958448
H	-1.922669	-1.537415	-1.322685
F	-2.805961	0.0	0.0
