17

C	0.0	0.0	0.0
C	-0.148599	0.033468	-1.586987
Br	2.074481	0.0	0.0
H	0.651151	-0.599215	-1.985501
N	-0.662924	0.983702	0.708674
H	-0.594978	1.8173	0.125877
H	-1.711588	0.623517	0.600347
C	-0.299067	-1.340776	0.514363
N	-0.508029	-2.41681	0.938124
N	0.033543	1.433669	-1.974989
H	1.013295	1.628262	-2.139817
H	-0.487049	1.621187	-2.821425
C	-1.455006	-0.499488	-2.156381
H	-1.388105	-0.419355	-3.250733
H	-1.575541	-1.553907	-1.897301
H	-2.313608	0.017082	-1.728514
F	-2.888355	0.0	0.0
