17

C	0.0	0.0	0.0
C	-0.423437	0.076668	-1.533863
Br	1.961432	0.0	0.0
H	0.486197	0.246496	-2.115587
N	-0.521713	1.022426	0.852059
H	-0.452831	1.882932	0.313289
H	-1.537834	0.778307	0.834498
C	-0.338442	-1.304106	0.597042
N	-0.523623	-2.359688	1.077528
N	-1.272345	1.2537	-1.691604
H	-2.13634	0.984319	-1.183206
H	-1.48855	1.34633	-2.679198
C	-1.072677	-1.22175	-2.013301
H	-1.323305	-1.116736	-3.076262
H	-0.402843	-2.082214	-1.908104
H	-1.985167	-1.369046	-1.432021
F	-2.839233	0.0	0.0
