16

C	-0.286642	0.051021	-1.500953
C	0.0	0.0	0.0
Cl	-2.053581	0.36422	-1.837054
H	1.096419	0.0	0.0
C	0.56587	1.152096	-2.114241
H	0.225801	2.10637	-1.713824
H	0.49418	1.149213	-3.203988
H	1.58827	0.958656	-1.76579
C	0.026306	-1.236517	-2.124045
N	0.271132	-2.24348	-2.677609
C	-0.561679	-1.180759	0.641329
N	-1.012698	-2.097041	1.226144
N	-0.381296	1.253006	0.638897
H	0.347351	1.483042	1.30292
H	-1.266997	1.178287	1.121543
F	2.566813	0.0	0.0
