13
Coordinates from ORCA-job run
  C   0.77510193190121      0.54591279674391      0.46480998795149
  C   -0.51950918718838     -0.18301441186129      0.07881974460369
  F   1.34681950997544      1.04331918243476     -0.69131993221058
  H   -1.00100948316764     -0.55949346937240      0.98321132880772
  H   0.57100961918576      1.38375640450950      1.13550851328833
  C   1.69501365452439     -0.40752206386794      1.09476516540380
  N   2.39199572180210     -1.20189503788594      1.60547698574769
  N   -0.40551576951691     -1.20531241340363     -0.89379944046127
  H   0.19031349223835     -0.93922134523546     -1.66502671727686
  H   -0.10988386445266     -2.08256084905848     -0.49130517893142
  N   -1.43639177201216      0.92322193228604     -0.42836220368357
  O   -1.67788535548205      0.96970864528866     -1.62490795524637
  O   -1.81905849780744      1.71210062942227      0.43212970200735
