13
Coordinates from ORCA-job run
  C   0.96986300436019     -0.19880175848790      0.36319217177961
  C   -0.54818503253964     -0.13649635875173      0.13084909468442
  F   1.20266077010839     -1.25525116887604      1.22333478496135
  H   -1.05165956581449      0.13077364437144      1.05994844038617
  H   1.47849071630194     -0.40446527806047     -0.58232059537826
  C   1.48584010015102      1.04025532313551      0.95407512317630
  N   1.87552205233512      2.04245957929495      1.42514618668334
  N   -1.12401196162732     -1.31834927754079     -0.42486678218451
  H   -1.19590943125483     -2.04241414390381      0.27625470703204
  H   -0.58792868192166     -1.65611306862918     -1.21422252610780
  N   -0.78573739856360      0.99451094725552     -0.82816975930268
  O   -1.39501104459830      1.97883001748516     -0.42647024982499
  O   -0.32393352693681      0.82406154270733     -1.95575059590499
