13
Coordinates from ORCA-job run
  C   0.62541077060756     -0.00296554846729      1.07545397012915
  C   -0.57109948374052     -0.29715576263008      0.16966244402626
  F   0.29249178103177      0.82804264057789      2.11419586253306
  H   -1.43732065140690     -0.49104793535015      0.80823712061721
  H   0.93471992200730     -0.96316614747318      1.49580884571827
  C   1.73970370059916      0.55191259175028      0.29313637073843
  N   2.62173203891110      0.92861194730951     -0.38337188487752
  N   -0.29310805689444     -1.41705062388658     -0.65316294276164
  H   0.43171628415196     -1.20712388501477     -1.32986105196648
  H   -1.11820156613320     -1.71106338013545     -1.15708369439948
  N   -0.96544439774263      0.96300590089320     -0.62419535087972
  O   -0.77120125585912      2.05072720119308     -0.09441997745689
  O   -1.49039908553205      0.76727300123353     -1.71539971142066
