13
Coordinates from ORCA-job run
  C   0.67350679539800      0.04903994323956      1.00676771057821
  C   -0.57587693382849     -0.31149721584588      0.20396253795996
  F   0.41543990108529      1.13121622381695      1.81588666716729
  H   -1.37516939437184     -0.57239890479872      0.89828807487817
  H   0.92241258172368     -0.81072575050648      1.63385704419074
  C   1.81518671491268      0.34613882745377      0.12981121493400
  N   2.73791965707765      0.54834141029936     -0.56660791403885
  N   -0.27929272496977     -1.37150178093677     -0.68579965694220
  H   -1.11792960613226     -1.77897266823224     -1.07648126186569
  H   0.32067794028995     -1.05605203573081     -1.43924475693124
  N   -1.06664891571194      0.96733401577555     -0.47649446879749
  O   -1.94790203533045      1.60110424979262      0.09380428273144
  O   -0.52132398014249      1.25797368567309     -1.53874947386434
