13
Coordinates from ORCA-job run
  C   0.92938979899242      0.45412279553028      0.30370628302799
  C   -0.49616739310921     -0.06066344324691      0.10310296612156
  F   1.51416714211653      0.58655689076865     -0.94395912989142
  H   -0.95861863642571     -0.25735240814488      1.07432663796327
  H   0.94836973704168      1.42797600449039      0.79063119166977
  C   1.68057093267359     -0.53492181140075      1.08650686242198
  N   2.24987474014289     -1.33608064433724      1.72789221634638
  N   -0.59587664582536     -1.18204059793157     -0.74035926762037
  H   0.13528890616163     -1.24368294736662     -1.43130092412949
  H   -0.75730202025784     -2.05424432904373     -0.26734122034615
  N   -1.33980626704376      1.11762896183144     -0.45626129636671
  O   -2.32722075348552      0.83252179796873     -1.11206373871205
  O   -0.98166954098133      2.24817973088220     -0.13388058048476
