13
Coordinates from ORCA-job run
  C   0.94428040199737     -0.19174043984571      0.42911135916888
  C   -0.55670360778091     -0.12455217599764      0.10522382429959
  F   1.11224231026222     -1.20979979115020      1.34853973538811
  H   -1.10964202136627      0.19070148876545      0.99014775904400
  H   1.50461096600319     -0.44607212302737     -0.47442939305783
  C   1.44177633804069      1.06770878687431      0.99192629258981
  N   1.81806779427447      2.08772601131556      1.43486044574128
  N   -1.11449674985301     -1.32488926619280     -0.42885596794990
  H   -0.54039688649945     -1.70094314209724     -1.17290173785026
  H   -1.23148395948580     -2.01700285991855      0.29800455081292
  N   -0.72401762932114      0.96269236523948     -0.91708064144441
  O   -0.20111391934076      0.73448971306586     -2.00723565668349
  O   -1.34312303693060      1.97068143296885     -0.59731057005870
