13
Coordinates from ORCA-job run
  C   0.97893257610486     -0.23032049128039      0.48050446512120
  C   -0.47194605544244     -0.08002922200168      0.03520776606680
  F   0.99963854040154     -1.22715410238321      1.44636989617948
  H   -1.06643735485428      0.37146132801693      0.84055407658537
  H   1.59634096246758     -0.55121197270984     -0.35876022123845
  C   1.49615297578289      1.00956889991217      1.06683620145848
  N   1.89169329275956      1.99274850987236      1.57061756665302
  N   -0.95014532702081     -1.33479092703482     -0.47540244977261
  H   -1.94763531705190     -1.28220378551261     -0.64119203647500
  H   -0.76794361111184     -2.06617699513349      0.19990854259120
  N   -0.55486518161313      0.90208673909779     -1.10312853499675
  O   -1.69337592949099      1.17735931481300     -1.46461541038224
  O   0.48959042906895      1.31866270434380     -1.59689986179051
