13
Coordinates from ORCA-job run
  C   0.90786037792816      0.55806559718580      0.29224087841853
  C   -0.41475588493204     -0.19175080745885      0.20399670860052
  F   1.33927389636997      0.81319168928489     -0.99868155804610
  H   -0.78686554476504     -0.40051009332873      1.20990413125356
  H   0.77062500324157      1.51510140583105      0.79819903055190
  C   1.90871660613948     -0.24988665724994      0.99575018432646
  N   2.70963447177424     -0.86904508811131      1.58860071494565
  N   -0.28642337594410     -1.36453744052495     -0.55980264097012
  H   0.01859422494718     -1.15953121814281     -1.50156428790527
  H   -1.14299154103774     -1.89814641606695     -0.59274735720715
  N   -1.43105100687938      0.83765360531875     -0.35403145200819
  O   -1.58194035743857      1.85559470076862      0.31370892829842
  O   -2.01067686940374      0.55380072249442     -1.39457328025822
