13
Coordinates from ORCA-job run
  C   0.98592435445180     -0.18807211483632      0.54981887032338
  C   -0.49980656517220     -0.22198638779072      0.17851430638308
  F   1.18572273901959     -1.01813129042058      1.62512169466092
  H   -1.10264678767319      0.09808085643027      1.02847145691283
  H   1.58011767606930     -0.55606769685765     -0.29181842705420
  C   1.42150975299084      1.17138828963062      0.89917419372954
  N   1.76757821749421      2.25600025108059      1.18415083244875
  N   -0.86707019211098     -1.51537112687671     -0.25992723659124
  H   -1.86929752337996     -1.62394757993023     -0.33030699376016
  H   -0.43108401864934     -1.74352231941596     -1.14441711310223
  N   -0.68507073268731      0.85895730030066     -0.88369204974476
  O   -1.33385248554827      1.85681611848296     -0.58806693021857
  O   -0.15102443425299      0.62485570046855     -1.96802260274206
