13
Coordinates from ORCA-job run
  C   0.88774002806194      0.53669983777387      0.38045556434085
  C   -0.42593077973137     -0.20332287230435      0.16614306412384
  F   1.39584622378204      0.87093000043906     -0.86365660664948
  H   -0.85748917064428     -0.47357391300161      1.13293447384554
  H   0.71879187401602      1.46064457183672      0.93585730207408
  C   1.84579565755031     -0.31564156939534      1.09112123445905
  N   2.61109123665670     -0.97177275565999      1.69122069546767
  N   -0.24989518413077     -1.32657534211471     -0.66017401795036
  H   -1.10210491849120     -1.85531770908831     -0.77732666986706
  H   0.11005995993711     -1.06354840807678     -1.56751986723820
  N   -1.40839109399487      0.86095772426006     -0.38647092026235
  O   -1.92258692578205      0.64467915591864     -1.47645961500952
  O   -1.60192690722959      1.83484127941275      0.33387536266594
