13
Coordinates from ORCA-job run
  C   0.96275349138368     -0.18819137938839      0.58892848405623
  C   -0.50988450018322     -0.20828925931765      0.16760702113624
  F   1.11146043433993     -0.99016223941134      1.69319717383992
  H   -1.13521990649412      0.14746252671558      0.98664164163123
  H   1.57872346041164     -0.58978131122051     -0.22109159347469
  C   1.40998507812945      1.17333739190348      0.91432175597579
  N   1.76668784775857      2.26003137702002      1.17771143236873
  N   -0.88493863685967     -1.50755316042294     -0.24557947427627
  H   -0.42164869320628     -1.77005885048068     -1.10639032458875
  H   -1.88584057887293     -1.60117100699602     -0.34862489392715
  N   -0.63943992752784      0.84395847152782     -0.93155433241412
  O   -0.07750869188974      0.56640787249953     -1.99127426954565
  O   -1.27612937698948      1.86300956757108     -0.68589262078151
