13
Coordinates from ORCA-job run
  C   0.65021166668478     -0.01612538057497      0.93885918582686
  C   -0.64597259029804     -0.23219792300204      0.14484791355826
  F   0.47933492688270      1.01799259659671      1.83236346198904
  H   -1.43383459093771     -0.51997491061730      0.84092728794531
  H   0.85226728938455     -0.92970251447636      1.50786921377519
  C   1.80414023519563      0.25103424805308      0.06936943156048
  N   2.74554567263715      0.39909208228932     -0.61582019978463
  N   -0.56661437419332     -1.15118663657391     -0.94041463991019
  H   -0.64084304900312     -2.11242458178503     -0.64348779888942
  H   0.24806537314690     -1.00504675991156     -1.52171271366812
  N   -1.06791792383516      1.10805216088956     -0.40062880488951
  O   -2.04321582640005      1.64734206093951      0.10918519594914
  O   -0.38016680926431      1.54314555817300     -1.31935753346241
