13
Coordinates from ORCA-job run
  C   0.98083112187577     -0.12560534748754      0.51443849138025
  C   -0.44915317023748     -0.16861080794661     -0.01368340524811
  F   1.14458546104139     -1.24687915903509      1.31631184757017
  H   -1.15664072724203      0.02997667255838      0.80235063349723
  H   1.68716279295873     -0.18824002451553     -0.31365465265451
  C   1.22484903317156      1.07402190159689      1.32053544612017
  N   1.40245060173135      2.01651834172996      1.99658597431349
  N   -0.65424792407284     -1.38825943906220     -0.74481702074047
  H   -0.37197840366870     -2.17563821090562     -0.17494328647558
  H   -1.63388431483389     -1.48803386621811     -0.98090343919421
  N   -0.66367176871482      0.95532258081290     -0.99237080373481
  O   -1.81557635490837      1.07627405770338     -1.39419126946841
  O   0.30427365289933      1.62915330076921     -1.33465851536522
