13
Coordinates from ORCA-job run
  C   0.87253487364590      0.49354850586444      0.46379965982013
  C   -0.45757947792118     -0.16404197557500      0.12101090774210
  F   1.55178081360505      0.72300387889587     -0.72098447225751
  H   -1.02305744660424     -0.35029801961627      1.03721301521757
  H   0.70782706781608      1.45606591292809      0.95071896183044
  C   1.67020190980885     -0.38268626069108      1.32712380394977
  N   2.30580648906752     -1.05635659600593      2.04721250284799
  N   -0.26823037125732     -1.34000211887167     -0.62483330562213
  H   0.22211202026359     -1.15383154143261     -1.48893545509712
  H   -1.13740301376624     -1.81250409326268     -0.82658233388859
  N   -1.28219625992166      0.93461954904733     -0.59833344172933
  O   -1.67573807675270      0.69531837794050     -1.73283875095933
  O   -1.48605852798366      1.95816438077900      0.04642890814603
