13
Coordinates from ORCA-job run
  C   0.71602505885487      0.40207176215993      0.66357309026416
  C   -0.51249883187825     -0.21483813417948     -0.01980573171032
  F   1.32998502227182      1.24786838823493     -0.24113704153410
  H   -1.02469883865406     -0.86727320389454      0.68972988734269
  H   0.42731554101706      0.98703169288205      1.53995420468635
  C   1.64453066626645     -0.66897122283610      1.04160573111907
  N   2.34946909680364     -1.55918746947843      1.33827976112186
  N   -0.28609755163589     -0.88449897222780     -1.24679238980326
  H   0.03778033230260     -1.83080728103928     -1.10838524995703
  H   0.33746189779079     -0.37282410918297     -1.85507342953711
  N   -1.45646788443422      0.96135802936379     -0.23098189352092
  O   -1.62941914614532      1.36591532726641     -1.37061911648220
  O   -1.93238536255949      1.43315519293151      0.79865217801081
