13
Coordinates from ORCA-job run
  C   0.90555775601034     -0.12421482262294      0.63886766989195
  C   -0.45020098456320     -0.15457239231207     -0.05888132371757
  F   0.92278765291968     -1.19394375952356      1.52376800164778
  H   -1.24233842326243      0.11888633058616      0.65078196124756
  H   1.70427830119740     -0.26688285572797     -0.08954592787446
  C   1.09910621184154      1.11813867248808      1.39248994751411
  N   1.23139185278009      2.09799358388691      2.02449077709870
  N   -0.61414993332815     -1.41209026952128     -0.73448362506717
  H   -0.43952630081334     -2.16872753526679     -0.08537521146492
  H   -1.56077102304328     -1.49341274852488     -1.08495991500025
  N   -0.49921275906293      0.90939431414475     -1.12256518181132
  O   0.53031385805078      1.52584809981355     -1.38417260081271
  O   -1.58823620872651      1.04258338258003     -1.66941457165170
