13
Coordinates from ORCA-job run
  C   0.84069340727275      0.46237069823044      0.44118607318065
  C   -0.54738760169182     -0.07270932738439      0.06308545216454
  F   1.55281065144098      0.66783796250021     -0.72567240124624
  H   -1.13449504807969     -0.21611363438467      0.97204989758460
  H   0.76539899897994      1.41517687281765      0.97034919138010
  C   1.53193594275664     -0.53374308593624      1.26712556028068
  N   2.04107259094270     -1.35355929669423      1.93512768455503
  N   -0.57999740971206     -1.23375803011179     -0.74609009707903
  H   -0.48036331780936     -2.07907142820849     -0.20350272167498
  H   0.09522935099943     -1.20054486232617     -1.49668647353639
  N   -1.21466667736848      1.09023834063972     -0.66059697358307
  O   -1.38256183887292      0.99940544464231     -1.86719681864449
  O   -1.48566904885811      2.05447034621565      0.05082162661860
