13
Coordinates from ORCA-job run
  C   0.83101643626502      0.37689139413694      0.57351997897653
  C   -0.48068078095192     -0.16575347575217     -0.02029699899792
  F   1.58417669247407      0.97801075635683     -0.41212771667006
  H   -0.92588577461690     -0.88977493012257      0.66262903172678
  H   0.64590978127541      1.11849785333600      1.35499027858398
  C   1.59202572162064     -0.75542690991121      1.12041399052975
  N   2.16605306428049     -1.68341905102578      1.55332843270033
  N   -0.35713893238266     -0.71646798704734     -1.32577375385996
  H   -0.23906443976342     -1.71734032714417     -1.31836402757718
  H   0.36816317789764     -0.26455419614373     -1.86386097851757
  N   -1.48240090841889      0.96777033885921     -0.07994429667216
  O   -2.62464256743165      0.71716241070716      0.28984912929090
  O   -1.07753147024783      2.03440412375081     -0.53436306951343
