13
Coordinates from ORCA-job run
  C   0.75032243370468      0.44580127347200      0.67746493592321
  C   -0.39827517576535     -0.30215973203606      0.01376696634972
  F   1.29880050608175      1.30336055653332     -0.26134302414854
  H   -0.85773134121439     -0.98333779855653      0.73407836229289
  H   0.38283358669696      1.04688082643504      1.51073079521342
  C   1.77364816578227     -0.49549484452604      1.14253553003908
  N   2.58389087980091     -1.23796462208856      1.55307587908101
  N   0.03183852674076     -0.97572120333444     -1.14228029232706
  H   -0.70668575245163     -1.51353005767684     -1.57211317099507
  H   0.41920076455536     -0.33375230656918     -1.82034108416418
  N   -1.49545927901425      0.76603384474231     -0.22826462267909
  O   -1.90755046633830      1.34507749058577      0.77156014350246
  O   -1.87483284857875      0.93680657301922     -1.37987041808786
