13
Coordinates from ORCA-job run
  C   0.65748053478419      0.05922477631426      1.01702953852111
  C   -0.58166730358117     -0.30262651174202      0.19911692802721
  F   0.39581590964895      1.15588683593765      1.80496131589720
  H   -1.39440753774608     -0.54595411185659      0.88418160501650
  H   0.88804127547872     -0.79313220559684      1.66091560785939
  C   1.81607908045993      0.33255995374373      0.15470242994655
  N   2.75242457171763      0.51631355973559     -0.52861933100573
  N   -0.28035130396685     -1.37949687033722     -0.66878717821954
  H   -1.11653522849570     -1.78625387920773     -1.06534870800657
  H   0.33368164248467     -1.08129577521873     -1.41827681257672
  N   -1.04960488437081      0.96900905262835     -0.50953293696656
  O   -0.48479387680029      1.23713895708069     -1.56757011080021
  O   -1.93416287961320      1.61962621851885      0.03622765230737
