13
Coordinates from ORCA-job run
  C   0.92305218670063     -0.13065380862027      0.61063642233042
  C   -0.45764702388844     -0.14103195775270     -0.03716099721547
  F   0.94110947137117     -1.16976545849861      1.53105567401028
  H   -1.21515974345754      0.18465190224997      0.68805187400008
  H   1.68918842464890     -0.32310372050574     -0.14067367533998
  C   1.18203392199071      1.12974030103091      1.31254649045982
  N   1.36847206780817      2.12536807182115      1.90480808843888
  N   -0.68620247949687     -1.41569512102998     -0.65927636485168
  H   -1.64826654562110     -1.48168713848308     -0.96805980565809
  H   -0.50407555489466     -2.15485964921921      0.00767073228285
  N   -0.50933531720578      0.88527982815952     -1.13794603301892
  O   0.52906185356075      1.45927069092241     -1.45500310734654
  O   -1.61123126151594      1.03248605992562     -1.65464929809166
