13
Coordinates from ORCA-job run
  C   0.66566856521621     -0.01644008998002      1.01301802602583
  C   -0.57887965635887     -0.32034705185341      0.17996283129755
  F   0.40523075568700      1.01374756222448      1.88636431590815
  H   -1.38442623481543     -0.62040227036523      0.85086160235284
  H   0.90668450978805     -0.91512668695850      1.58627910503863
  C   1.81527492857485      0.32999003433420      0.16495462740999
  N   2.74512589808746      0.57140977928511     -0.50913127836124
  N   -0.28042384740414     -1.32504969771566     -0.77150271431386
  H   -1.11814217623856     -1.70263572263327     -1.19273880681900
  H   0.32700564391669     -0.96700693070592     -1.49967087408688
  N   -1.05883159357519      0.99995734628777     -0.42382821832901
  O   -0.50327792822832      1.35324943993958     -1.46158825307459
  O   -1.94300886464972      1.60065428814087      0.17701963695158
