13
Coordinates from ORCA-job run
  C   0.68322696882633      0.03047927759990      1.00225507070381
  C   -0.58575389865770     -0.28528044192298      0.21159454666719
  F   0.47537249283964      1.12974884686050      1.80265974911325
  H   -1.38979078739413     -0.50741712555041      0.91390309019064
  H   0.90103854439303     -0.83293571174977      1.63583782951735
  C   1.82951084883037      0.27174199536636      0.11434191646623
  N   2.74921456690978      0.42791783356828     -0.59781747578257
  N   -0.34052675141468     -1.36439706622717     -0.67092991896046
  H   0.26666914385707     -1.08137918653332     -1.43155739684649
  H   -1.19848657326827     -1.73979802582479     -1.05132146684756
  N   -1.02940540116828      1.00629760889579     -0.47668236978697
  O   -1.88162191282929      1.67897485047216      0.09331280199765
  O   -0.47944724092389      1.26604714504545     -1.54459637643207
