13
Coordinates from ORCA-job run
  C   0.64213713513751     -0.00156450221088      0.94756157040868
  C   -0.65239961086253     -0.20671350249272      0.14717220268996
  F   0.49466435102032      1.06937424933481      1.80059322765341
  H   -1.45526406250297     -0.44447887380795      0.84502877441535
  H   0.81056379455810     -0.89905279265377      1.55183739293775
  C   1.81067367650675      0.19767050734119      0.07938267891864
  N   2.75033670393479      0.28703018919463     -0.61827025054212
  N   -0.59167408133499     -1.16605896323672     -0.90296390888858
  H   0.23313168799921     -1.06938275553817     -1.47990550328268
  H   -0.70559556001929     -2.11282348788680     -0.57432313655685
  N   -1.02711222613840      1.12626761645627     -0.44954645809740
  O   -1.98401508286986      1.71756689909670      0.03718623587122
  O   -0.32544672542863      1.50216541640340     -1.38375282552739
