13
Coordinates from ORCA-job run
  C   0.64241219477858     -0.01198575685746      0.94411261996029
  C   -0.64611639934019     -0.23389055418054      0.13960702042010
  F   0.45990539483152      1.02328607444760      1.83419089442653
  H   -1.43879911001697     -0.52381520840905      0.82931064621533
  H   0.84278638914798     -0.92327550409016      1.51724520132686
  C   1.80277324182929      0.25761935519159      0.08426265539863
  N   2.75020104630054      0.40539059884935     -0.59263103499066
  N   -0.55431893563482     -1.15441120561161     -0.94359691745161
  H   -0.62772799075357     -2.11526851538432     -0.64514808914892
  H   0.26526714108051     -1.00685359253090     -1.51751559549074
  N   -1.06892096571188      1.10354784533956     -0.41165256182443
  O   -0.37345920466390      1.54140473976653     -1.32330693226206
  O   -2.05400280184709      1.63725172346941      0.08512209342069
