14

C	-0.376016	-0.095131	-1.465914
C	0.0	0.0	0.0
Cl	-2.147183	-0.463267	-1.724373
H	1.106966	0.0	0.0
H	0.162052	-0.931465	-1.920249
C	-0.075888	1.125412	-2.20719
N	0.151982	2.079096	-2.852839
N	-0.354116	-1.204053	0.746601
H	-1.067666	-1.75151	0.279396
H	0.490752	-1.76312	0.834506
N	-0.50629	1.23095	0.575898
H	0.23329	1.606103	1.161203
H	-1.287655	1.002155	1.178042
H	2.780673	0.0	0.0
