14

C	-0.624957	0.002735	-1.390349
C	0.0	0.0	0.0
Cl	-0.20916	1.469304	-2.356335
H	1.099865	0.0	0.0
H	-1.713157	0.025086	-1.273125
C	-0.266717	-1.183968	-2.162771
N	-0.008745	-2.123227	-2.818126
N	-0.437812	-1.240663	0.620353
H	-1.164607	-1.029691	1.294895
H	0.359296	-1.651242	1.094156
N	-0.513883	1.153459	0.756354
H	-0.36338	1.987581	0.194021
H	0.141025	1.258807	1.527941
H	2.875166	0.0	0.0
