14

C	-0.404041	-0.131971	-1.451287
C	0.0	0.0	0.0
Cl	-2.174239	-0.506491	-1.672514
H	1.101608	0.0	0.0
H	0.13492	-0.969045	-1.904089
C	-0.112409	1.076573	-2.215125
N	0.113812	1.993282	-2.912591
N	-0.417123	-1.177496	0.778578
H	0.416048	-1.478327	1.274907
H	-0.669225	-1.943127	0.168335
N	-0.488457	1.239379	0.565035
H	0.273014	1.658665	1.086585
H	-1.237329	1.020942	1.209662
H	2.801272	0.0	0.0
