14

C	-0.624327	-0.004688	-1.395445
C	0.0	0.0	0.0
Cl	-0.125476	1.405837	-2.382473
H	1.093713	0.0	0.0
H	-1.712613	0.0731	-1.294016
C	-0.33125	-1.228015	-2.142224
N	-0.103902	-2.184741	-2.78341
N	-0.38675	-1.267428	0.621345
H	-1.129114	-1.13722	1.298477
H	0.431526	-1.626484	1.103936
N	-0.402011	1.214818	0.692752
H	-1.174114	1.040522	1.325583
H	0.396418	1.530313	1.234186
H	2.817259	0.0	0.0
