14

C	-0.516758	0.031084	-1.432768
C	0.0	0.0	0.0
Cl	-0.122468	-1.460283	-2.356978
H	1.100375	0.0	0.0
H	-0.001716	0.84869	-1.936663
C	-1.961644	0.246516	-1.487643
N	-3.121553	0.424308	-1.530805
N	-0.567323	-1.141789	0.726913
H	-0.070888	-1.157498	1.614519
H	-0.270281	-1.98827	0.24789
N	-0.407488	1.260405	0.5902
H	0.338132	1.584772	1.197127
H	-1.25796	1.123518	1.125805
H	2.904008	0.0	0.0
