14

C	-0.418052	0.040018	-1.477067
C	0.0	0.0	0.0
Cl	-0.058048	-1.497646	-2.334354
H	1.101693	0.0	0.0
H	0.185013	0.805762	-1.971494
C	-1.83791	0.344369	-1.643026
N	-2.967849	0.646098	-1.76012
N	-0.637398	-1.136043	0.659521
H	-0.532345	-0.94683	1.650472
H	-0.076173	-1.960522	0.461736
N	-0.382587	1.215627	0.686995
H	0.344361	1.908493	0.556788
H	-1.284158	1.577261	0.401089
H	2.892778	0.0	0.0
