17

C	-0.579092	0.005816	-1.421016
C	0.0	0.0	0.0
Br	0.168767	-1.428682	-2.503807
H	1.09293	0.0	0.0
N	-1.989242	-0.106457	-1.374599
H	-2.382414	0.046326	-2.295236
H	-2.297878	0.623824	-0.735228
N	-0.155318	1.301102	-2.160069
O	-0.88555	1.658705	-3.084479
O	0.858318	1.874588	-1.785324
N	-0.437275	-1.171869	0.733967
H	0.295567	-1.867295	0.693991
H	-1.283376	-1.551655	0.327362
N	-0.562284	1.205521	0.637667
H	-0.674832	0.958343	1.613763
H	0.140687	1.93513	0.58595
Br	3.604167	0.0	0.0
