17

C	-0.436335	-0.029883	-1.464834
C	0.0	0.0	0.0
Br	-2.502968	-0.417398	-1.537332
H	1.100046	0.0	0.0
N	-0.08159	1.121504	-2.105482
H	-0.349611	1.18769	-3.073635
H	-0.249156	1.925285	-1.515897
N	0.079776	-1.215407	-2.26926
O	0.177958	-1.047651	-3.478839
O	0.32839	-2.255375	-1.67467
N	-0.554636	-1.079753	0.809866
H	0.013609	-1.103305	1.650578
H	-0.379728	-1.956798	0.335757
N	-0.405655	1.298775	0.525856
H	-1.283962	1.169888	1.015224
H	0.301625	1.616048	1.17617
Br	3.534153	0.0	0.0
