17

C	-0.450262	0.02895	-1.462642
C	0.0	0.0	0.0
Br	-2.402251	0.33241	-1.532645
H	1.097459	0.0	0.0
N	0.196246	1.020588	-2.25653
H	1.182782	0.758862	-2.278047
H	0.131564	1.87546	-1.709875
N	-0.16558	-1.336201	-2.09042
O	0.984477	-1.467861	-2.496299
O	-1.035794	-2.193823	-2.1088
N	-0.445993	-1.200836	0.663949
H	-1.421155	-1.138537	0.932269
H	0.126955	-1.36083	1.482533
N	-0.336803	1.304282	0.574389
H	-1.249377	1.280166	1.013585
H	0.364323	1.534559	1.26868
Br	3.49546	0.0	0.0
