17

C	-0.438502	-0.048542	-1.461807
C	0.0	0.0	0.0
Br	-2.50405	-0.467581	-1.524236
H	1.100091	0.0	0.0
N	-0.105866	1.102175	-2.113876
H	-0.384439	1.155022	-3.080049
H	-0.296743	1.90537	-1.529186
N	0.089614	-1.235554	-2.255984
O	0.318196	-2.276803	-1.653175
O	0.215635	-1.070321	-3.463663
N	-0.543154	-1.071705	0.829493
H	-0.453701	-1.94539	0.324394
H	0.092513	-1.145586	1.619485
N	-0.406625	1.303239	0.515971
H	0.328477	1.649772	1.120493
H	-1.252439	1.164774	1.05782
Br	3.503826	0.0	0.0
