13

C	-0.37686	0.091548	-1.461029
C	0.0	0.0	0.0
Cl	0.183687	-1.3129	-2.365984
H	1.092794	0.0	0.0
H	-0.329989	0.91744	0.496941
N	-1.920216	0.200666	-1.596518
O	-2.561731	-0.79303	-1.899607
O	-2.374542	1.298215	-1.288175
C	0.17295	1.305664	-2.063173
N	0.580744	2.285272	-2.567378
C	-0.583229	-1.157183	0.640331
N	-1.036305	-2.092695	1.190763
F	2.478937	0.0	0.0
