13

C	-0.513861	-0.029298	-1.417635
C	0.0	0.0	0.0
Cl	0.29988	1.229129	-2.377186
H	1.091359	0.0	0.0
H	-0.2938	0.96274	0.431769
N	-0.185699	-1.372019	-2.101769
O	0.750914	-2.005823	-1.648349
O	-0.878062	-1.659989	-3.075509
C	-1.958658	0.161478	-1.544626
N	-3.11624	0.36446	-1.570056
C	-0.574245	-1.078271	0.778485
N	-1.018774	-1.964321	1.410531
F	2.48666	0.0	0.0
