13

C	-0.248457	-0.07238	-1.476113
C	0.0	0.0	0.0
Cl	-1.978862	0.139146	-1.973774
H	1.093517	0.0	0.0
H	-0.360495	0.95642	0.380448
N	0.493849	1.106503	-2.135722
O	1.116882	0.874571	-3.161042
O	0.340569	2.192531	-1.601082
C	0.236051	-1.315025	-2.065802
N	0.592818	-2.343671	-2.508679
C	-0.588553	-1.112815	0.702836
N	-1.050925	-2.016389	1.297049
F	2.472535	0.0	0.0
