13

C	-0.275727	0.008753	-1.472531
C	0.0	0.0	0.0
Cl	-2.011026	0.264974	-1.923306
H	1.094484	0.0	0.0
H	-0.351645	0.935964	0.436164
N	0.471208	1.211612	-2.079394
O	0.327183	2.271419	-1.491698
O	1.097838	1.022998	-3.111427
C	0.178757	-1.206838	-2.13709
N	0.515437	-2.203447	-2.659886
C	-0.585578	-1.143613	0.65396
N	-1.046345	-2.071982	1.209911
F	2.470239	0.0	0.0
