14

C	-0.34013	-0.044003	-1.498921
C	0.0	0.0	0.0
Cl	0.057538	1.570256	-2.184937
H	1.092452	0.0	0.0
C	0.476912	-1.030711	-2.21571
N	1.072115	-1.788307	-2.888268
C	-1.762586	-0.293057	-1.759634
N	-2.906521	-0.452576	-1.977397
N	-0.414307	-1.253793	0.661683
O	-0.632476	-2.228553	-0.062941
O	-0.44432	-1.259398	1.8881
C	-0.57176	1.133364	0.683554
N	-1.015893	2.069055	1.241129
F	2.403287	0.0	0.0
