14

C	-0.296211	-0.082173	-1.491025
C	0.0	0.0	0.0
Cl	-2.058885	-0.314838	-1.853879
H	1.090231	0.0	0.0
C	0.100946	1.193792	-2.099525
N	0.393936	2.209633	-2.613668
C	0.45731	-1.148592	-2.162905
N	1.025679	-1.948986	-2.808652
N	-0.418775	-1.211737	0.726957
O	-0.598293	-1.104261	1.937375
O	-0.486103	-2.260081	0.08621
C	-0.551358	1.185171	0.607005
N	-0.987733	2.163388	1.092733
F	2.394773	0.0	0.0
