14

C	-0.338831	0.009402	-1.499869
C	0.0	0.0	0.0
Cl	0.067128	1.644734	-2.127271
H	1.093322	0.0	0.0
C	0.475203	-0.955184	-2.250779
N	1.063468	-1.682721	-2.962055
C	-1.763352	-0.222064	-1.769395
N	-2.914055	-0.353489	-1.971932
N	-0.415633	-1.276672	0.615381
O	-0.639779	-2.222826	-0.144617
O	-0.442236	-1.328465	1.840745
C	-0.570198	1.109101	0.723656
N	-1.006163	2.027408	1.315769
F	2.403248	0.0	0.0
