14

C	-0.306679	0.002546	-1.49077
C	0.0	0.0	0.0
Cl	-2.074339	-0.211195	-1.852827
H	1.096478	0.0	0.0
C	0.084583	1.31114	-2.031454
N	0.364279	2.351965	-2.50001
C	0.440775	-1.023399	-2.229535
N	0.998073	-1.778497	-2.936567
N	-0.410959	-1.252619	0.659435
O	-0.470521	-2.264225	-0.038183
O	-0.590143	-1.214198	1.873917
C	-0.549606	1.147578	0.676892
N	-0.974916	2.108615	1.20517
F	2.393244	0.0	0.0
