14

C	-0.250192	0.014907	-1.511926
C	0.0	0.0	0.0
Cl	-1.972043	0.259449	-2.028188
H	1.086936	0.0	0.0
C	0.519974	1.115718	-2.095348
N	1.093318	2.003461	-2.607482
C	0.219344	-1.251284	-2.086311
N	0.592938	-2.258363	-2.56379
N	-0.515488	-1.271285	0.600173
O	-1.683935	-1.58417	0.370381
O	0.269452	-1.911824	1.290794
C	-0.591852	1.130354	0.664112
N	-1.048033	2.060227	1.223702
F	2.42928	0.0	0.0
