14

C	-0.295699	-0.12147	-1.488073
C	0.0	0.0	0.0
Cl	-2.061563	-0.341582	-1.847797
H	1.093189	0.0	0.0
C	0.120156	1.130098	-2.133538
N	0.418523	2.126502	-2.680463
C	0.445053	-1.215264	-2.127793
N	1.036258	-2.026202	-2.738713
N	-0.424929	-1.189446	0.75958
O	-0.503457	-2.25424	0.147005
O	-0.605925	-1.04726	1.965974
C	-0.546044	1.20404	0.573397
N	-0.95603	2.213269	1.016851
F	2.39359	0.0	0.0
