14

C	-0.345884	-0.07676	-1.4875
C	0.0	0.0	0.0
Cl	-2.129995	-0.383325	-1.706739
H	1.093661	0.0	0.0
H	-0.219443	0.935482	-1.882771
N	0.428128	-1.077742	-2.135795
H	1.323301	-1.19534	-1.664966
H	0.584363	-0.829632	-3.101297
N	-0.448016	-1.226758	0.732042
O	0.132649	-2.264964	0.442422
O	-1.352069	-1.111812	1.559152
C	-0.547471	1.192605	0.61806
N	-0.940885	2.199613	1.07384
Cl	3.187009	0.0	0.0
