14

C	-0.408068	0.102117	-1.471554
C	0.0	0.0	0.0
Cl	-0.087201	-1.535849	-2.256614
H	1.092156	0.0	0.0
H	-1.483982	0.237408	-1.585085
N	0.32948	1.171488	-2.017009
H	0.146765	1.303797	-3.001836
H	1.326527	1.047707	-1.848873
N	-0.576292	-1.230598	0.631677
O	-1.798519	-1.34915	0.546788
O	0.187365	-2.012211	1.180018
C	-0.517909	1.151726	0.729523
N	-0.962029	2.062284	1.323811
Cl	3.23242	0.0	0.0
