14

C	-0.530075	-0.180482	-1.417126
C	0.0	0.0	0.0
Cl	0.116921	1.198775	-2.418188
H	1.095083	0.0	0.0
H	-0.076837	-1.074928	-1.837479
N	-1.948138	-0.285519	-1.422137
H	-2.373141	0.582684	-1.113884
H	-2.287002	-0.492125	-2.353223
N	-0.387596	-1.21814	0.800106
O	-0.203459	-2.29875	0.252324
O	-0.802951	-1.056205	1.943817
C	-0.552944	1.193705	0.622715
N	-1.039475	2.172441	1.054532
Cl	3.175596	0.0	0.0
