14

C	-0.415908	0.123886	-1.483654
C	0.0	0.0	0.0
Cl	-0.14673	-1.457015	-2.27778
H	1.09191	0.0	0.0
H	-1.484321	0.330963	-1.562366
N	0.343797	1.136626	-2.153607
H	1.330814	1.016955	-1.931951
H	0.047374	2.052342	-1.836978
N	-0.602122	-1.209929	0.639821
O	0.147396	-2.087444	1.04855
O	-1.835061	-1.23463	0.671165
C	-0.493256	1.179933	0.699837
N	-0.902516	2.158829	1.204359
Cl	3.23036	0.0	0.0
