14

C	-0.54431	0.028046	-1.435546
C	0.0	0.0	0.0
Cl	0.178936	-1.321864	-2.340978
H	1.090397	0.0	0.0
H	-1.618968	-0.180502	-1.407009
N	-0.170505	1.273138	-2.062009
H	-0.293296	1.206786	-3.063828
H	-0.751078	2.023763	-1.706928
N	-0.509837	-1.25967	0.654078
O	-1.729159	-1.430194	0.629055
O	0.308858	-2.022959	1.145318
C	-0.543937	1.140028	0.728457
N	-0.996507	2.082788	1.263795
Cl	3.245965	0.0	0.0
