12
Coordinates from ORCA-job run
  C   -0.80878937986393      1.03501561543899     -0.18751529010061
  C   0.19539802103526     -0.09884294223755     -0.26841649202642
  F   -0.35232053526892      2.13332457968572     -0.89227289179838
  H   0.50491455275677     -0.19321145664572     -1.31932464891528
  H   -1.76809788096785      0.73489761055737     -0.62015437412681
  H   -0.95606243268993      1.32356480925894      0.85628065270318
  N   -0.46986299000212     -1.29458711525313      0.26126229931870
  H   0.19224348214735     -2.06092222355240      0.28621191004174
  H   -1.23647626831562     -1.57804935462767     -0.33993470689686
  N   1.37709733879619      0.23987517711398      0.49041817027658
  H   2.14769083197127     -0.37170430521531      0.25411252623502
  H   1.17526526040153      0.13163960547678      1.47833284528914
