12
Coordinates from ORCA-job run
  C   -0.71880380906431      1.10189551403837     -0.17195614664371
  C   0.09988036812867     -0.16989284431765     -0.28465461379411
  F   -1.71815596961955      1.11723918711108     -1.12719567443920
  H   0.33609738109616     -0.31881795263673     -1.34818411642060
  H   -0.09001128412627      1.98317889472126     -0.33160744328055
  H   -1.17798171323098      1.15868558483229      0.81818315248999
  N   -0.69473264857345     -1.30154424057150      0.13363659914724
  H   -0.27142294008044     -2.17131523202806     -0.16307709267483
  H   -0.75365017888851     -1.30464169720434      1.14607270674365
  N   1.28341125296333      0.01007220460646      0.56409125144367
  H   1.88283185617305      0.74216209097418      0.19769105111325
  H   1.82353768522231     -0.84702150952537      0.56800032631518
