12
Coordinates from ORCA-job run
  C   -0.74633427333161      1.04861760105431     -0.22118568282503
  C   0.10569079986561     -0.20057824067224     -0.28000015217583
  F   0.03270699851547      2.16308135958799     -0.53472636454402
  H   0.43222721393810     -0.33360537757955     -1.32227985944390
  H   -1.13688858516884      1.18729815647645      0.79025948382044
  H   -1.56223416961870      0.98266182058357     -0.94054977911234
  N   -0.74984634058222     -1.32342568611182      0.05308941852046
  H   -0.81497727844956     -1.37346763605066      1.06402711293315
  H   -0.34103163775743     -2.19062863402156     -0.26970938493719
  N   1.21255613688999     -0.04276064891856      0.65774280190629
  H   1.90353266053354     -0.76791919113338      0.50441499090203
  H   1.66459847516564      0.85072647678547      0.49891741495596
