12
Coordinates from ORCA-job run
  C   -0.71733986925132      1.07908172762366     -0.26627457428447
  C   0.12221628845439     -0.18080458460308     -0.31262687092082
  F   -1.25116930969550      1.25077576800226      1.00194532470609
  H   0.40525721846809     -0.32445660512420     -1.36853010437289
  H   -1.54453732971557      0.98686747163313     -0.97180244742560
  H   -0.11974312865849      1.96563843239144     -0.50066560761150
  N   -0.71463956096580     -1.30268122575636      0.05482799122219
  H   -0.94206070702857     -1.20993587086811      1.03814136807556
  H   -0.21379988399419     -2.17387910429941     -0.06806861030820
  N   1.27508845378311     -0.03293737477946      0.57803557284716
  H   1.82241402039487      0.78327939573463      0.32721793189987
  H   1.87831380820897     -0.84194802995450      0.48680002617261
