12
Coordinates from ORCA-job run
  C   -0.70808924341174      0.98965108947815     -0.21100291383552
  C   0.24542356960570     -0.19106962986317     -0.25444563004030
  F   -1.78012558380275      0.73463274711116     -1.06246148798549
  H   0.54837409513349     -0.33650623447419     -1.30328223295395
  H   -1.09210873070162      1.11507703457076      0.80419687209981
  H   -0.23177382128784      1.91649485506865     -0.54630013128411
  N   -0.34619012076722     -1.44112039782809      0.18306955586555
  H   -1.13661882580690     -1.66746195644410     -0.40795195077772
  H   -0.68499977042538     -1.32316741241105      1.13252272010685
  N   1.34509067752195      0.09331667196399      0.65292949094983
  H   1.91860098941559      0.84976522790538      0.29984744093848
  H   1.92141676452673     -0.73761199507750      0.71187826691658
