12
Coordinates from ORCA-job run
  C   -0.69760822423229      0.99752727398761     -0.20870728402226
  C   0.16999245842943     -0.24699691768745     -0.26711967522734
  F   0.00993066495419      2.06569013222579     -0.75415112096959
  H   0.45460514030979     -0.40568391474597     -1.31913892907975
  H   -1.62164642589792      0.88297987749848     -0.78430260118065
  H   -0.93474174388908      1.23217002465525      0.83176080664723
  N   -0.58475987348775     -1.34190505089977      0.32067070795427
  H   -1.36764332786907     -1.59788378760458     -0.26872383012281
  H   0.03240865759334     -2.14225527853921      0.38879770805129
  N   1.40559017811682     -0.13841682300036      0.48502854583482
  H   1.95477251556358      0.63216018103311      0.12455075105967
  H   1.17709998040896      0.06261428307709      1.45333492105511
