12
Coordinates from ORCA-job run
  C   -0.73322661291914      1.00231205191587     -0.12095862323392
  C   0.26428152721073     -0.11735727726426     -0.35905652848839
  F   -1.93830403754072      0.68175984712649     -0.73985998178593
  H   0.46199239561695     -0.15951643542929     -1.43512824269859
  H   -0.37279509271061      1.94498661632825     -0.53532085695001
  H   -0.93209349122672      1.11831991585336      0.95088111283371
  N   -0.22368797960669     -1.43929294749737      0.02500297743891
  H   -1.04582806250695     -1.66721083704448     -0.52365945141287
  H   -0.51442075440713     -1.42201244924765      0.99809394484287
  N   1.49632848057289      0.25178409770554      0.30532434926582
  H   1.34990587973647      0.27442401556848      1.30920297822627
  H   2.18684774778093     -0.46719659801495      0.12547832196214
