12
Coordinates from ORCA-job run
  C   -0.75428707127005      0.97601302536438     -0.20291526103620
  C   0.26418759221867     -0.13111934049749     -0.40252273519763
  F   -1.06719258786647      1.05132120941959      1.15836428958960
  H   0.46927077219208     -0.19575270883409     -1.47771969404799
  H   -0.35005391768514      1.94375854098006     -0.50482630084257
  H   -1.68117515482971      0.76144647284190     -0.73986889193344
  N   -0.20830323956821     -1.44988647608668      0.02273366100302
  H   -0.59937966134467     -1.37163278919008      0.95545317261930
  H   -0.94555781067861     -1.77966767916687     -0.59107382679439
  N   1.48742656199142      0.25720493383071      0.27066479832719
  H   1.27382134474454      0.47831455403720      1.23658099661843
  H   2.11224317209615     -0.53999974269863      0.27512979169468
