12
Coordinates from ORCA-job run
  C   -0.65396004685171      0.95066936218629     -0.12987249356032
  C   0.25130658206326     -0.25203141890510     -0.35513556622811
  F   -1.83009418574199      0.80787199541575     -0.86255701792931
  H   0.53211853217417     -0.26330986479871     -1.41422557039890
  H   -0.17043703978012      1.87890431401430     -0.44788948681598
  H   -0.92945693885249      1.01494052835882      0.92904263245232
  N   -0.40343825487030     -1.51647141621744     -0.05328151849024
  H   -1.38029665479456     -1.46954404590956     -0.31779221085293
  H   -0.34057604326509     -1.70050005919736      0.94022809238646
  N   1.46615637325539     -0.14248523054539      0.43408863083467
  H   2.17383309629642      0.39203587091110     -0.04883352534176
  H   1.28484458036700      0.30091996468728      1.32722803394408
