12
Coordinates from ORCA-job run
  C   -0.69295962537861      0.92160064887616     -0.13651711778081
  C   0.24801752902647     -0.25448116097553     -0.35592205551098
  F   -0.08967759077339      2.10271569732591     -0.56260681851544
  H   0.41498048375574     -0.35019413270426     -1.43463226402931
  H   -1.62354664111149      0.79796358198252     -0.69800603654773
  H   -0.91109378424989      1.02829133381463      0.93229661587126
  N   -0.34647849092903     -1.49112868127570      0.12156669109161
  H   -0.90977783242489     -1.33203682382976      0.94895035838012
  H   -0.93013609589730     -1.91724365990889     -0.58377222970789
  N   1.54321771105737     -0.06838623670135      0.28161002164168
  H   1.81387215944532      0.90665846660810      0.23205754538515
  H   1.48358217747969     -0.34375903321184      1.25397528972233
