12
Coordinates from ORCA-job run
  C   -0.65215583102165      0.92942549067386     -0.22733151016981
  C   0.27064163209452     -0.27806849631629     -0.36972549732290
  F   -0.98897955934745      1.06995887116248      1.12070235878126
  H   0.52665796395898     -0.37632151380088     -1.43142707367411
  H   -0.16088743135436      1.85527399576026     -0.54204698378631
  H   -1.58314228530439      0.79725456483413     -0.78713556693806
  N   -0.36538565279971     -1.51979654105364      0.04854941507269
  H   -1.17249511869516     -1.70255381408255     -0.53641407292630
  H   -0.70701436975260     -1.40846642065541      0.99704537544998
  N   1.51410185564480     -0.12162839063176      0.37237669322867
  H   1.29298776727248      0.07917941607618      1.34167107499145
  H   2.02567102930455      0.67674283803361      0.01473578729344
