13

C	0.0	0.0	0.0
C	-0.323036	0.033053	-1.520793
Cl	1.75654	0.0	0.0
H	-0.095872	-0.977217	-1.879824
H	-1.39583	0.206593	-1.622205
N	-0.366704	1.344862	0.644627
O	-0.430748	2.329826	-0.083308
O	-0.450694	1.349792	1.865155
C	-0.893447	-1.01495	0.614971
N	-0.908001	-2.064921	1.188007
C	0.421453	0.985946	-2.335821
N	0.985876	1.691041	-3.086568
H	-2.113091	0.0	0.0
