13

C	0.0	0.0	0.0
C	-0.317849	-0.114793	-1.510277
Cl	1.767897	0.0	0.0
H	0.186606	0.69843	-2.031828
H	-1.400362	-0.012103	-1.610956
N	-0.397188	1.389742	0.489713
O	-0.470805	1.536547	1.703455
O	-0.423318	2.292805	-0.344305
C	-0.722529	-0.987974	0.796188
N	-0.711247	-1.949704	1.498829
C	0.115315	-1.396481	-2.051305
N	0.428265	-2.413729	-2.548069
H	-2.161872	0.0	0.0
