13

C	0.0	0.0	0.0
C	-0.320855	0.030453	-1.508635
Cl	1.768118	0.0	0.0
H	0.228799	0.867039	-1.938509
H	-1.395398	0.189442	-1.608409
N	-0.544329	1.236213	0.651236
O	-0.516355	1.243385	1.89037
O	-0.612409	2.247433	-0.066437
C	-0.51232	-1.170762	0.696736
N	-0.589355	-2.216045	1.241789
C	0.060379	-1.217964	-2.154774
N	0.34544	-2.216531	-2.701708
H	-2.14916	0.0	0.0
