17

C	0.0	0.0	0.0
C	-0.405328	0.24989	-1.488044
Cl	1.842919	0.0	0.0
H	0.339036	-0.289341	-2.084759
N	-0.571349	0.863721	0.906663
H	-1.333659	1.380033	0.482891
H	-0.845959	0.400775	1.761848
N	-0.282052	-1.479292	0.352455
O	-0.654756	-1.721661	1.494315
O	-0.0764	-2.310816	-0.523857
N	-0.383811	1.693122	-1.664499
H	-0.763283	1.878697	-2.584181
H	0.562352	2.05005	-1.605881
N	-1.695259	-0.20676	-1.898367
H	-2.469816	0.126856	-1.318405
H	-1.737546	-1.216194	-1.904121
Br	-4.421816	0.0	0.0
