17

C	0.0	0.0	0.0
C	-0.49324	-0.092041	-1.476721
Cl	1.837816	0.0	0.0
H	0.296112	-0.6049	-2.029606
N	-0.592549	1.036261	0.693114
H	-0.380432	1.926443	0.269063
H	-0.454442	1.006498	1.69159
N	-0.275449	-1.30478	0.746363
O	-0.569123	-1.225238	1.932944
O	-0.112277	-2.343487	0.117306
N	-0.566818	1.295823	-1.929656
H	-1.49518	1.622232	-1.667295
H	-0.569829	1.270893	-2.942641
N	-1.728114	-0.785017	-1.697855
H	-2.513138	-0.414207	-1.150959
H	-1.642082	-1.770688	-1.492443
Br	-4.591751	0.0	0.0
