17

C	0.0	0.0	0.0
C	-0.723988	0.066151	-1.363078
Cl	1.81735	0.0	0.0
H	-1.639622	-0.503189	-1.160512
N	-0.540335	0.924451	0.850184
H	-0.83578	1.764084	0.373997
H	-0.140132	1.000849	1.767799
N	-0.230961	-1.416585	0.599719
O	-0.324467	-1.495931	1.815269
O	-0.239672	-2.363922	-0.181138
N	0.08564	-0.463806	-2.453246
H	0.498538	-1.337058	-2.146582
H	-0.561795	-0.703112	-3.19795
N	-1.119959	1.431925	-1.640184
H	-2.133697	1.476952	-1.668928
H	-0.694599	1.736535	-2.504471
Br	-4.049992	0.0	0.0
