17

C	0.0	0.0	0.0
C	-0.404878	0.117087	-1.528627
Cl	1.773634	0.0	0.0
H	0.323696	-0.51109	-2.045397
N	-0.582264	0.967467	0.821798
H	-0.421582	0.746708	1.797812
H	-1.593999	0.947502	0.662248
N	-0.302259	-1.45355	0.494047
O	-0.163699	-2.366083	-0.313372
O	-0.609942	-1.582568	1.673596
N	-0.227888	1.4869	-1.985447
H	-0.969275	2.055725	-1.589949
H	0.648233	1.851859	-1.627087
N	-1.703488	-0.34423	-1.889754
H	-2.482007	0.086397	-1.391168
H	-1.784747	-1.342826	-1.758673
Br	-4.376997	0.0	0.0
