15

C	-0.617878	0.061308	-1.387059
C	0.0	0.0	0.0
Cl	0.049842	1.361256	-2.389763
H	1.097335	0.0	0.0
H	-1.694421	0.209045	-1.311854
N	-0.444477	-1.248349	-2.099128
O	0.693723	-1.632364	-2.319772
O	-1.48433	-1.838588	-2.393774
N	-0.454623	-1.234307	0.608994
H	0.293559	-1.630233	1.161945
H	-1.259844	-1.046323	1.193449
N	-0.514253	1.166448	0.742192
H	-0.203446	2.006322	0.260526
H	-0.006871	1.171488	1.623502
Br	3.57551	0.0	0.0
