15

C	-0.47894	-0.056571	-1.443442
C	0.0	0.0	0.0
Cl	-2.241012	-0.289863	-1.5484
H	1.093163	0.0	0.0
H	0.001732	-0.878525	-1.967512
N	-0.086147	1.204117	-2.178714
O	1.101523	1.2379	-2.481495
O	-0.918966	2.074712	-2.395159
N	-0.382285	-1.263655	0.622498
H	0.239383	-1.435865	1.403582
H	-1.336207	-1.221135	0.962875
N	-0.434971	1.244404	0.602058
H	-1.408332	1.200565	0.880563
H	0.138743	1.439241	1.412758
Br	3.570584	0.0	0.0
