15

C	-0.590569	0.033552	-1.40264
C	0.0	0.0	0.0
Cl	0.105801	1.286379	-2.42336
H	1.092676	0.0	0.0
H	-1.669973	0.182513	-1.369961
N	-0.414966	-1.30225	-2.068932
O	-1.451641	-1.922614	-2.310976
O	0.722867	-1.676637	-2.306187
N	-0.407916	-1.266176	0.60075
H	-1.310924	-1.186775	1.053537
H	0.284711	-1.541987	1.285611
N	-0.417413	1.227817	0.665042
H	0.266671	1.461443	1.376307
H	-1.323006	1.102818	1.108576
Br	3.562276	0.0	0.0
