15

C	-0.46614	0.053067	-1.451833
C	0.0	0.0	0.0
Cl	0.25446	-1.211446	-2.444455
H	1.099246	0.0	0.0
H	-0.214771	1.023395	-1.869255
N	-1.973073	-0.048206	-1.507787
O	-2.572284	1.020126	-1.38586
O	-2.496469	-1.15186	-1.604026
N	-0.560912	-1.185269	0.658278
H	-0.3853	-2.003835	0.083316
H	-0.015985	-1.320573	1.504097
N	-0.412058	1.219962	0.662278
H	0.292393	1.473946	1.34224
H	-1.297641	1.067504	1.129516
Br	3.549985	0.0	0.0
