13

C	0.0	0.0	0.0
C	-0.244728	0.228073	-1.523434
F	1.399631	0.0	0.0
H	0.509	-0.437121	-1.961339
H	-0.323203	0.856069	0.59921
N	-0.493605	-1.275434	0.379199
H	-1.51501	-1.193772	0.288695
H	-0.303167	-1.410112	1.365486
C	0.156679	1.597294	-1.869112
N	0.509704	2.685701	-2.133878
C	-1.489184	-0.115265	-2.229384
N	-2.202177	-0.416372	-3.115581
Cl	-3.368338	0.0	0.0
