13

C	0.0	0.0	0.0
C	-0.24622	0.105931	-1.537365
F	1.399305	0.0	0.0
H	0.537771	-0.554876	-1.92569
H	-0.323264	0.90319	0.525602
N	-0.491338	-1.237463	0.48585
H	-1.511675	-1.177427	0.374194
H	-0.315671	-1.278941	1.482784
C	0.094229	1.458544	-1.994825
N	0.411853	2.52438	-2.370881
C	-1.466302	-0.36027	-2.206444
N	-2.187048	-0.779817	-3.034657
Cl	-3.367713	0.0	0.0
