13

C	0.0	0.0	0.0
C	-0.499739	0.376778	-1.403247
F	1.398278	0.0	0.0
H	-1.576169	0.125374	-1.402346
H	-0.316435	0.769016	0.712473
N	-0.435703	-1.32982	0.275021
H	-0.077747	-1.613372	1.17645
H	-1.457045	-1.293708	0.330586
C	0.23896	-0.386246	-2.413151
N	0.889649	-0.927631	-3.225824
C	-0.392274	1.808632	-1.675491
N	-0.345096	2.958619	-1.906628
Cl	-3.411612	0.0	0.0
