13

C	0.0	0.0	0.0
C	-0.248265	0.28575	-1.517851
F	1.374169	0.0	0.0
H	0.499034	-0.372707	-1.977876
H	-0.343897	0.825586	0.629036
N	-0.47439	-1.299531	0.332448
H	-1.498483	-1.230909	0.274782
H	-0.250683	-1.474187	1.307168
C	0.167239	1.663336	-1.808332
N	0.50093	2.769151	-2.018077
C	-1.488799	-0.016896	-2.246945
N	-2.193002	-0.248913	-3.16009
Cl	-3.327955	0.0	0.0
