13

C	0.0	0.0	0.0
C	-0.494748	0.452254	-1.380411
F	1.396225	0.0	0.0
H	-1.59988	0.453296	-1.302441
H	-0.303057	0.758453	0.731882
N	-0.470879	-1.320461	0.247238
H	-0.213587	-1.583465	1.191761
H	-1.492922	-1.271656	0.210557
C	-0.060348	-0.474192	-2.428066
N	0.322761	-1.183864	-3.281014
C	-0.02208	1.80406	-1.681861
N	0.356939	2.893591	-1.898267
Cl	-3.449789	0.0	0.0
