13

C	0.0	0.0	0.0
C	-0.421734	0.273406	-1.480637
F	1.374164	0.0	0.0
H	0.538211	0.348922	-2.007861
H	-0.314879	0.845198	0.621607
N	-0.442673	-1.284337	0.425347
H	-0.198567	-1.391921	1.404117
H	-1.465853	-1.255971	0.369318
C	-1.068328	1.574294	-1.660803
N	-1.41186	2.684528	-1.829269
C	-1.137781	-0.813914	-2.154988
N	-1.556968	-1.681127	-2.825281
Cl	-3.277373	0.0	0.0
