12

C	-0.524598	0.089389	-1.426443
C	0.0	0.0	0.0
Cl	-0.116677	-1.348822	-2.393276
H	1.099551	0.0	0.0
H	-1.608735	0.200373	-1.411589
H	-0.06425	0.952876	-1.910383
C	-0.514528	-1.187865	0.679058
N	-0.931297	-2.116895	1.264474
N	-0.491487	1.216065	0.694474
H	0.230269	1.916779	0.555901
H	-0.49957	1.033803	1.690618
Br	3.497346	0.0	0.0
