12

C	-0.52103	-0.008002	-1.430243
C	0.0	0.0	0.0
Cl	-0.047949	1.475487	-2.306913
H	1.100971	0.0	0.0
H	-0.095232	-0.850197	-1.973458
H	-1.610805	-0.049036	-1.432892
C	-0.462981	-1.245991	0.621767
N	-0.846917	-2.243452	1.108462
N	-0.563136	1.137158	0.747084
H	-0.151168	1.970077	0.336264
H	-0.180719	1.088057	1.68629
Br	3.524858	0.0	0.0
