12

C	-0.530232	0.071598	-1.424659
C	0.0	0.0	0.0
Cl	-0.238045	-1.422961	-2.352861
H	1.093738	0.0	0.0
H	-1.605387	0.256532	-1.42181
H	-0.012405	0.886694	-1.925831
C	-0.469592	-1.198055	0.707209
N	-0.871251	-2.128874	1.301173
N	-0.401967	1.242459	0.67232
H	0.363261	1.536855	1.266673
H	-1.221326	1.097871	1.248398
Br	3.475647	0.0	0.0
