12

C	-0.520787	-0.021755	-1.430238
C	0.0	0.0	0.0
Cl	-0.046882	1.452755	-2.3212
H	1.100949	0.0	0.0
H	-0.095204	-0.869286	-1.965084
H	-1.610555	-0.062354	-1.432825
C	-0.462833	-1.240029	0.633829
N	-0.845807	-2.232645	1.131091
N	-0.563014	1.144284	0.736167
H	-0.180071	1.104464	1.675647
H	-0.151388	1.97317	0.31694
Br	3.524366	0.0	0.0
