12

C	-0.367692	-0.017882	-1.471543
C	0.0	0.0	0.0
Cl	-2.1296	-0.083692	-1.774026
H	1.103862	0.0	0.0
H	0.086932	-0.882951	-1.95271
H	0.012529	0.891058	-1.938822
C	-0.490402	-1.196116	0.682041
N	-0.876652	-2.15426	1.239807
N	-0.525372	1.2059	0.663713
H	0.106933	1.959347	0.405498
H	-0.399999	1.08656	1.66381
Br	3.479532	0.0	0.0
