15
Coordinates from ORCA-job run
  C   -0.23702164634243     -0.02690071547206      0.48717314793724
  C   1.28007861575977     -0.24381091387364      0.35799070251086
  Br  -0.63507054538441     -0.21913682681906      2.40830326877519
  H   1.55044071910779     -1.23299686276577      0.73808597772803
  H   1.81699878389836      0.49642651008167      0.95777909353291
  C   -1.01612722098867     -1.09282954599891     -0.26612027570974
  H   -0.73621203978872     -2.09503740749753      0.06495810584562
  H   -0.81034269116794     -1.00708421748609     -1.33753343126622
  H   -2.08839453237479     -0.96532831944539     -0.10834708347944
  C   -0.63508950583991      1.37658734861218      0.06011863338009
  H   -1.70319968691376      1.53553041459249      0.21777062048813
  H   -0.08732969426979      2.13229857494785      0.62692042713293
  H   -0.41772990870334      1.51011258646507     -1.00416648204404
  C   1.70612680722596     -0.13253741903331     -1.03740927218565
  N   2.01287254578190     -0.03629320630750     -2.16652343264591
