16
Coordinates from ORCA-job run
  C   0.84367780877223      0.18653643291372     -0.42639146922736
  C   -0.45350868404941      0.10717407915611      0.37446705791621
  F   0.62626674038257      0.12834740770617     -1.75160556255624
  H   -0.19886007505226      0.01985548225260      1.43232553300689
  N   1.63410988128885     -1.08616754904830     -0.03348087141901
  O   1.81833810821497     -1.91285667526349     -0.90952508533603
  O   1.96887373800906     -1.13651907566109      1.14196137775102
  C   1.69130168278174      1.32673879588868     -0.07629716037282
  N   2.39110618077242      2.22016141911613      0.22806867780176
  C   -1.34858154849985     -1.03285417318019     -0.08226639032917
  H   -0.84274043828990     -1.99206408813722      0.03732888410403
  H   -1.62119631596775     -0.90703384179658     -1.13056757732548
  H   -2.25085425242434     -1.04034874903539      0.52844427971304
  N   -1.21947055296048      1.39809845316027      0.25269297805849
  O   -0.89457364001609      2.18694673936958     -0.63039349044045
  O   -2.14288863296176      1.53098534255899      1.04723881865511
