16
Coordinates from ORCA-job run
  C   0.86852718628488      0.16150765627740     -0.38505683890023
  C   -0.47893182442505      0.13323864052737      0.33203435055146
  F   0.74153579042430     -0.01858468013881     -1.71092305768973
  H   -0.29539025829806      0.14530133545327      1.40801629348775
  N   1.64317812433250     -1.05834779775988      0.17273195124883
  O   1.89797773659147     -0.99838555744630      1.36758051313854
  O   1.89423307072569     -1.95684552534169     -0.61111836433321
  C   1.67911447470502      1.34183447478812     -0.08380357738342
  N   2.34772477515466      2.27006736382701      0.18435718504791
  C   -1.32951953010900     -1.05753487399081     -0.07744374876146
  H   -2.27092493181006     -1.02464110795583      0.47002233400165
  H   -0.82320807568832     -1.99356121096791      0.16290586749491
  H   -1.53166360644695     -1.03183593123735     -1.14866266212752
  N   -1.24778502844757      1.39582056032634      0.04346371288896
  O   -2.22419814983673      1.58428142189831      0.75951382093995
  O   -0.87166975315681      2.10768523174074     -0.88361777960441
