16
Coordinates from ORCA-job run
  C   0.88518111523760     -0.33395936006646     -0.21302079638701
  C   -0.51732233387290     -0.27856937991427      0.37498829263204
  F   1.16090140799574     -1.65031208846883     -0.46959848654175
  H   -0.52209958591800     -0.92162027387121      1.25691846620372
  N   1.93371362688366      0.08819790442245      0.82122375142224
  O   2.93715059595958      0.64273718317752      0.39922726809490
  O   1.69266347232394     -0.25338266967423      1.97150258372938
  C   1.05281548682297      0.44273814545989     -1.43877337506792
  N   1.13887027621610      0.98495832627695     -2.47751672608824
  C   -1.58277561367394     -0.68518789141675     -0.62649738934150
  H   -1.36103987076749     -1.67902446457239     -1.01677174235460
  H   -2.55131770305913     -0.71072022361768     -0.12852089145071
  H   -1.62807745760081      0.02194938018858     -1.45723969411789
  N   -0.80444006752638      1.10429099865396      0.87929706839278
  O   0.02991908465815      1.97934958884470      0.65067721766292
  O   -1.86414243367909      1.24855482457777      1.47410445321162
