16
Coordinates from ORCA-job run
  C   0.96366821820541     -0.33712378590079      0.24320359257628
  C   -0.56023237290795     -0.34310944776303      0.39318683926361
  F   1.61056965937087     -0.57160005938861      1.41085139900539
  H   -0.79219482005444     -1.30223150518795      0.86796797187333
  N   1.50530747482273      1.01498525623919     -0.24795903819625
  O   0.79440723187154      1.99456818013556     -0.06230005131838
  O   2.63519110364339      0.98790545448616     -0.71607794075307
  C   1.36856569540995     -1.35475639480303     -0.73486539523862
  N   1.65011202361863     -2.20607185028115     -1.49419673534309
  C   -1.29207102697094     -0.18611823764408     -0.92431729514215
  H   -2.36498827061185     -0.25495913126805     -0.75230028858318
  H   -1.08756645431175      0.78429176637943     -1.37407032545481
  H   -1.00434053151293     -0.98119913782706     -1.61370353725672
  N   -1.02217723317610      0.68334938849237      1.41246326328879
  O   -0.52328166041153      0.58999806994780      2.52852100856424
  O   -1.87996903698503      1.48307143438328      1.06459653271462
