18

C	-0.463518	0.056152	-1.463552
C	0.0	0.0	0.0
Cl	0.184955	-1.474345	-2.276419
H	1.094521	0.0	0.0
N	-1.889552	0.112766	-1.552128
H	-2.29604	-0.705854	-1.110965
H	-2.172688	0.116805	-2.525173
C	0.181109	1.217911	-2.195868
H	-0.235522	2.157525	-1.827477
H	1.260219	1.195344	-2.031022
H	-0.021171	1.143822	-3.267496
C	-0.532404	-1.196764	0.646272
N	-1.046741	-2.111787	1.174932
C	-0.438902	1.238081	0.795997
H	0.07395	2.120711	0.412604
H	-1.518284	1.38936	0.744705
H	-0.135993	1.114397	1.837524
Cl	3.363747	0.0	0.0
