18

C	-0.452727	0.061613	-1.467775
C	0.0	0.0	0.0
Cl	0.144068	-1.49655	-2.266444
H	1.094478	0.0	0.0
N	-1.874928	0.17017	-1.568335
H	-2.151631	0.174902	-2.543004
H	-2.313629	-0.628987	-1.123191
C	0.241662	1.191785	-2.203026
H	-0.135879	2.150038	-1.841748
H	1.317982	1.125745	-2.031413
H	0.040526	1.119635	-3.275178
C	-0.543631	-1.190495	0.646305
N	-1.073151	-2.099519	1.169567
C	-0.433323	1.242049	0.793052
H	-1.513833	1.388924	0.757655
H	-0.112779	1.126634	1.830477
H	0.068235	2.124694	0.395694
Cl	3.365215	0.0	0.0
