18

C	-0.369405	-0.063104	-1.508657
C	0.0	0.0	0.0
Cl	-0.019469	1.564644	-2.216591
H	1.097027	0.0	0.0
N	0.467334	-1.006137	-2.218419
H	1.439312	-0.824856	-1.96348
H	0.242716	-1.939536	-1.885881
C	-1.831205	-0.368232	-1.779437
H	-2.084045	-1.359018	-1.392392
H	-1.999471	-0.35393	-2.857015
H	-2.48114	0.36882	-1.305588
C	-0.427508	-1.266749	0.594478
N	-0.811408	-2.272864	1.066613
C	-0.53587	1.171318	0.819172
H	-0.235898	1.047549	1.862158
H	-0.105096	2.101994	0.452686
H	-1.627184	1.236489	0.776568
Cl	3.347746	0.0	0.0
