18

C	-0.546124	0.053559	-1.439362
C	0.0	0.0	0.0
Cl	0.148282	1.507742	-2.255076
H	1.09491	0.0	0.0
N	-0.06709	-1.095373	-2.168006
H	-0.475089	-1.113698	-3.09746
H	-0.310638	-1.950727	-1.676612
C	-2.06409	0.218254	-1.479558
H	-2.533637	-0.625284	-0.964204
H	-2.391846	1.149076	-1.015803
H	-2.399612	0.222443	-2.519232
C	-0.461905	-1.252089	0.600325
N	-0.893693	-2.235114	1.08023
C	-0.434974	1.169591	0.890141
H	-0.152745	2.109968	0.415415
H	-1.507368	1.168991	1.097412
H	0.104125	1.10065	1.835416
Cl	3.400526	0.0	0.0
