18

C	-0.470758	0.061231	-1.473166
C	0.0	0.0	0.0
Cl	0.042205	-1.484766	-2.249812
H	1.09519	0.0	0.0
N	-1.905029	0.157724	-1.670979
H	-2.222376	1.052141	-1.313404
H	-2.369672	-0.578015	-1.147038
C	0.233733	1.192246	-2.201178
H	0.016945	1.120813	-3.267553
H	1.309421	1.123432	-2.026224
H	-0.126884	2.160205	-1.840106
C	-0.545097	-1.182912	0.657575
N	-1.073521	-2.085726	1.19358
C	-0.416742	1.240167	0.804333
H	0.045412	2.134533	0.384968
H	-0.047441	1.135815	1.825972
H	-1.50254	1.368371	0.844896
Cl	3.358493	0.0	0.0
