13
Coordinates from ORCA-job run
  C   0.75351744105310     -0.49975164117698      0.02465839718960
  C   -0.60388025902625      0.06019433798785     -0.41364862809426
  F   0.57486307923427     -1.40767169820817      1.03747677587903
  H   -0.39186547546482      0.74877900847656     -1.25111019109714
  H   1.21288647637588     -1.04474908335653     -0.81106247192309
  N   1.55569395866471      0.57742632986922      0.55879833754771
  H   1.95349805634834      1.12461028365142     -0.19542229816465
  H   2.31778164525472      0.17891813322060      1.09421015727757
  N   -1.26448821196246      0.67520298471521      0.72213839172863
  H   -2.02860551699016      1.26158804743426      0.41363141651053
  H   -0.57807274049852      1.24261982332906      1.20583537317501
  C   -1.42622420048487     -1.02897639942796     -0.95932183836888
  N   -2.07510425250396     -1.88819012651454     -1.42518342166006
