13
Coordinates from ORCA-job run
  C   0.81784811145197      0.19886455287201      0.27681402872148
  C   -0.59367087069430     -0.00448146847460     -0.26554351416903
  F   1.43136707505870      1.10147356113630     -0.62697160468800
  H   -0.49524229643018     -0.53506917648194     -1.22813754780425
  H   0.77716074291351      0.71486037927926      1.23703456401877
  N   1.51281317811748     -1.01803208082200      0.39247926709398
  H   2.41225230433696     -0.89971507408332      0.83689328872193
  H   1.63395283170195     -1.46873242549192     -0.50492428564184
  N   -1.24981968251185      1.29279562282953     -0.36532033034025
  H   -0.72023159559642      1.87208134134864     -1.00457655593210
  H   -2.18780315689320      1.18477915140418     -0.73013065488649
  C   -1.35162657736925     -0.87132053698328      0.64242401155850
  N   -1.98800006408537     -1.56750384653288      1.33995933334730
