13
Coordinates from ORCA-job run
  C   0.74470261002843      0.17490104328052      0.30607190734001
  C   -0.59506178487525     -0.03472063800580     -0.40934624956795
  F   1.41988609346172      1.15969796442355     -0.45456714335027
  H   -0.36910773273203     -0.49837841577157     -1.37845790101115
  H   0.59023050942396      0.61652664297043      1.29376275660394
  N   1.46631776905493     -1.02623312350722      0.42017744189524
  H   1.68190570551291     -1.42296629152137     -0.48507045930931
  H   2.31659987152525     -0.91555136543377      0.95445542561539
  N   -1.35521854800794      1.17795439982883     -0.66994204668576
  H   -0.75346854172887      1.83715129016796     -1.14843374271428
  H   -1.64836018830893      1.59866985744123      0.20427468576336
  C   -1.41444783806992     -0.97528012943897      0.36267794663349
  N   -2.08497792528426     -1.69177123443381      1.00539737878727
