13
Coordinates from ORCA-job run
  C   0.75084812241912     -0.64551595535852      0.16710370728419
  C   -0.38678372945559      0.12980549098926     -0.50966581870703
  F   0.12732843183994     -1.39916990034380      1.17448843541803
  H   0.04817817954061      0.67421243680630     -1.35372502080920
  H   1.19306201444759     -1.36746206701875     -0.52346712147726
  N   1.72825301452759      0.20239049809501      0.71709291276994
  H   2.62689755504851      0.16310193005241      0.26928699942636
  H   1.39172846718384      1.13930531706199      0.88063239150172
  N   -0.89987999734538      1.10312481937888      0.44449293214340
  H   -1.60467844389470      1.68888571793543      0.01533321691008
  H   -1.32617094900900      0.61109665578445      1.22113778494744
  C   -1.40606487935508     -0.79532149265226     -1.04102781862307
  N   -2.24171778594746     -1.50445345073040     -1.46268260078461
