16

C	-0.475984	0.005574	-1.444708
C	0.0	0.0	0.0
Br	0.40731	1.34272	-2.494501
H	1.092427	0.0	0.0
H	-0.295306	-0.962254	-1.905308
N	-1.978718	0.203916	-1.457828
O	-2.46389	1.292866	-1.735806
O	-2.607007	-0.790983	-1.096222
N	-0.371086	-1.334071	0.595092
O	-0.078689	-2.33361	-0.056653
O	-0.898061	-1.346988	1.707542
C	-0.525767	1.145152	0.833425
H	-0.270143	2.083911	0.339298
H	-1.606659	1.091069	0.97811
H	-0.042844	1.130377	1.809371
Cl	3.251981	0.0	0.0
