16

C	-0.471927	-0.004477	-1.445128
C	0.0	0.0	0.0
Br	0.416165	1.32337	-2.503903
H	1.092608	0.0	0.0
H	-0.29251	-0.976074	-1.898587
N	-1.974598	0.19814	-1.465139
O	-2.458168	1.276276	-1.783569
O	-2.604709	-0.782425	-1.069671
N	-0.367838	-1.330878	0.605339
O	-0.877903	-1.336465	1.724836
O	-0.086077	-2.334748	-0.043777
C	-0.531082	1.14943	0.823936
H	-0.280788	2.085489	0.32187
H	-1.611928	1.089945	0.967839
H	-0.049591	1.145745	1.8004
Cl	3.252866	0.0	0.0
