16

C	-0.569825	0.004071	-1.409298
C	0.0	0.0	0.0
Br	0.244114	-1.331058	-2.529949
H	1.089656	0.0	0.0
H	-1.641712	-0.168319	-1.411691
N	-0.383183	1.375975	-2.000892
O	-1.407431	2.063367	-2.044621
O	0.7376	1.72761	-2.335482
N	-0.488831	-1.250757	0.672531
O	0.283048	-1.831608	1.423216
O	-1.664679	-1.573502	0.481261
C	-0.507134	1.171582	0.830291
H	-0.068655	2.098198	0.457978
H	-0.162863	1.038344	1.857732
H	-1.597336	1.245166	0.809986
Cl	3.365088	0.0	0.0
