16

C	-0.585537	-0.010813	-1.404511
C	0.0	0.0	0.0
Br	0.384441	-1.134727	-2.626784
H	1.089657	0.0	0.0
H	-1.619617	-0.340688	-1.406676
N	-0.62205	1.402563	-1.92407
O	0.412287	1.922281	-2.315802
O	-1.725665	1.948432	-1.850633
N	-0.428818	-1.260782	0.698291
O	0.024228	-1.434004	1.824226
O	-1.212427	-2.027605	0.132993
C	-0.470447	1.177869	0.843863
H	-0.058844	2.101048	0.435042
H	-0.065026	1.05263	1.846898
H	-1.560744	1.252198	0.885588
Cl	3.267847	0.0	0.0
