16

C	-0.590356	-0.011166	-1.399428
C	0.0	0.0	0.0
Br	0.319776	-1.212448	-2.593226
H	1.089669	0.0	0.0
H	-1.63903	-0.287998	-1.393624
N	-0.552152	1.389111	-1.948974
O	0.511171	1.846803	-2.336839
O	-1.628998	1.988686	-1.906934
N	-0.443063	-1.24904	0.709899
O	0.096573	-1.479471	1.785266
O	-1.341729	-1.933624	0.213347
C	-0.467603	1.185052	0.837991
H	-0.051464	2.105048	0.42631
H	-0.063184	1.063728	1.842518
H	-1.557926	1.2636	0.876809
Cl	3.280052	0.0	0.0
