16

C	-0.576022	0.003481	-1.406512
C	0.0	0.0	0.0
Br	0.244437	-1.319278	-2.536641
H	1.08971	0.0	0.0
H	-1.646059	-0.180278	-1.401247
N	-0.408627	1.37823	-1.996114
O	-1.434455	2.065403	-1.996069
O	0.699339	1.733512	-2.370221
N	-0.489765	-1.248542	0.674563
O	0.27088	-1.804673	1.45661
O	-1.654556	-1.593795	0.454517
C	-0.495903	1.175271	0.832822
H	-0.14834	1.037015	1.85844
H	-0.048825	2.097443	0.45989
H	-1.585127	1.260446	0.816515
Cl	3.354446	0.0	0.0
