11
Coordinates from ORCA-job run
  C   0.45890807248325      0.24661005458535     -0.06926667181453
  C   -0.82245607104857      0.00162301329759      0.31907264243514
  H   -1.31973252104286      0.75018536865197      0.92702729996295
  C   1.19541569395792     -0.67323826708564     -0.85764808526461
  N   1.68891425606721     -1.52073180409922     -1.50878061983494
  N   1.11488141733836      1.47727338330149      0.33850095700300
  O   2.27544327586348      1.62715158423006     -0.03622153076696
  O   0.47445601584475      2.27284255457863      1.02141143985335
  N   -1.53656384723821     -1.08164841862146     -0.02551219498402
  H   -2.42823192714207     -1.24979120433010      0.40316272982214
  H   -1.10103436508326     -1.84827626450869     -0.51474596641151
