11
Coordinates from ORCA-job run
  C   0.45915204058849      0.25417306730237     -0.03057359316761
  C   -0.80208778174918     -0.07888607280876      0.35892259505495
  H   -1.29948664714336      0.56720183941566      1.07463156927861
  C   1.18756960769981     -0.52057447809329     -0.96809843609828
  N   1.67611362420766     -1.24888494690459     -1.75337111608291
  N   1.09075935545377      1.44586448213747      0.51016146462224
  O   2.22398126995611      1.69443122335123      0.10544311989182
  O   0.45807576710695      2.11501816861861      1.32347918390947
  N   -1.47231468783451     -1.16467791219916     -0.05539790207044
  H   -2.43343076372664     -1.29432755164488      0.20161009844186
  H   -1.09033178455910     -1.76833781917467     -0.76680698377972
