11
Coordinates from ORCA-job run
  C   0.48157193179427      0.20939533716215     -0.02623443855988
  C   -0.84801295378201      0.07158197559435      0.23187031464258
  H   -1.37361079314362      0.92229386232334      0.65287808342265
  C   1.25397310924567     -0.84137698788404     -0.58218643930925
  N   1.77265295698136     -1.79157724664781     -1.04472209260012
  N   1.14613897009169      1.46906817616353      0.26135962743310
  O   2.34373620706380      1.52811974911369     -0.00715009535300
  O   0.47547910966866      2.37724848249635      0.74615545855843
  N   -1.55765852188852     -1.04890697321516      0.03061092578023
  H   -1.14198602983352     -1.85030385667201     -0.41805188731521
  H   -2.55328398619778     -1.04554251843438      0.15447054330048
