11
Coordinates from ORCA-job run
  C   0.61665948197227     -0.06849890485282     -0.00164919811118
  C   -0.56546219752206     -0.73748170466402     -0.18645908490371
  H   -0.47889225100256     -1.78855688926198     -0.44807042215988
  C   1.86021186769313     -0.74208177876766     -0.14611712721743
  N   2.85754536583282     -1.35116333954232     -0.27701005555868
  N   0.67694754464328      1.33106780753156      0.34429971517444
  O   1.78382636224899      1.84003727842830      0.48762410461816
  O   -0.39905444665234      1.93107540970813      0.47632165275495
  N   -1.81039502025491     -0.26999878955701     -0.06663090137014
  H   -1.95218345126119      0.70967763408990      0.12387255994984
  H   -2.59020325569743     -0.85507672311209     -0.30718124317636
