11
Coordinates from ORCA-job run
  C   0.57374985705204     -0.06433198447065     -0.22851174709795
  C   -0.70621863692216     -0.54744705269608     -0.31763079201753
  H   -0.86395566763763     -1.34719656806750     -1.03568544499683
  C   1.60823048347101     -0.59679905170544     -1.04540453543732
  N   2.42579307933537     -1.07336245628730     -1.74342775497033
  N   0.94766097728934      0.99410454809712      0.67763262274701
  O   0.05469591555708      1.47656694077812      1.38839888692180
  O   2.12077584839914      1.35280657959330      0.68906635461701
  N   -1.78588040532806     -0.16153724192573      0.36565745190678
  H   -2.67028943291012     -0.60771448062655      0.20373904693457
  H   -1.70356201830602      0.57591076731070      1.04816591139278
