11
Coordinates from ORCA-job run
  C   0.46840952012687      0.22384364478103      0.08485818388026
  C   -0.85819540255085      0.08131125451992     -0.18485056132161
  H   -1.45390730083338      0.98189508249010     -0.29099614068340
  C   1.32773722865832     -0.89141212980073      0.25060753406444
  N   1.92458108793055     -1.89964485566196      0.36464530545861
  N   1.03707289328405      1.55324112497567      0.22780353664309
  O   2.23470152576859      1.60847134821002      0.49715619101216
  O   0.29283792698773      2.51844561753691      0.07308543693974
  N   -1.48527637626573     -1.09181268658428     -0.36055188919159
  H   -1.00322735061069     -1.96385479589585     -0.20669969611726
  H   -2.48373375249546     -1.12048360457085     -0.45505790068442
