11
Coordinates from ORCA-job run
  C   0.61222540632103     -0.06717113379365      0.08149992984927
  C   -0.56564336231929     -0.76048766697192     -0.02490354651405
  H   -0.48997560793316     -1.84101382093722      0.06163064120343
  C   1.84070828513581     -0.75075106531248      0.29154750999488
  N   2.82832675781701     -1.36503293017180      0.46442714942293
  N   0.68152514022596      1.37145813564636     -0.00561019586212
  O   -0.38089554998277      1.98209949386418     -0.18995714179525
  O   1.78181205174134      1.90185455325834      0.10912526096542
  N   -1.79476046959363     -0.28043546252008     -0.22553091168290
  H   -2.57951622782071     -0.90498319011965     -0.26261621778272
  H   -1.93180642359158      0.71546308705794     -0.30061247779888
