11
Coordinates from ORCA-job run
  C   0.47344750836144      0.22836227943688     -0.02978137239608
  C   -0.83063873971757      0.01053971691709      0.29605367798054
  H   -1.33966923267828      0.76589223936601      0.88525748457107
  C   1.22169191583262     -0.69723504332567     -0.79989059045186
  N   1.72271192515021     -1.54677835820741     -1.44268225006703
  N   1.13431044017643      1.44426886170167      0.41172073890020
  O   2.30870623831536      1.57990969952452      0.07664489780966
  O   0.48398306102131      2.24371689151785      1.08082805599348
  N   -1.53478933024741     -1.07838235907931     -0.04440722892213
  H   -1.13178290471753     -1.80120809564534     -0.61989985225288
  H   -2.50797088149657     -1.14908583220630      0.18815643883503
