11
Coordinates from ORCA-job run
  C   0.60967444391478     -0.11700990026567     -0.01344212784585
  C   -0.61142240612399     -0.67972543128899      0.25473368295398
  H   -0.59637254705947     -1.71863418755511      0.57317416279462
  C   1.80498643872293     -0.87397430234450      0.12364680957275
  N   2.76307716268711     -1.54329401748452      0.25327486857669
  N   0.76038774231679      1.25255182254617     -0.44318815243636
  O   1.89603973755808      1.66776896871383     -0.64994755173204
  O   -0.27238926535795      1.92415863010060     -0.57645344647444
  N   -1.81868743108429     -0.11599067486226      0.17496818809951
  H   -1.89801917684099      0.84729766119381     -0.11123593120257
  H   -2.63827469873302     -0.64414856875335      0.41346949769371
