11
Coordinates from ORCA-job run
  C   0.48229593812174      0.20820082595843     -0.01473131250335
  C   -0.83348082637990      0.03282553717443      0.28709496929107
  H   -1.32372886661605      0.79664221615720      0.88163401497794
  C   1.20965395092189     -0.73053337057004     -0.78894010988549
  N   1.69142821817442     -1.58568686443232     -1.43897053993535
  N   1.17913578165945      1.39303547272073      0.45644270198304
  O   2.35866559237434      1.49876432144143      0.12908077428926
  O   0.55040603051923      2.19808065905516      1.13919715968278
  N   -1.56782153436269     -1.03246402009670     -0.06859428439546
  H   -1.18940903484784     -1.73772155508762     -0.68181229902186
  H   -2.55714524956459     -1.04114322232069      0.09859892551743
