11
Coordinates from ORCA-job run
  C   0.60899107389748     -0.11569243913230     -0.03412091711738
  C   -0.62444392126332     -0.60420044506435     -0.37943264099561
  H   -0.62719019878601     -1.54100096195393     -0.92980785417167
  C   1.79286961348340     -0.81864491581791     -0.38771263538352
  N   2.73762983753471     -1.44319749186577     -0.70408331727254
  N   0.78438363490886      1.11788251182872      0.69379395090407
  O   1.92947943589022      1.47469815083326      0.95141013745350
  O   -0.23806173380893      1.74045405815013      1.01349085525642
  N   -1.82561291419302     -0.08698113124853     -0.11073539208556
  H   -1.88639962977555      0.80014054090591      0.36407154573404
  H   -2.65264519788785     -0.52245787663521     -0.47687373232174
