11
Coordinates from ORCA-job run
  C   0.60533508427523     -0.06794217914772      0.12141565628045
  C   -0.57667923798222     -0.75311708122084      0.00801699642259
  H   -0.52124905927275     -1.82616924254017      0.16914869135731
  C   1.81316728869489     -0.74959089669294      0.43343876198481
  N   2.78248144781443     -1.36198147122355      0.69430537612776
  N   0.70159900017901      1.35925895762950     -0.07005135616850
  O   -0.34334724008666      1.96925829771197     -0.33737290951378
  O   1.80629634253691      1.88068599868062      0.04231723893980
  N   -1.79065550649723     -0.27097742400702     -0.26717562843687
  H   -2.57317964477025     -0.89439962482350     -0.34811704977145
  H   -1.90376847489138      0.71497466563365     -0.44392577722213
