11
Coordinates from ORCA-job run
  C   0.47055692334903      0.22307719131482      0.06930646731910
  C   -0.81734571521258      0.03741053291581     -0.33138875484298
  H   -1.28842854097494      0.82911605468282     -0.90486624156536
  C   1.17389537437486     -0.75336784492480      0.81807884847177
  N   1.64182557479721     -1.64548496413307      1.42725295297985
  N   1.16557069799668      1.45214466537067     -0.27263038968165
  O   0.54939662242993      2.30550127196042     -0.90610154471379
  O   2.33515886577011      1.53584404131173      0.09291263464831
  N   -1.54671779886525     -1.05949507934971     -0.08259902784314
  H   -1.17801985441231     -1.81904130949128      0.46755690139395
  H   -2.50389214925274     -1.10670455965741     -0.37752184616604
