11
Coordinates from ORCA-job run
  C   0.61506024612606     -0.08108564461258     -0.03237018181109
  C   -0.57193006699126     -0.73633939639105      0.17061608606404
  H   -0.49963430294285     -1.80608842947662      0.34708000159593
  C   1.84772843692379     -0.78893405412142     -0.00905377367449
  N   2.83712607996187     -1.42365413781571      0.02152799809757
  N   0.69044953681148      1.33808701078391     -0.28225838176633
  O   -0.37591968683405      1.96872917385089     -0.30680519800876
  O   1.79960371576068      1.83294204668350     -0.45489983421996
  N   -1.80654976224117     -0.22957729363867      0.18212381793935
  H   -1.93898481730392      0.75674501257739      0.02146015904607
  H   -2.59594937927063     -0.82882428783966      0.34057930673767
