11
Coordinates from ORCA-job run
  C   0.47023479967947      0.23253462355031      0.02383155074624
  C   -0.87727538273969      0.04990098924228      0.08218427541239
  H   -1.48872171466830      0.88358976986535      0.41064251783635
  C   1.35315346084471     -0.79785304027516     -0.38703729042704
  N   1.96961332771982     -1.73460583796727     -0.74512615976041
  N   1.04279063892602      1.51382355564915      0.40034338103547
  O   2.26611206075229      1.60620570801871      0.33118560624316
  O   0.27652967917619      2.40522455376307      0.75763747486037
  N   -1.51676807062697     -1.07473450936192     -0.27607630458739
  H   -0.99828707364500     -1.90659745033511     -0.51327900920134
  H   -2.49638172541855     -1.17648836214942     -0.08430604215779
