11
Coordinates from ORCA-job run
  C   0.60454497242922     -0.13242333301342     -0.05260649650188
  C   -0.59495077236962     -0.62654681190807      0.39062761221216
  H   -0.56610754864051     -1.61919051754657      0.83130266493274
  C   1.79586179384328     -0.89749243738611      0.07356731204353
  N   2.75019620017452     -1.57214539106884      0.20351741726582
  N   0.73481066349056      1.16884276291750     -0.66240727581223
  O   -0.29447067364907      1.84948904415837     -0.77630876344081
  O   1.85059345607653      1.52207819653679     -1.02992202182524
  N   -1.79615251750399     -0.04617323314186      0.34948633974214
  H   -2.59850264970277     -0.52292272310896      0.71865678436437
  H   -1.88782292414814      0.87648444356117     -0.04591357298059
