11
Coordinates from ORCA-job run
  C   0.61082845147768     -0.10645743271795     -0.03644321265010
  C   -0.60337521355425     -0.71957329849003      0.13353193774630
  H   -0.57729960041625     -1.79850557590549      0.25965333265632
  C   1.81297162390182     -0.86488763169944     -0.04887189335340
  N   2.77603638445675     -1.53950064136413     -0.05491226649333
  N   0.74647785892581      1.31923633996058     -0.21629394598934
  O   -0.29279269040702      1.99377491755185     -0.21973988732617
  O   1.87689447095795      1.77555526165483     -0.35415008959883
  N   -1.81754544967904     -0.16458856623540      0.14907123020191
  H   -2.62616585239193     -0.73165817530596      0.32859750027608
  H   -1.90602998327152      0.83560480255115      0.06055729453057
