11
Coordinates from ORCA-job run
  C   0.60767118765190     -0.09937482512806     -0.08342297275745
  C   -0.59876777347934     -0.73159837757504      0.07279560975217
  H   -0.57163656463945     -1.81771443178399      0.05667694665522
  C   1.80335048141889     -0.84903541229690     -0.25378954789647
  N   2.76116407148324     -1.51714352790831     -0.39124585634731
  N   0.74115555744465      1.33738379634078     -0.08540982801931
  O   -0.29206034062305      2.00520903709775      0.06256401008018
  O   1.86377549848500      1.80974108974678     -0.23261229640703
  N   -1.80469924719413     -0.18525978132017      0.24256732535349
  H   -1.89604048524542      0.81831669870687      0.26641431190579
  H   -2.61291238530230     -0.77152426587971      0.34546229768073
