11
Coordinates from ORCA-job run
  C   0.47573332214913      0.22274732715014      0.03420864859710
  C   -0.87550088495228      0.06202280795278      0.08553565581117
  H   -1.47697686914504      0.91270278080347      0.38862915916648
  C   1.34495693196352     -0.82886741167921     -0.35061366983602
  N   1.94741426117488     -1.78324905706552     -0.68528804998053
  N   1.06387321846670      1.50493776066308      0.38059335397629
  O   0.30820908742884      2.41497669997979      0.71331969515963
  O   2.28844382877939      1.58027900741002      0.31180647113879
  N   -1.52413539631398     -1.07538066091788     -0.20213175206289
  H   -2.52587796638255     -1.11385731227530     -0.17062785489378
  H   -1.02713953316861     -1.89731194202136     -0.50743165707626
