11
Coordinates from ORCA-job run
  C   0.61511355648354     -0.08498694593717      0.01514133874582
  C   -0.58748862833584     -0.74024648205003      0.07774351527824
  H   -0.53510992032123     -1.81873010128494      0.19927558684628
  C   1.83869388818093     -0.80265930648940      0.10673767887516
  N   2.82035028555253     -1.44486905786807      0.18789302089672
  N   0.71678113613644      1.34566872481375     -0.14428626092174
  O   -0.34106838287720      1.98582397767709     -0.22534794529620
  O   1.83851976814144      1.84024772985935     -0.18959667101015
  N   -1.81660567804245     -0.22456807563712      0.00880049348628
  H   -2.61853412720327     -0.82520023754875      0.06866585307056
  H   -1.93165189771491      0.77051977446528     -0.10402660997096
