11
Coordinates from ORCA-job run
  C   0.45662161872680      0.25658903890423     -0.05696356525347
  C   -0.81021570096315     -0.03824444520838      0.34541763779557
  H   -1.34360830927087      0.70514541134596      0.92843706719231
  C   1.22747466696994     -0.64462983246694     -0.83390130668245
  N   1.74947779746542     -1.48207187305542     -1.47567875883049
  N   1.04516431926720      1.53822173295191      0.29157590627203
  O   0.37457766952460      2.31652631242498      0.96543172683563
  O   2.18348171728713      1.74655443896182     -0.12171242045812
  N   -1.44432234662743     -1.19452699999628      0.09967384902488
  H   -2.41048875091904     -1.30336344546341      0.34714713183404
  H   -1.02716268146059     -1.89920033839847     -0.48842726772992
