11
Coordinates from ORCA-job run
  C   0.47316054510442      0.22617790774845      0.04178496720327
  C   -0.87851469949608      0.07414662459803     -0.01712765376732
  H   -1.49455824393759      0.95723324825070      0.11652448513127
  C   1.36185299328001     -0.86705818907517     -0.11552331554823
  N   1.98191604487793     -1.85694751923273     -0.26207790886298
  N   1.04188884947221      1.54202236573467      0.27880369476628
  O   0.26955166789076      2.48772493163317      0.41599868324674
  O   2.26808303616277      1.60653800317917      0.32402170872216
  N   -1.51139586149083     -1.08448890816333     -0.25367072823330
  H   -0.99904600913556     -1.94933107753776     -0.32989308635281
  H   -2.51193832272806     -1.13501738713519     -0.19984084630508
