11
Coordinates from ORCA-job run
  C   0.46230575065093      0.24825391219650      0.04169226002953
  C   -0.87195853078487     -0.00848422643916      0.13040730515434
  H   -1.50134702144617      0.73666869936716      0.60553484212400
  C   1.36638568762173     -0.66448714695034     -0.55741348879428
  N   2.00206026998477     -1.50699210330599     -1.07886741653731
  N   0.99549402265175      1.48877614826908      0.57793088043082
  O   2.20811776756730      1.65434106057617      0.46808933716373
  O   0.20941249336500      2.27745549317503      1.09729829848639
  N   -1.47544859312960     -1.10761651160984     -0.34474453574248
  H   -0.94136628413616     -1.85739934696297     -0.75560015669783
  H   -2.45365556234469     -1.26051597831564     -0.18332732561692
