11
Coordinates from ORCA-job run
  C   0.45714969025186      0.25246772005588     -0.06326945638704
  C   -0.82500465162558     -0.01039278576838      0.31171748665791
  H   -1.34370236667284      0.73633919897627      0.90377616645686
  C   1.21967720519194     -0.66305529897277     -0.83146283699844
  N   1.73719890902439     -1.50919396252667     -1.46551499865358
  N   1.08474224362049      1.50044578654479      0.33599539983235
  O   2.24721831481845      1.66698054764418     -0.02558064075367
  O   0.42062650298199      2.29342489449770      0.99911787240116
  N   -1.51017475414216     -1.11548135598003     -0.01786146413262
  H   -2.42124274425525     -1.28067703020090      0.36846243187138
  H   -1.06548834919330     -1.87185771427007     -0.51437996029433
