11
Coordinates from ORCA-job run
  C   0.61038110351693     -0.05693170432763      0.09941254554295
  C   -0.56863864754280     -0.75594777256284      0.07176665323633
  H   -0.49842842376176     -1.81527432407801      0.30312424458878
  C   1.83375562763475     -0.70869411207086      0.41456190895799
  N   2.81714510783185     -1.29566956584856      0.68104986566458
  N   0.68674473908531      1.35624714919862     -0.18272467718453
  O   1.78900738462854      1.89264653531428     -0.13525138485158
  O   -0.37151503459076      1.94013361890156     -0.45557694104784
  N   -1.79278487095101     -0.30462250052594     -0.21007373772074
  H   -1.92491767024284      0.67333138521950     -0.41597402499984
  H   -2.57974931560821     -0.92621870922013     -0.17031445218609
