11
Coordinates from ORCA-job run
  C   0.61366628531573     -0.09572990671828      0.01060485075179
  C   -0.59901606198044     -0.71879566502538      0.15562717857057
  H   -0.56393381816720     -1.78779642404713      0.34706181721318
  C   1.82457221017154     -0.83533327476961      0.09919682253534
  N   2.79521264994436     -1.49410909129802      0.17966954673318
  N   0.73831850072118      1.31701094986379     -0.25684257370915
  O   -0.30877247615319      1.97299150686896     -0.34993557597332
  O   1.86731440779659      1.78196987659255     -0.37410185416030
  N   -1.81895768563676     -0.17890143277622      0.10769625940810
  H   -2.63156634234681     -0.76317962388384      0.18244107799378
  H   -1.91683766966502      0.80187308519319     -0.10341754936317
