11
Coordinates from ORCA-job run
  C   0.48283532965794      0.20617684566607      0.03044959070084
  C   -0.87335352735975      0.09738617507720      0.07703913237307
  H   -1.43975128140998      0.95733615527431      0.41904124988000
  C   1.30960952346956     -0.86448601832508     -0.39377229274750
  N   1.87258730539682     -1.82964039779614     -0.76434999624984
  N   1.12236323915387      1.44633244066503      0.43535662450137
  O   2.34956357954543      1.47140540209395      0.37866044087429
  O   0.40352170609440      2.37268024913312      0.80223148355037
  N   -1.57035127205820     -0.98576004250850     -0.29937534390332
  H   -1.09811776734672     -1.83939951621796     -0.55384469734418
  H   -2.55890683514337     -1.03103129306200     -0.13343619163509
