11
Coordinates from ORCA-job run
  C   0.60923430971559     -0.06931573939923      0.09767372312930
  C   -0.58036060490943     -0.74876266047015      0.04637579251484
  H   -0.52575945243107     -1.81760346777812      0.23396479284258
  C   1.82365293071970     -0.75129833895563      0.38149490897928
  N   2.79850443070698     -1.36471917953729      0.61841919334098
  N   0.70587653606679      1.35308782045376     -0.12610507820793
  O   1.81479221963560      1.87218481634503     -0.05068645802648
  O   -0.34286843395607      1.96143558948894     -0.38164473696573
  N   -1.79996255684120     -0.26629558202478     -0.20137286150776
  H   -2.59087896585569     -0.88387859610716     -0.22128233437123
  H   -1.91423041285121      0.71616533798462     -0.39683694172783
