11
Coordinates from ORCA-job run
  C   0.60248537598701     -0.13781232761114     -0.04124649725580
  C   -0.61801977147489     -0.65204010675517      0.31109615656218
  H   -0.61408727220011     -1.67370451062546      0.68146370267771
  C   1.78480814702164     -0.91826297365640      0.07587844785927
  N   2.73856947230503     -1.59565959138086      0.19870581024744
  N   0.76699353824046      1.20332179944132     -0.54836330715780
  O   1.89935571691203      1.56956649203228     -0.84593868340661
  O   -0.24989644695838      1.90418870486202     -0.64502218741618
  N   -1.81560175860622     -0.06539673815209      0.24071527714329
  H   -1.87333877039251      0.90137868795076     -0.03903321891671
  H   -2.62126823083408     -0.53557943610526      0.61274449966321
