11
Coordinates from ORCA-job run
  C   0.60299059313227     -0.14300914850250     -0.06264486702322
  C   -0.61602213653290     -0.66636823332196      0.28311557500536
  H   -0.60962636216446     -1.69538109291920      0.63265185833990
  C   1.79361406723161     -0.90707175461298      0.06861527463483
  N   2.74935636736799     -1.57849402935885      0.20230034815421
  N   0.76097813606381      1.22060324780051     -0.51235607361186
  O   1.89305562800934      1.60975010733120     -0.78231617290379
  O   -0.26274558399873      1.91130344817156     -0.61106334310831
  N   -1.81703558131373     -0.08569342947364      0.21462091226806
  H   -1.87815357251619      0.88935862784877     -0.03409889776231
  H   -2.61541155527902     -0.55599774296294      0.60117538600712
