18
Coordinates from ORCA-job run
  C   -0.60855073102010      0.08253408814712      0.38144017349275
  C   0.69920272944984     -0.67504354279043      0.09014478248781
  Br  -0.90560570848929      0.04852013585814      2.32671596182406
  H   0.59690892628346     -1.70863777085442      0.42391189259236
  C   -1.75275382234194     -0.68457695607501     -0.26969746388998
  H   -2.70417865102526     -0.20462748698628     -0.03410227635237
  H   -1.60902095635649     -0.69391531148375     -1.35146220953013
  H   -1.79096335400176     -1.71511445094335      0.08971457104659
  C   -0.59843938137439      1.53541865400456     -0.06886386112863
  H   -1.55873195689827      1.99313946311176      0.17445924515252
  H   -0.47058876988375      1.58315232203089     -1.15426647382480
  H   0.19307296286573      2.10929260149061      0.41001694981863
  N   1.85413581532698     -0.13823061900723      0.93118828566308
  O   2.31943010034789      0.95010303398720      0.59234819236193
  O   2.26108417509410     -0.83807144168829      1.85310652925385
  N   1.00604015768765     -0.62437995482991     -1.30449307584903
  H   1.35829372799419      0.29343869565901     -1.54944466256629
  H   1.70966473634142     -1.31300145963062     -1.54071656055235
