18
Coordinates from ORCA-job run
  C   -0.52037667210919      0.18872388778994     -0.20826595233057
  C   0.86809344773406     -0.40716050740764      0.12815889052693
  Br  -0.65331559303695      0.51929695035898     -2.14543388786569
  H   0.84575358340999     -0.65578390850921      1.19243302648350
  C   -0.77830919076901      1.50421906722314      0.51054483108949
  H   -0.64562995804021      1.36785856996260      1.58821359544419
  H   -1.80099563928064      1.83457959765488      0.32034812663494
  H   -0.09874635672584      2.29007812566694      0.18174817893672
  C   -1.58063841444990     -0.84605040493446      0.14608812740042
  H   -1.54947600389888     -1.04688526031205      1.22260950788380
  H   -1.42701260002728     -1.78066520883033     -0.39469860438537
  H   -2.57326371209399     -0.46940603716312     -0.10483702233784
  N   1.91195066107213      0.68001055315862      0.03441762283503
  O   2.14739005460441      1.31149410489848      1.06408348195999
  O   2.42171659671994      0.87089250261782     -1.06362094094406
  N   1.33464714627838     -1.53341999622322     -0.60987074819275
  H   1.15805403203565     -1.43279892105810     -1.60068323782805
  H   0.94115861857734     -2.39498311489325     -0.26223499531069
