18
Coordinates from ORCA-job run
  C   -0.61510139022002      0.08095944835973      0.37129769984441
  C   0.70574082320416     -0.66468345867647      0.10905369372862
  Br  -0.93991018237475      0.07210093107618      2.31233274526549
  H   0.60973587384724     -1.69589013128331      0.45202597424058
  C   -1.74059545876956     -0.70954377277048     -0.28431953338435
  H   -1.77590734307138     -1.73320363428953      0.09443594312360
  H   -2.70040456341359     -0.23407130905170     -0.07502137379304
  H   -1.57780219914230     -0.73808626221697     -1.36310242127770
  C   -0.61522485602017      1.52699731447584     -0.10095523628932
  H   -1.58307062798819      1.97812963049191      0.12391995726847
  H   -0.47465281728614      1.55874304654623     -1.18531900231181
  H   0.16441758865428      2.11615196713546      0.37886783724554
  N   1.84094472657833     -0.10565546521686      0.96182838800572
  O   2.29963815386020      0.98392671713431      0.61807358033445
  O   2.24035076415771     -0.79005686666598      1.89853904695075
  N   1.03392814194628     -0.62619339015280     -1.28110118304806
  H   1.74632969808083     -1.31157682177639     -1.49942256380708
  H   1.38158366795707      0.29195205688084     -1.53113355209628
