16
Coordinates from ORCA-job run
  C   0.66358181971173      0.00256228652825      0.25756551023607
  C   -0.83988365094199     -0.04260150422688     -0.10588820846826
  F   1.16071617661527     -1.28986272003806      0.13755234562800
  H   -1.24162299042008      0.97116329222357     -0.09144783297629
  C   0.87248695394995      0.44601669353617      1.64414283774164
  N   1.07132069870109      0.83629124722739      2.73401160577613
  C   1.43008852551960      0.89396584808510     -0.70049546948552
  H   2.49259851532539      0.85226709637467     -0.45864607546664
  H   1.09014887252867      1.92842595810917     -0.62421114122215
  H   1.29023986051967      0.53425985946408     -1.72040276800981
  N   -1.55789714274013     -0.76826422400758      1.00930376117150
  O   -2.07062580538835     -0.06986778921444      1.88046795454819
  O   -1.53863440789677     -1.99264911040923      0.96486684686482
  N   -1.14471517500623     -0.69338054485991     -1.33273403390079
  H   -0.59525234326374     -1.53081708138003     -1.46542273104868
  H   -1.08154990721409     -0.07650930741230     -2.12766260138822
