16
Coordinates from ORCA-job run
  C   0.69976707268625      0.08728533217306      0.53509194200670
  C   -0.83245284811083      0.05770796310165      0.37800505378498
  F   1.03517169366649     -0.88916931501383      1.46423464884518
  H   -1.28425683565774      0.29726220616396      1.34194874567680
  C   1.04153406100824      1.39823386011517      1.11212818626691
  N   1.32432442917837      2.43201510790661      1.59185072309353
  C   1.48566184959027     -0.16875703520215     -0.73416425020133
  H   1.29282988108301      0.60684126237676     -1.47520678272178
  H   2.54815950443611     -0.15822306976519     -0.48942310442650
  H   1.22201314694212     -1.14406913615869     -1.14181678465925
  N   -1.23744169620182     -1.39074731511093      0.12220651814269
  O   -1.15606891803741     -1.77944639664992     -1.04302085311628
  O   -1.59513995492838     -2.05582662067589      1.08701383374224
  N   -1.24962634509559      0.95862467664506     -0.63415442594994
  H   -2.23576398774211      1.17068052227243     -0.56057572127702
  H   -1.05871105281698      0.57758795782187     -1.55311772920694
