16
Coordinates from ORCA-job run
  C   0.68637574181195     -0.01482402728102      0.30403639400666
  C   -0.75181781988119      0.09004116397839     -0.22972671606168
  F   0.93222538836086     -1.36533031763991      0.53677663929332
  H   -0.99146341666821      1.13462980731588     -0.43546447070600
  C   0.85101711766808      0.69777189950638      1.58145439535634
  N   1.05421057362240      1.28332210310933      2.57875815710428
  C   1.69113185093584      0.49178250890471     -0.71188096025981
  H   2.69836205768191      0.33176457287333     -0.32520433269488
  H   1.54624367041416      1.55876371988683     -0.89123107767229
  H   1.55741573343979     -0.05466017333645     -1.64374362514506
  N   -1.70311069643130     -0.29348245869216      0.91268292878188
  O   -2.03619502926675     -1.47207436385468      0.98691211446525
  O   -2.04580517499009      0.61460052422371      1.66491140444602
  N   -0.89664729212257     -0.72160460690014     -1.37946871167700
  H   -0.79566955920840     -1.69777457863305     -1.13023474355808
  H   -1.79727314536650     -0.58292577346116     -1.81757739567894
