13

C	-0.385451	-0.152519	-1.465614
C	0.0	0.0	0.0
Cl	-0.043809	1.289237	-2.428019
H	1.092263	0.0	0.0
H	0.139864	-0.995703	-1.911797
H	-0.338631	-0.917495	0.498523
N	-1.848337	-0.480714	-1.575017
O	-2.670466	0.428187	-1.460884
O	-2.125668	-1.677745	-1.669421
N	-0.490829	1.178058	0.682696
H	-1.40292	1.457938	0.343631
H	0.16207	1.93286	0.514631
H	2.875064	0.0	0.0
