13

C	-0.592722	-0.004877	-1.394081
C	0.0	0.0	0.0
Cl	-0.055001	-1.377238	-2.361069
H	1.098365	0.0	0.0
H	-1.681036	-0.040056	-1.349626
H	-0.361844	0.911458	0.483429
N	-0.282899	1.304693	-2.094097
O	-0.865248	2.268927	-1.597042
O	0.472264	1.346181	-3.051642
N	-0.537293	-1.176625	0.70934
H	-0.536484	-0.953457	1.698162
H	0.162028	-1.90676	0.604298
H	2.962655	0.0	0.0
