15
Coordinates from ORCA-job run
  C   0.80262672356775     -0.08389890941183     -0.04859812052052
  C   -0.50392248985190     -0.58489291673369      0.57501214600838
  F   1.81489629073988     -0.78451182227063      0.54224386565049
  H   -0.38764895213994     -0.58378094239842      1.65893944956227
  N   1.03992498225064      1.36559472679770      0.48618193189724
  O   1.75096898447733      2.07929862138059     -0.20812609565983
  O   0.54573570880482      1.64649291282606      1.57341731101251
  N   0.88872427587066     -0.21035890745121     -1.42509247485281
  H   0.11481144993058      0.24577125898481     -1.88889775826304
  H   1.77316459146109      0.14251502227594     -1.76902273995180
  C   -0.84445957355770     -1.91598353856068      0.09247314585642
  N   -1.13599268200967     -2.99269591506003     -0.27437747378973
  N   -1.66785845975151      0.34334881005934      0.29807778409949
  O   -2.58493061338981      0.29662268453434      1.10224710847581
  O   -1.60504023640223      1.03747891502772     -0.71247807952487
