15
Coordinates from ORCA-job run
  C   0.75674850563985     -0.25697707257014     -0.12906683801112
  C   -0.59386915819477     -0.53024478915317      0.53971380901708
  F   1.60506401931787     -1.24599289641875      0.28112428970872
  H   -0.42105025882120     -0.71426790305097      1.60025863903758
  N   1.36063057404880      1.00816295882454      0.55629762801632
  O   2.16963485550585      1.64160893443314     -0.10801648350668
  O   1.02314829223954      1.22659485111196      1.71559286600738
  N   0.73214039472342     -0.20727172693457     -1.51317387468145
  H   0.05815572441918      0.46860995327720     -1.84696653392596
  H   1.65235808235280     -0.01019929691352     -1.88710453810984
  C   -1.27176834637625     -1.66262693049462     -0.07638371439858
  N   -1.83878680779013     -2.57450707118252     -0.55173989554293
  N   -1.51590674622993      0.67007365478135      0.48794088716082
  O   -2.36262752517145      0.72465580646513      1.36551999308526
  O   -1.35487160566359      1.46338152782496     -0.43499623385663
