18

C	0.0	0.0	0.0
C	-0.370941	0.115909	-1.509135
Br	1.966032	0.0	0.0
H	0.37061	0.779752	-1.967033
C	-0.462698	1.242954	0.746661
H	-0.06506	1.228176	1.764442
H	-0.127593	2.15197	0.243822
H	-1.554801	1.248096	0.78371
C	-0.533707	-1.258709	0.65466
H	-0.245197	-1.282518	1.708573
H	-0.161849	-2.161749	0.16822
H	-1.628645	-1.234653	0.593626
N	-1.667824	0.726379	-1.703256
H	-1.932135	0.673382	-2.679365
H	-2.427749	0.309224	-1.154072
C	-0.190976	-1.19791	-2.177301
N	-0.074121	-2.208828	-2.76651
Cl	-4.246412	0.0	0.0
