18

C	0.0	0.0	0.0
C	-0.519343	0.147975	-1.448227
Br	1.969929	0.0	0.0
H	-1.61256	0.231209	-1.325177
C	-0.46105	1.17922	0.842221
H	-1.555845	1.172131	0.843697
H	-0.09665	2.125617	0.437551
H	-0.097613	1.076775	1.867521
C	-0.475883	-1.311978	0.598749
H	-1.570889	-1.308737	0.568628
H	-0.085828	-2.172802	0.052654
H	-0.145253	-1.389704	1.636915
N	-0.25502	-0.952664	-2.36311
H	-0.884073	-1.713397	-2.141199
H	0.701478	-1.270388	-2.248315
C	-0.039318	1.398915	-2.054894
N	0.347497	2.395035	-2.541931
Cl	-3.774637	0.0	0.0
