18

C	0.0	0.0	0.0
C	-0.525331	0.075233	-1.438199
Br	1.974387	0.0	0.0
H	-1.620576	0.058252	-1.305967
C	-0.463212	1.210811	0.792986
H	-1.558369	1.210451	0.784954
H	-0.08984	2.142815	0.363459
H	-0.111593	1.138169	1.824746
C	-0.466606	-1.292388	0.647629
H	-1.561271	-1.275148	0.654462
H	-0.117737	-2.157031	0.085249
H	-0.098476	-1.347689	1.674902
N	-0.135446	-1.080904	-2.23775
H	-0.754859	-1.151612	-3.035164
H	0.810746	-0.956777	-2.577212
C	-0.166692	1.352387	-2.084589
N	0.107267	2.336896	-2.665812
Cl	-3.799546	0.0	0.0
