18

C	0.0	0.0	0.0
C	-0.348438	-0.012045	-1.530904
Br	1.969209	0.0	0.0
H	0.281861	0.763604	-1.983413
C	-0.505923	1.285487	0.628384
H	-0.170588	2.160738	0.064247
H	-0.143022	1.376712	1.654657
H	-1.600696	1.254054	0.645066
C	-0.521525	-1.217634	0.73738
H	-0.14448	-2.14469	0.301715
H	-1.617088	-1.205676	0.68585
H	-0.228028	-1.178094	1.789119
N	-1.709649	0.258923	-1.926959
H	-2.404958	-0.292267	-1.422268
H	-1.944994	1.21925	-1.710143
C	0.078107	-1.291965	-2.127988
N	0.396617	-2.321007	-2.594739
Cl	-4.22174	0.0	0.0
