17

C	-0.404793	-0.094257	-1.455865
C	0.0	0.0	0.0
Br	-2.379286	-0.271196	-1.682911
H	1.09403	0.0	0.0
N	-0.034471	1.210069	-2.156699
O	0.820714	1.151485	-3.037019
O	-0.599014	2.233283	-1.779759
C	0.285748	-1.255661	-2.117566
H	0.076875	-1.284691	-3.186736
H	1.360842	-1.136085	-1.936837
H	-0.055953	-2.167965	-1.634069
N	-0.304088	-1.255833	0.684573
H	-1.119733	-1.160861	1.276406
H	0.507898	-1.472555	1.259558
C	-0.497197	1.158921	0.728028
N	-0.85856	2.027402	1.43527
H	2.600323	0.0	0.0
