17

C	-0.632066	-0.03627	-1.384629
C	0.0	0.0	0.0
Br	0.134987	1.383654	-2.498604
H	1.09127	0.0	0.0
N	-0.237652	-1.345056	-2.060702
O	-0.978186	-1.742777	-2.961168
O	0.791288	-1.891093	-1.693725
C	-2.137969	0.082624	-1.392252
H	-2.528734	0.032169	-2.406217
H	-2.422391	1.031499	-0.936218
H	-2.544577	-0.744329	-0.804819
N	-0.400421	-1.215024	0.726439
H	-0.928644	-0.982491	1.55686
H	0.472853	-1.653545	1.016788
C	-0.426872	1.20954	0.689021
N	-0.793102	2.157984	1.282058
H	2.641787	0.0	0.0
