17

C	-0.616628	-0.02501	-1.393968
C	0.0	0.0	0.0
Br	0.161738	1.412655	-2.477313
H	1.091858	0.0	0.0
N	-0.209411	-1.322712	-2.08409
O	0.804292	-1.882791	-1.69557
O	-0.922846	-1.697214	-3.015917
C	-2.123442	0.088646	-1.419655
H	-2.418619	1.029753	-0.954318
H	-2.499353	0.051163	-2.440279
H	-2.535283	-0.748142	-0.849775
N	-0.406282	-1.22012	0.713214
H	-0.948264	-0.994736	1.537436
H	0.464096	-1.659506	1.010959
C	-0.433125	1.204181	0.694088
N	-0.789483	2.148295	1.300083
H	2.642878	0.0	0.0
