17

C	-0.63443	-0.024673	-1.386186
C	0.0	0.0	0.0
Br	0.15935	1.385346	-2.495076
H	1.091872	0.0	0.0
N	-0.25802	-1.338016	-2.062782
O	0.805127	-1.851941	-1.750363
O	-1.043131	-1.770207	-2.908704
C	-2.138156	0.122144	-1.393413
H	-2.562343	-0.700166	-0.811979
H	-2.529638	0.083418	-2.408015
H	-2.405437	1.073631	-0.933227
N	-0.39314	-1.224581	0.711311
H	-0.961038	-1.011634	1.520984
H	0.480552	-1.642445	1.03052
C	-0.426131	1.202903	0.701271
N	-0.782371	2.148982	1.304265
H	2.637873	0.0	0.0
