14
Coordinates from ORCA-job run
  C   -0.78356138126645      0.27614244874788      0.45971477509264
  C   0.70555933901974      0.59222951723691      0.39368843362746
  Br  -1.74606950469072      1.64558680533642      1.44128437873721
  H   0.80257192299349      1.59814657077264     -0.02038316696155
  H   1.07616748177873      0.61444508575701      1.42190159180287
  N   -1.32094625329846      0.26880780144052     -0.98104703136086
  O   -1.80831105698300     -0.77783378305320     -1.38884889701757
  O   -1.15999314628035      1.30340880973608     -1.60941167456884
  C   -1.05208940996064     -1.01637730630111      1.07244462626199
  N   -1.21704229995666     -2.03918506935795      1.62829023670565
  C   1.47088476117792     -0.42734124513170     -0.44498642410101
  H   1.15685524420063     -0.40394325858293     -1.49050803287361
  H   1.34057317623373     -1.44285765464095     -0.06530022376100
  H   2.53640112703203     -0.19222872195962     -0.41683859158338
