14
Coordinates from ORCA-job run
  C   -0.72251795736027      0.15721641950165      0.21246506180271
  C   0.61644233668149      0.24935176408118     -0.50767742639460
  Br  -0.84020349089978      1.42674073196144      1.68382362817676
  H   0.73555813614742      1.28191369688164     -0.83990650787225
  H   0.52597542721074     -0.37654677216602     -1.40379045251608
  N   -1.84863634814173      0.53761850000074     -0.76539501428954
  O   -2.85132376425774     -0.16356114683143     -0.76072595884654
  O   -1.63761624332952      1.52180170633671     -1.45839732954775
  C   -0.98105142375925     -1.18007861466661      0.72417356350572
  N   -1.09876770586248     -2.27508573590316      1.13595729130417
  C   1.79541360195769     -0.20956641120917      0.34062924857857
  H   1.90924811431471      0.40972437375831      1.23111623898679
  H   2.71348777127498     -0.12954235170869     -0.24433891975055
  H   1.68499154602375     -1.24998616003661      0.65206657686259
