14
Coordinates from ORCA-job run
  C   -0.80897444730326      0.27732622872627      0.41414720384766
  C   0.68191426230094      0.59070475408646      0.43485116883668
  Br  -1.82432091285725      1.64644028875924      1.34242017723884
  H   0.80460163051243      1.59683090226728      0.02827487060977
  H   0.99227098594868      0.61113173028086      1.48284652304546
  N   -1.26647483255228      0.27501827018959     -1.05412134176952
  O   -1.05189407477067      1.30474268200782     -1.67442899021610
  O   -1.75432274732460     -0.76206432014849     -1.48453906974247
  C   -1.11280537760850     -1.01601304205539      1.00790038780054
  N   -1.28783071731622     -2.05029791515744      1.53886172166905
  C   1.49316106264863     -0.42946244470608     -0.35875204463804
  H   2.55512699386814     -0.19182638194404     -0.27416529321481
  H   1.23584234983248     -0.40942498057668     -1.41971239198886
  H   1.34470582462148     -1.44410577172938      0.01641707852179
