14
Coordinates from ORCA-job run
  C   -0.74219254504514      0.03426428395358      0.20107016987716
  C   0.64249548589634      0.46652275647548     -0.26310620174168
  Br  -1.01983356006280      0.40868932114935      2.09119743902848
  H   0.64371572132556      0.36997786801184     -1.35562425113918
  H   0.74638757380040      1.52703963890200     -0.02792203118156
  N   -1.80446348181685      0.85320540967745     -0.55444020689598
  O   -1.58284878303187      2.05144066913115     -0.64469612321510
  O   -2.77248182423904      0.24416250483029     -0.98939814873063
  C   -0.98699024139986     -1.38007121899407     -0.03730542614995
  N   -1.09263249278443     -2.53506654000895     -0.23042303188193
  C   1.77122634332021     -0.35831284831648      0.34173866261609
  H   1.67757428931383     -1.41536641334193      0.08560623512355
  H   1.79409341242402     -0.26458642237932      1.42810293368343
  H   2.72695010229963     -0.00189900909040     -0.04680001939270
