14
Coordinates from ORCA-job run
  C   -0.81956429638748      0.11889353345924      0.46673457399443
  C   0.60970858544954      0.64671456813011      0.46195255131306
  Br  -1.97604873026271      1.24057691169880      1.54889887599464
  H   0.96496180333341      0.62466779216659      1.49553713019837
  H   0.56575912295727      1.69055321107512      0.14391780147399
  N   -1.34153116442114      0.17067525956408     -0.97897844853305
  O   -1.31254312338884      1.26968166950029     -1.51043547808678
  O   -1.68880000454691     -0.88885625193954     -1.48462919831377
  C   -0.90440975515334     -1.24999392078442      0.95328617706769
  N   -0.90322592123189     -2.33914996175968      1.39607312668496
  C   1.51968188108357     -0.17144817302721     -0.44990104192351
  H   1.53429791470787     -1.22578476546980     -0.16616895765472
  H   2.53992720376131      0.20991326556341     -0.37917916453427
  H   1.21278648409935     -0.09644313817699     -1.49510794768103
