14
Coordinates from ORCA-job run
  C   -0.74379695823108      0.02824483335083      0.19521383252093
  C   0.64409076767693      0.47424477082820     -0.24585640229684
  Br  -1.03983414000103      0.35775107959612      2.09090268044065
  H   0.74367402987290      1.52900366307436      0.01554823547860
  H   0.65535099971011      0.40382474178341     -1.34031357706736
  N   -1.80119196742070      0.86250180942756     -0.55055992012781
  O   -2.76481923964396      0.26217868403511     -1.00685495247465
  O   -1.58077199465318      2.06278197992448     -0.61208544782030
  C   -0.98321484176270     -1.38059979278284     -0.07854139078436
  N   -1.08615632638795     -2.53070876282147     -0.30026260368545
  C   1.76889575272959     -0.36286849705758      0.34939564000145
  H   2.72751818247411      0.00519490740991     -0.02072271502012
  H   1.68029630428249     -1.41343590822869      0.06620064024575
  H   1.78095943135447     -0.29611350853941      1.43793598058953
