14
Coordinates from ORCA-job run
  C   -0.75370211247644      0.00977581576492      0.47722337114937
  C   0.70462874543782     -0.44458525800891      0.35966944133719
  Br  -0.93887176203257      1.59292911354756      1.56871966597173
  H   0.68349077296006     -1.42443272735048     -0.12703209475162
  H   1.07474046034705     -0.58779860187214      1.37806093556624
  N   -1.24007462097058      0.28548982137921     -0.96241463141880
  O   -1.38884148512217     -0.73492141415320     -1.62424379853773
  O   -1.34676545811440      1.43794934634908     -1.34218954835846
  C   -1.59915184942767     -1.03745357639965      1.03283870090590
  N   -2.25802798416954     -1.88227331546476      1.51694475161554
  C   1.58868840158658      0.51985358808586     -0.42035183198053
  H   1.29839938068611      0.56797615561110     -1.47163440030521
  H   2.62247842935510      0.17200981388198     -0.37989253910869
  H   1.55300908194064      1.52748123862944     -0.00469802208494
