14
Coordinates from ORCA-job run
  C   -0.78027892997283      0.02757361540077      0.43530940714979
  C   0.69467592237276     -0.38691701755971      0.43543439591702
  Br  -1.07165754190743      1.69058196479301      1.37353672422146
  H   1.01185255948148     -0.42818732864938      1.48054930578223
  H   0.72791528302903     -1.40569073023459      0.03747173937484
  N   -1.19300254985619      0.16364166553739     -1.04707484896991
  O   -1.27366346696865     -0.91332389641150     -1.62568071523771
  O   -1.31603552442492      1.27550368034233     -1.52906641649773
  C   -1.62374455354886     -0.99785139283726      1.03278253161623
  N   -2.26490878117308     -1.83950993227884      1.54526135958462
  C   1.59240073409836      0.53436441584193     -0.38027077736133
  H   2.63164315240067      0.22442242007926     -0.25658341133936
  H   1.35791490676852      0.48182408920454     -1.44520457962937
  H   1.50688878970117      1.57256844677205     -0.05746471461079
