14
Coordinates from ORCA-job run
  C   -0.75605297316074     -0.03816714928402      0.13814331467849
  C   0.62146827039799      0.53371925500340     -0.17054773433268
  Br  -1.21258183874667      0.15441639918146      2.02085438167717
  H   0.71782072322322      0.52983245815952     -1.26304757283507
  H   0.61917257909706      1.57552897994187      0.15417936962684
  N   -1.81805021494705      0.75927731995109     -0.63912650020425
  O   -2.69747874075573      0.11884203259452     -1.19924731543169
  O   -1.68766054271776      1.97405810695711     -0.61788910344383
  C   -0.86490025967769     -1.44194465700947     -0.22911566209093
  N   -0.86016872931585     -2.58163127263049     -0.51814089863603
  C   1.76154178578761     -0.25240889423039      0.46386651718568
  H   1.69094903114994     -0.24673438746985      1.55219762995123
  H   1.77352264997228     -1.28888468597637      0.12137456096501
  H   2.71341825969339      0.20409649481163      0.18649901289007
