14
Coordinates from ORCA-job run
  C   -0.79049509275591      0.27207188583244      0.45120687748375
  C   0.70229761816828      0.57507550821283      0.42222803000738
  Br  -1.75814087393259      1.62743840528445      1.44962071317213
  H   1.05201092262541      0.56557632566646      1.45792377438340
  H   0.81723666351790      1.59090251996442      0.03802243498738
  N   -1.30317017888556      0.30603740680066     -0.99765895375073
  O   -1.11520989711186      1.35195485369507     -1.59919063493442
  O   -1.80054152420747     -0.72296391640338     -1.43703717164229
  C   -1.08233435364419     -1.03165242236919      1.02811912158785
  N   -1.24788637003581     -2.07394410566758      1.54621693087787
  C   1.47492738186745     -0.42883904473550     -0.42845783712399
  H   1.32933094842293     -1.45266830026666     -0.07779173891670
  H   1.18042786672001     -0.37550919678467     -1.47857395201305
  H   2.54154688925139     -0.20347991922935     -0.37462759411858
