12
Coordinates from ORCA-job run
  C   0.79049810288352      0.43503808695990      0.12444318130741
  C   -0.41059044232506     -0.22603989685126     -0.06478777912713
  C   2.00106252323864     -0.30645572788418      0.14929378412502
  N   2.96214929041729     -0.98659854894350      0.16556518917749
  C   0.79360414125240      1.84516687106379      0.28999537736395
  N   0.71797879462062      3.01376267730605      0.41277604941592
  N   -0.50755442881451     -1.58729274504580     -0.03608975159007
  H   0.36358693494909     -2.09262422839342      0.02696453283431
  H   -1.17824234658026     -1.99319537142786     -0.67004430713484
  N   -1.58174096128942      0.43733730853861     -0.29229229724062
  H   -2.40739382566565      0.01934071575721      0.10767980511855
  H   -1.54435778268668      1.44256085892048     -0.21250378425004
