12
Coordinates from ORCA-job run
  C   0.80372403005994      0.40202718848561      0.14944901662006
  C   -0.41706655719311     -0.20885997526087     -0.07812990841463
  C   1.28438039878972      0.52870665913843      1.47936748100784
  N   1.61270961551374      0.60455034583082      2.60765401478330
  C   1.55604207746841      0.89413568757885     -0.94953034009584
  N   2.12980398229713      1.26653848605998     -1.90816974008360
  N   -1.27396135400912     -0.52872781559449      0.93516070759343
  H   -1.80483365146246     -1.37653578876528      0.80996970711145
  H   -0.92553647324659     -0.38982121855030      1.87194543764097
  N   -0.84900219678891     -0.53519489944797     -1.33142273972141
  H   -0.27473009783946     -0.21232114568624     -2.09579162065703
  H   -1.84052977358929     -0.44449752378854     -1.49050201578453
