12
Coordinates from ORCA-job run
  C   0.77038755066291      0.43730237578463      0.21234283831688
  C   -0.40016848202644     -0.22672919570886     -0.11029643943702
  C   0.74234425391436      1.84007827894145      0.42929908895195
  N   0.64293181585490      3.00253471015491      0.58813290888932
  C   1.98254782961067     -0.29434023993020      0.32004073633200
  N   2.94561705438627     -0.96712767488629      0.39930560302997
  N   -1.55417452291750      0.43399227049722     -0.41845717661636
  H   -1.53871073349006      1.43533011140443     -0.29560810955374
  H   -2.40739827869312     -0.00867824950226     -0.11419006876978
  N   -0.48232961783258     -1.58927745315037     -0.14098330679891
  H   -1.08648736916964     -1.97604932214940     -0.84942522473650
  H   0.38644049970022     -2.08803561145525     -0.01916084960781
