12
Coordinates from ORCA-job run
  C   0.78935684543171      0.39589621716756      0.22458571890747
  C   -0.40930456065553     -0.20572724120999     -0.11743089181618
  C   0.82448299927833      1.79392224327711      0.46914751256563
  N   0.77558053493874      2.95630928301581      0.65037153068511
  C   1.96509788136144     -0.39395627126986      0.32313898411455
  N   2.89498147663998     -1.11276850949008      0.39447841329332
  N   -1.52932011064316      0.51476704782945     -0.41706798606431
  H   -2.40402407775301      0.10903742669116     -0.12314599834743
  H   -1.46517616502265      1.51186194211282     -0.27631593861710
  N   -0.55543978564521     -1.56187098980083     -0.17593151891475
  H   0.28783523558114     -2.10366160303959     -0.05998058094055
  H   -1.17407027351178     -1.90580954528356     -0.89384924486577
