12
Coordinates from ORCA-job run
  C   0.82946554469342      0.34139353962149      0.16033649554074
  C   -0.42989580953023     -0.17835139548244     -0.08300666320314
  C   1.62982287218762      0.77413161252596     -0.92961769781666
  N   2.23161608922618      1.11882381271046     -1.88117470425936
  C   1.30033525060886      0.43648337487967      1.49652737038744
  N   1.62542064624704      0.47689361754684      2.62748273748634
  N   -1.01999227856781     -0.11807561554343     -1.31271297547942
  H   -1.59022286207402     -0.91049332587759     -1.56469252394315
  H   -0.44555998066417      0.23573582106195     -2.06314274932060
  N   -1.16992321778498     -0.78702817054605      0.88916017144683
  H   -2.16642853165816     -0.64398520783476      0.83537328424563
  H   -0.79363772268376     -0.74552806306210      1.82446725491536
