12
Coordinates from ORCA-job run
  C   0.77505670381632      0.44550295026157      0.17475477426957
  C   -0.40252115069173     -0.23169755133577     -0.08989529909394
  C   0.79357490394182      1.86406371212512      0.11787644099219
  N   0.73074642846821      3.03828518781601      0.05744767147322
  C   1.94650624288757     -0.28841723726815      0.49863859568436
  N   2.87774751513468     -0.96311382556203      0.75176919213779
  N   -1.60112907725349      0.40928958498956     -0.21619560337348
  H   -2.23777991505289      0.02077686412503     -0.89449011037883
  H   -1.56699218434780      1.41776639036253     -0.20930409330915
  N   -0.44707793638251     -1.58722547862026     -0.24374567577369
  H   -1.27843753035254     -2.04088730187049      0.10163510390492
  H   0.40930599983236     -2.08434329502313     -0.04949099653296
