12
Coordinates from ORCA-job run
  C   0.81667080344776      0.37171201848310      0.15741073411393
  C   -0.42435531241657     -0.19206477087328     -0.08204302002878
  C   1.55952510133747      0.91333496442487     -0.92455815465305
  N   2.12001417998472      1.33460086083716     -1.87054055249747
  C   1.32805468694944      0.39944358200036      1.48165606520683
  N   1.68325013558568      0.39162195527494      2.60422552691721
  N   -0.88881980946852     -0.42711748087820     -1.34382507271164
  H   -1.88093350093784     -0.30652981226757     -1.47576450971580
  H   -0.32231271653555     -0.07054100007119     -2.09893092402687
  N   -1.26970426559867     -0.55290656129961      0.92724289925756
  H   -0.89814222103848     -0.48235647177527      1.86276122820486
  H   -1.82324708130946     -1.37919728385532      0.76236577993322
