12
Coordinates from ORCA-job run
  C   0.77703480191199      0.44295423996927      0.17848724779926
  C   -0.40203128109279     -0.22933474199293     -0.09285149074605
  C   1.89985673686461     -0.28252447571478      0.65669740467520
  N   2.78830333232002     -0.95239534032124      1.04192169408272
  C   0.84322383038433      1.84644304859391     -0.02479880509288
  N   0.81907400599854      3.00881416306225     -0.21167882408316
  N   -1.56919935877670      0.42380639010491     -0.36673569968123
  H   -1.50376648161781      1.42592063138891     -0.46536996866437
  H   -2.17318324449517     -0.02113477235897     -1.04025054970434
  N   -0.48001811136603     -1.59221419264282     -0.10480716572082
  H   0.34626866839550     -2.08585608873137      0.19862589943843
  H   -1.34556289852650     -1.98547886135715      0.23076025769724
