12
Coordinates from ORCA-job run
  C   0.79414200941596      0.40828785827799      0.18106528672361
  C   -0.41215675766933     -0.21213792686697     -0.09373499805941
  C   0.84391218146535      1.82310259359608      0.28858465464810
  N   0.80794573932439      2.99802674923453      0.35723704585149
  C   1.96356846778163     -0.37961132994339      0.34738477909256
  N   2.88780241313088     -1.09727554731115      0.47843854716704
  N   -1.52741009775970      0.48687414360341     -0.45690496946162
  H   -2.40348520730718      0.12081908202190     -0.11762008453078
  H   -1.45280317170277      1.49221476902858     -0.41237896762195
  N   -0.57080810815703     -1.56574564292072     -0.01996600484953
  H   -1.19958235832950     -1.97195038398714     -0.69526334044965
  H   0.26787488980730     -2.10260436473311      0.14315805149016
