12
Coordinates from ORCA-job run
  C   0.89944376937437      0.18990366619056      0.13868923728573
  C   -0.46042742137675     -0.01289953316267     -0.06494828092269
  C   1.74255794450470      0.40223581759021     -0.98039451565564
  N   2.37112580936443      0.55939783011550     -1.96402292037491
  C   1.41500732181421      0.14678880658887      1.45807965922798
  N   1.76014682712731      0.08855239536530      2.58275474234353
  N   -1.31856666541945     -0.15469524086939      0.98118725437138
  H   -2.19853704627636     -0.61526962469549      0.82172946076626
  H   -0.90627890957074     -0.31847645250491      1.88660625735395
  N   -1.00262837491070      0.04353491330855     -1.30819401475420
  H   -0.37386309423294     -0.00916503184181     -2.09363103664939
  H   -1.92798016039808     -0.31890754608471     -1.45885584299199
