12
Coordinates from ORCA-job run
  C   0.86285331059363      0.26236408070168      0.13071209930601
  C   -0.44738480401371     -0.13694777359345     -0.06816929192229
  C   1.66720609429234      0.60272493378758     -0.98873487778514
  N   2.27285306774353      0.86246392042802     -1.96449809270796
  C   1.38058879041613      0.32816058289735      1.45116703839833
  N   1.73723917734076      0.36411053508507      2.57273106458897
  N   -1.32900580097816     -0.28944593275446      0.96299186641347
  H   -0.94407071458946     -0.19614870467837      1.89108901261031
  H   -1.99517682554772     -1.03970187275464      0.86388085897409
  N   -0.94890682550358     -0.40603097390682     -1.30870769577245
  H   -0.34337399225544     -0.19549352366877     -2.08782404307635
  H   -1.91482147749832     -0.15705527154319     -1.45463793902699
