12
Coordinates from ORCA-job run
  C   0.86550006059346      0.25552065228576      0.12723165398824
  C   -0.44904573095722     -0.13197048096503     -0.06611612008401
  C   1.48331584860276      0.02832322661970      1.38531202650039
  N   1.92927487863231     -0.19788238316468      2.45133477049638
  C   1.57615549903319      0.87166287198609     -0.93638865768230
  N   2.09740754864585      1.38097300888552     -1.86122702786439
  N   -1.16061024912159      0.22556308345036     -1.17468693266283
  H   -1.81736829764740     -0.45986669584431     -1.51404845290633
  H   -0.64399353848975      0.70074184409788     -1.89957695439077
  N   -1.12509577511840     -0.89884468139903      0.83863596496667
  H   -2.10726951380063     -0.69513055293966      0.93997107486577
  H   -0.64727073037257     -1.08108989301260      1.70855865477318
