12
Coordinates from ORCA-job run
  C   0.85570196394533      0.27749830454277      0.14692726232799
  C   -0.44344102575967     -0.14418808312765     -0.07640541872266
  C   1.42927633653692      0.12082585677194      1.43627374752820
  N   1.83327553295319     -0.03527054875068      2.53120959714836
  C   1.59409614401442      0.86013315077376     -0.91662211129120
  N   2.14520120676353      1.32616995781514     -1.84698843205402
  N   -0.98760856560312     -0.20327001659620     -1.32693588352489
  H   -1.96817449812697      0.02233081221263     -1.38996761892889
  H   -0.42542723651028      0.17837148343365     -2.07305730060020
  N   -1.27047374150618     -0.53065495431614      0.93833668436763
  H   -1.90977549649695     -1.27994427313973      0.72324192048425
  H   -0.85065062021024     -0.59200168961949      1.85398755326544
