12
Coordinates from ORCA-job run
  C   0.76602178064547      0.47781264155767      0.12418837767356
  C   -0.39707558242871     -0.24821434552045     -0.06477764528263
  C   1.96777290689410     -0.20128839412923      0.45626983451765
  N   2.92487617725311     -0.83359888364939      0.72193219619430
  C   0.73868496594365      1.89031862206824     -0.01750084791366
  N   0.63672315500444      3.05643149218526     -0.14509212842896
  N   -1.61782349648598      0.34893301941305     -0.19266692239107
  H   -2.26259899600252     -0.09946399542842     -0.82478123584730
  H   -1.61530430973118      1.35662714941781     -0.24609856274279
  N   -0.40392714292025     -1.61133276306737     -0.13688320142929
  H   -1.20952103197066     -2.06789136822650      0.26198447867185
  H   0.47317157379853     -2.06933317462070      0.06142565697835
