12
Coordinates from ORCA-job run
  C   0.88560159197076      0.18838021983557      0.10740076860402
  C   -0.45841165491959     -0.09965455564214     -0.05530366455456
  C   1.65838874593902      0.57313770342178     -1.01989762600596
  N   2.22958208997334      0.89243759310243     -1.99871346840707
  C   1.46826753612965      0.09823378226965      1.39896093830166
  N   1.88151339231922     -0.00516288289585      2.49663639226422
  N   -1.21250642997071     -0.65470071674682      0.93822793227670
  H   -0.76271345553771     -0.74405063538629      1.83708088187543
  H   -2.17166678932076     -0.34681132360533      0.98327951061688
  N   -1.12322976266531      0.15079273859752     -1.22097368172529
  H   -1.83815710760272     -0.51511614020806     -1.46974712526714
  H   -0.55666815631517      0.46151421725753     -1.99595085797888
