12
Coordinates from ORCA-job run
  C   0.81725350386994      0.40972272709418      0.01313480807511
  C   -0.42105766406340     -0.20617028060529      0.01607976563243
  C   0.89264770628323      1.82239830707666     -0.11858814108339
  N   0.88572610495553      2.99421311628092     -0.23756212557294
  C   1.99096596505924     -0.38095484804599      0.11006450670952
  N   2.91383160954685     -1.10444494155795      0.21673855390317
  N   -0.58916108602833     -1.52074344952300      0.35816273184096
  H   -1.27907934942613     -2.01889023281296     -0.18523426933749
  H   0.26516474430502     -2.04237209785387      0.49111741304420
  N   -1.56912372579457      0.46158149497326     -0.30036992499530
  H   -2.41732274714433      0.13785566467680      0.13449998910082
  H   -1.48884506156305      1.44680454029723     -0.49804330731709
