12
Coordinates from ORCA-job run
  C   0.84080125069349      0.31346157737346      0.15869800446075
  C   -0.43535878798164     -0.16472176967979     -0.08261657989204
  C   1.57844375377481      0.90213685394818     -0.90214805524793
  N   2.12932667634362      1.37114552558503     -1.83109477710884
  C   1.39032767300563      0.21207031221858      1.46388133387726
  N   1.77543091956604      0.10000416532471      2.57096709452615
  N   -1.27013510957951     -0.55900050741149      0.92285270728213
  H   -1.87354236709481     -1.33860926842209      0.71198744358223
  H   -0.86896410423665     -0.58250577409067      1.84852166957146
  N   -0.94790406670417     -0.27435259128418     -1.34300419763461
  H   -1.93525457404137     -0.09163057522773     -1.43310873252313
  H   -0.38417126374542      0.11100205166600     -2.08593591089342
