12
Coordinates from ORCA-job run
  C   0.75888680967904      0.48472199596219      0.14299387371869
  C   -0.39297164614925     -0.25100781536503     -0.07453346167408
  C   0.69450813102146      1.90295589843043      0.13351582792864
  N   0.56097248979449      3.07265889424167      0.11642290091280
  C   1.98524771638297     -0.19118156516040      0.37711104365884
  N   2.96225094542865     -0.82259931560577      0.55895631042440
  N   -1.63113816649456      0.32311827343106     -0.11049528741661
  H   -1.65193334199988      1.33167011982058     -0.07783232039127
  H   -2.28270921208578     -0.08304329296787     -0.76397042711547
  N   -0.37098392263563     -1.60157528029762     -0.26948023392235
  H   0.52195616054215     -2.05327576566840     -0.14016085783094
  H   -1.15408596348367     -2.11244214682086      0.10747263170734
