12
Coordinates from ORCA-job run
  C   0.79706259428172      0.44026609582263      0.02789469674637
  C   -0.41388577842825     -0.22838236739027     -0.01566127980423
  C   0.81598063058928      1.85867747898241     -0.03102380428213
  N   0.75234402767859      3.03278516166319     -0.09375214646320
  C   2.00217262892857     -0.30307849979987      0.13420488974700
  N   2.95741127403625     -0.98438051598025      0.23284257876700
  N   -1.58769048095092      0.40441777089801     -0.30635320578678
  H   -2.40276125648189      0.06238322803685      0.17830728310837
  H   -1.54212190132002      1.40921693853782     -0.38782926250011
  N   -0.51882933404493     -1.56720519350931      0.23072988173499
  H   -1.21055715811800     -2.05962834190231     -0.31281264899797
  H   0.35087475382959     -2.06607175535891      0.34545301773070
