12
Coordinates from ORCA-job run
  C   0.77800410040183      0.47234983669548      0.04769493239361
  C   -0.40333650899489     -0.24475673942642     -0.02611356818366
  C   1.99127606992258     -0.20694996247197      0.33484301180855
  N   2.95687367771810     -0.83842793117634      0.57008663918529
  C   0.75772947186598      1.87626645812148     -0.16272150765789
  N   0.66128153769859      3.03608013913506     -0.34148804922138
  N   -1.62305792798774      0.36268812541285     -0.10381926405760
  H   -1.61340729631621      1.36561965376508     -0.21292809715034
  H   -2.31235315824100     -0.10868168162637     -0.66869418305464
  N   -0.43100459711525     -1.60981627390662     -0.02539858040345
  H   0.45194659517642     -2.07086707903665      0.13598365670871
  H   -1.21295196412842     -2.03150454548558      0.45155500963281
