12
Coordinates from ORCA-job run
  C   0.83079595822304      0.35575546296009      0.11701770830794
  C   -0.43069497554385     -0.18506428755000     -0.06077973230154
  C   1.29796218807976      0.62409631968314      1.43060447250152
  N   1.61356942295559      0.82533770976089      2.54698617526812
  C   1.63831741121230      0.63401003268154     -1.01731059286205
  N   2.25147309794232      0.82984797974368     -2.00328100253711
  N   -1.32798649890307     -0.29679035623716      0.96147972138855
  H   -0.98762586879002     -0.05540522104229      1.88019282773927
  H   -1.92365505903312     -1.10962435748427      0.93825752364647
  N   -0.86461788834568     -0.64519366601802     -1.27049658598912
  H   -0.25394564927377     -0.47311770416866     -2.05514224699598
  H   -1.84359213852352     -0.50485191232894     -1.46652826816607
