12
Coordinates from ORCA-job run
  C   0.82349597454450      0.39644711753383      0.18086404545061
  C   -0.37761452700790     -0.24182271667273     -0.08562056866752
  C   1.58207917636377      0.91622941245471     -0.90051710207490
  N   2.11108909190161      1.29836538062910     -1.88002084523262
  C   1.18758346291563      0.60499324032794      1.53949168456548
  N   1.37386794342990      0.71780012709705      2.69734393786906
  N   -0.76803268562984     -0.56929487684084     -1.35476247166797
  H   -1.74994277636048     -0.43672612749922     -1.54862741092207
  H   -0.16850573662861     -0.21740738146247     -2.08612482691315
  N   -1.25524878150965     -0.59051257158194      0.89345713459084
  H   -1.79447562961798     -1.41901154855394      0.69682602504213
  H   -0.96329551240095     -0.45806005543148      1.84769039796013
