12
Coordinates from ORCA-job run
  C   0.77903392989831      0.43456091401116      0.18907314098983
  C   -0.40381328832809     -0.22436081678494     -0.09933585046538
  C   0.76432899751881      1.83757652053973      0.40453374974725
  N   0.67517236207504      3.00037260788810      0.56761086279631
  C   1.98763383984460     -0.30603985934980      0.27027143396554
  N   2.94595480026227     -0.98789122447890      0.32710572983795
  N   -1.56154150700164      0.44277500799778     -0.38009532631117
  H   -2.40982024615200      0.00635914302449     -0.05398741731278
  H   -1.53730031463998      1.44416631226713     -0.25760495125490
  N   -0.49346332157103     -1.58596708530577     -0.12635543922324
  H   -1.12256664764425     -1.97105647771960     -0.81353325255130
  H   0.37538139573797     -2.08949504208939     -0.02868268021810
