12
Coordinates from ORCA-job run
  C   0.80806497848165      0.40548115903509      0.11514338860258
  C   -0.41930591208776     -0.21006828070945     -0.05997912383954
  C   1.29637685816443      0.62693162595295      1.42991511458819
  N   1.63564275522915      0.77090522384905      2.54826300567454
  C   1.56036865069478      0.80339709274009     -1.02118036860302
  N   2.12365762642377      1.11024425630297     -2.00862160140546
  N   -1.10093694712191     -0.78735092181894      0.97180206551000
  H   -2.10566294263737     -0.71546445932905      0.92970207543646
  H   -0.71204566614425     -0.64909902103810      1.89258346558962
  N   -1.03354557960498     -0.28065518640672     -1.27719116636099
  H   -1.55848554693741     -1.12277225992439     -1.45542700610513
  H   -0.49512827446011      0.04745077134652     -2.06500984908725
