12
Coordinates from ORCA-job run
  C   0.87159329091690      0.22750655428521      0.13821178474564
  C   -0.45220408442640     -0.11785533528547     -0.07150868620201
  C   1.70736669474854      0.50119370053494     -0.97649952472973
  N   2.33946099396189      0.70706149533630     -1.94839415622069
  C   1.37286510813874      0.30333098376963      1.46447898842569
  N   1.71428972086592      0.35248722898240      2.59030332305985
  N   -1.35543854546947     -0.20282082657435      0.94859134450986
  H   -0.98182218588927     -0.10118564295995      1.88047128772127
  H   -2.05380354977963     -0.92427976599638      0.85754908025221
  N   -0.94630686893668     -0.39766592461762     -1.31269312083153
  H   -0.31882061998034     -0.23703480403374     -2.08639093970310
  H   -1.89717995415019     -0.10873766344097     -1.48211938102746
