12
Coordinates from ORCA-job run
  C   0.81295279643961      0.37777162132614      0.16340535109848
  C   -0.42229708408214     -0.19504129043994     -0.08445548866322
  C   1.55114369870778      0.93966789017814     -0.91132015893401
  N   2.10601791931815      1.37887384834166     -1.85235787113199
  C   1.32266962446989      0.39377831807084      1.48838324892637
  N   1.67670436168090      0.37470610562691      2.61124947539170
  N   -1.26611358368712     -0.57529431687459      0.91909309679555
  H   -0.89616961152112     -0.51351847403887      1.85592305746054
  H   -1.81016568042142     -1.40552495692803      0.74223250405225
  N   -0.88248348730163     -0.41986877069488     -1.34990327511685
  H   -1.87523231334334     -0.30502843671171     -1.48305885653227
  H   -0.31702664025957     -0.04952153785568     -2.09919108334654
