12
Coordinates from ORCA-job run
  C   0.80008102382136      0.42184402327681      0.18480407959883
  C   -0.39295086837431     -0.20960537753325     -0.13801097062280
  C   1.93259043101847     -0.36028041115755      0.52673690957422
  N   2.84145255392963     -1.06797190240556      0.77157953065572
  C   0.84961524605693      1.83960560038400      0.19623471195681
  N   0.80463660613185      3.01611830068741      0.16783315338912
  N   -1.52476475943099      0.48751344968107     -0.37375355168484
  H   -1.57249761639649      1.46973951204831     -0.16289118119660
  H   -2.32088520315518      0.05023831973232     -0.80106980269698
  N   -0.47400383881207     -1.56517485625268     -0.30989803331944
  H   0.36792762574253     -2.07815209163744     -0.09507026959327
  H   -1.31420120053174     -2.00387456682344      0.03350542393922
