12
Coordinates from ORCA-job run
  C   0.84146596628199      0.32290402575803      0.13567201656644
  C   -0.43712420655579     -0.16541942277014     -0.06976045169057
  C   1.41970248370907      0.24348119487402      1.43003871047906
  N   1.83429413013234      0.13484186828778      2.52671823351319
  C   1.55568333471062      0.89127620562996     -0.95182848994560
  N   2.08330923115708      1.35244794346856     -1.89815716167261
  N   -1.12453247519634      0.05137151475457     -1.22934170606541
  H   -1.71793086484227     -0.70451572384497     -1.53465240338926
  H   -0.60974462867667      0.50041219143064     -1.97212208577408
  N   -1.09999254620670     -0.89808459804554      0.87225961746215
  H   -0.64782863453904     -0.97695947584026      1.77099702704025
  H   -2.09630178997428     -0.75075572370264      0.92017669347644
