12
Coordinates from ORCA-job run
  C   0.87342900479251      0.28328351599109      0.14848686119771
  C   -0.40126726563343     -0.21456329124648     -0.09549743472449
  C   1.57756420945001      0.92427067310277     -0.90113713343282
  N   2.08680306123892      1.44861744324074     -1.82474340026070
  C   1.42283617314834      0.16967148592578      1.44977734291953
  N   1.79932269138145      0.04019734356890      2.55826609738094
  N   -1.09562923483455     -0.87885524742321      0.86591908206413
  H   -2.09242910768665     -0.97055911958890      0.76877111365988
  H   -0.75730784577684     -0.79953616517658      1.81205306446481
  N   -0.95193942724080     -0.16487335428094     -1.33668468380209
  H   -0.51559597680287      0.44536254047676     -2.00967822053367
  H   -1.94578628203608     -0.28201582458994     -1.43453268893322
