12
Coordinates from ORCA-job run
  C   0.86993796268987      0.29024299609744      0.15080400221199
  C   -0.45682995038178     -0.06831275130911     -0.05475038789900
  C   1.42821733217260      0.16101072379457      1.44700313069097
  N   1.81515627154431      0.01071137132684      2.54928323415369
  C   1.64167933290685      0.74682456433152     -0.94651506153179
  N   2.21185504439106      1.11037613017704     -1.91092467593744
  N   -1.06189785849077      0.11473740871554     -1.26042139880928
  H   -1.85868156776089     -0.45728902600869     -1.48540847561192
  H   -0.45764132695249      0.32764675100288     -2.03916123738217
  N   -1.23564088101655     -0.50157652053691      0.96884319628505
  H   -2.12007643158092     -0.93451510023716      0.76799106319825
  H   -0.77507792752129     -0.80085654735396      1.81325661063165
