12
Coordinates from ORCA-job run
  C   0.91480914936356      0.14858910552612      0.07216631640867
  C   -0.43589864316270     -0.15102578661127     -0.06077025452555
  C   1.55259256932576     -0.07071890024705      1.31852513554422
  N   2.00075981377915     -0.27467598497447      2.38855014619991
  C   1.61367871675165      0.69690090771203     -1.03200379144691
  N   2.11451670585011      1.15685222290686     -1.99376838110734
  N   -1.07860569720359      0.00097923784912     -1.24852246616975
  H   -2.08328203056098      0.04329476978926     -1.25653956290601
  H   -0.61396446158395      0.54957596121073     -1.95484369509644
  N   -1.13524128877499     -0.72261282990465      0.95500564271972
  H   -0.70991315268908     -0.70842656763877      1.86862229940957
  H   -2.13945168109495     -0.66973213561790      0.94357861096991
