12
Coordinates from ORCA-job run
  C   0.81318163729980      0.42702053831762      0.14339353640246
  C   -0.39581723441307     -0.17855353963665     -0.08223383395686
  C   1.19628000530706      0.72673484763968      1.47741663772611
  N   1.46635711775930      0.92523709079665      2.60379198341425
  C   1.65784244618662      0.72126741830966     -0.94683391547143
  N   2.36554793940812      0.93803891614072     -1.85292300443373
  N   -0.83928307179258     -0.39690013195421     -1.34973470068127
  H   -1.68225469003146     -0.94064961357831     -1.47469305912323
  H   -0.67452178717501      0.31739513690903     -2.03512288572514
  N   -1.17908701272600     -0.57884005156050      0.95562662723602
  H   -2.00478569970109     -1.11896216980908      0.73813993424174
  H   -0.72445965012170     -0.84278844157460      1.82317268037108
