12
Coordinates from ORCA-job run
  C   0.79074342713501      0.44976130206191      0.21472261820374
  C   -0.33188029870417     -0.29892887837197     -0.06710927843053
  C   1.49082063331722      1.09590261816137     -0.83353863020014
  N   2.06371791059063      1.45135077890770     -1.79660683274518
  C   1.19328332641274      0.64331772372822      1.56103559520691
  N   1.50113166545451      0.75465920656986      2.69135684305833
  N   -1.09390790274591     -0.83054312992230      0.94421131429303
  H   -1.39307477317565     -0.16975424722542      1.66160176559983
  H   -1.85074127778898     -1.40540211288455      0.62170492280305
  N   -0.66558880280460     -0.68451425992090     -1.34003655616502
  H   -1.64542743130775     -0.63542350467369     -1.57975996939328
  H   -0.06007647638304     -0.37242549643023     -2.07858179223072
