12
Coordinates from ORCA-job run
  C   0.80091118311979      0.42071228951193      0.11038368190404
  C   -0.41530079779762     -0.21849409417915     -0.05706803655713
  C   1.31022288407870      0.62130006036915      1.42039006237936
  N   1.66470551983209      0.75712810430484      2.53505167224119
  C   1.51928319967205      0.86587851896010     -1.03046600102219
  N   2.05970372600589      1.19931860331769     -2.02202665560054
  N   -1.24447457147415     -0.49704381486614      0.99073046455873
  H   -1.76476046520689     -1.35779205644532      0.92205872243758
  H   -0.87710498057335     -0.30507768588495      1.91070751928855
  N   -0.86945454331012     -0.61491725153345     -1.28183105451137
  H   -1.86564919895408     -0.55037814869688     -1.42238392749100
  H   -0.31808195539231     -0.32163452485781     -2.07454644762722
