12

C	-0.420053	0.063059	-1.454457
C	0.0	0.0	0.0
Cl	-0.048955	-1.516846	-2.221369
H	1.091289	0.0	0.0
H	0.189142	0.810379	-1.96527
H	-0.38888	-0.864761	0.532496
C	-1.838507	0.352164	-1.657032
N	-2.977795	0.582614	-1.829209
N	-0.393289	1.202869	0.697035
O	-0.481365	1.153268	1.928853
O	-0.474722	2.249287	0.029822
H	2.547608	0.0	0.0
