12

C	-0.415527	-0.036906	-1.440338
C	0.0	0.0	0.0
Cl	-2.190883	-0.323676	-1.659815
H	1.093093	0.0	0.0
H	0.077933	-0.913589	-1.86852
H	-0.323381	-0.899278	0.521418
C	-0.028974	1.109978	-2.260279
N	0.268213	1.945468	-3.029592
N	-0.496607	1.138483	0.744725
O	-0.61438	0.996694	1.968518
O	-0.673047	2.207097	0.145425
H	2.571839	0.0	0.0
