12

C	-0.402615	0.002257	-1.461619
C	0.0	0.0	0.0
Cl	-0.055541	-1.620221	-2.146313
H	1.0914	0.0	0.0
H	0.23129	0.711578	-1.99747
H	-0.395689	-0.840812	0.564492
C	-1.810847	0.312968	-1.699722
N	-2.94111	0.56203	-1.902179
N	-0.396594	1.231948	0.64033
O	-0.437142	2.252982	-0.068437
O	-0.530525	1.229964	1.870563
H	2.545055	0.0	0.0
