12

C	-0.412097	-0.042301	-1.443614
C	0.0	0.0	0.0
Cl	-2.182766	-0.357177	-1.667026
H	1.093029	0.0	0.0
H	0.099235	-0.91059	-1.872752
H	-0.317025	-0.903221	0.518776
C	-0.033682	1.113464	-2.255264
N	0.297202	1.95882	-2.999093
N	-0.50258	1.133556	0.74827
O	-0.705144	2.198188	0.148751
O	-0.600986	0.994318	1.974834
H	2.573761	0.0	0.0
