12

C	-0.494461	0.029508	-1.426152
C	0.0	0.0	0.0
Cl	0.169357	-1.265846	-2.470982
H	1.088354	0.0	0.0
H	-0.10047	0.959254	-1.848003
H	-0.284914	0.923789	0.507189
C	-1.952371	0.056208	-1.545425
N	-3.12018	0.142555	-1.643892
N	-0.521505	-1.095567	0.801374
O	-0.991547	-2.090458	0.232824
O	-0.376847	-0.990848	2.024327
H	2.595307	0.0	0.0
