19

C	0.0	0.0	0.0
C	-0.226373	0.030037	-1.560063
Cl	1.813934	0.0	0.0
H	-0.075869	-0.999886	-1.88638
C	-0.462716	1.248224	0.728646
H	-0.133564	1.186672	1.770849
H	-1.555436	1.277316	0.69723
H	-0.055319	2.160213	0.290273
N	-0.536006	-1.230634	0.502623
H	-0.457611	-1.227473	1.515587
H	-1.543816	-1.198011	0.302339
C	0.649137	0.989512	-2.376668
H	1.668128	0.626835	-2.4738
H	0.659183	1.98292	-1.928077
H	0.223379	1.076226	-3.379043
N	-1.60752	0.388134	-2.038392
O	-1.964174	1.54758	-1.862331
O	-2.192304	-0.455599	-2.712352
Br	-4.039844	0.0	0.0
