19

C	0.0	0.0	0.0
C	-0.526928	0.055957	-1.454886
Cl	1.795532	0.0	0.0
H	-1.601337	0.251624	-1.345088
C	-0.444741	1.211414	0.804017
H	-1.535649	1.269525	0.776864
H	-0.021948	2.133163	0.407882
H	-0.109841	1.067469	1.832231
N	-0.455691	-1.181758	0.690937
H	-1.477003	-1.122644	0.740031
H	-0.205046	-2.015562	0.17311
C	-0.286786	-1.197516	-2.270117
H	-0.914226	-2.00207	-1.881487
H	-0.579366	-1.025237	-3.307989
H	0.76495	-1.492636	-2.253368
N	0.029965	1.240295	-2.184034
O	0.983525	1.063802	-2.945294
O	-0.499627	2.333047	-1.974818
Br	-3.840206	0.0	0.0
