14

C	-0.309031	-0.016253	-1.475318
C	0.0	0.0	0.0
Cl	-2.010996	-0.359891	-1.955902
H	1.091477	0.0	0.0
H	0.292787	-0.826022	-1.888013
C	0.101538	1.248717	-2.077905
N	0.387897	2.275335	-2.570705
N	-0.434483	-1.236052	0.661582
O	-0.761236	-1.173441	1.845259
O	-0.342819	-2.269822	4.5e-05
N	-0.595805	1.161089	0.701992
O	-1.825161	1.253801	0.698213
O	0.176551	1.961707	1.224182
F	2.440306	0.0	0.0
