14

C	-0.464177	0.027846	-1.442344
C	0.0	0.0	0.0
Cl	-0.003681	-1.501689	-2.239963
H	1.09025	0.0	0.0
H	0.117381	0.812177	-1.925515
C	-1.887681	0.287811	-1.660729
N	-3.014298	0.534661	-1.883158
N	-0.556268	-1.152893	0.752563
O	-1.72428	-1.474821	0.513801
O	0.180127	-1.70224	1.566261
N	-0.444485	1.226149	0.689593
O	-0.473781	2.251566	0.006684
O	-0.680498	1.167803	1.892987
F	2.451735	0.0	0.0
