14

C	-0.541052	-0.051897	-1.419687
C	0.0	0.0	0.0
Cl	-0.148757	1.493369	-2.236385
H	1.087982	0.0	0.0
H	-1.628221	-0.144134	-1.430964
C	0.053755	-1.140904	-2.188566
N	0.471631	-1.990547	-2.882715
N	-0.505489	-1.148262	0.780553
O	-0.407189	-1.079049	2.002845
O	-0.957474	-2.113639	0.158507
N	-0.554418	1.201934	0.689663
O	-1.762573	1.41362	0.543242
O	0.208109	1.884337	1.360782
F	2.447582	0.0	0.0
