14

C	-0.555339	-0.081892	-1.415647
C	0.0	0.0	0.0
Cl	-0.281785	1.483217	-2.242656
H	1.087771	0.0	0.0
H	-1.635827	-0.243786	-1.404478
C	0.09191	-1.133697	-2.195093
N	0.550784	-1.950261	-2.902296
N	-0.486393	-1.1464	0.793845
O	-0.420425	-1.045311	2.015896
O	-0.876466	-2.145129	0.183639
N	-0.584318	1.203299	0.664497
O	0.176444	2.022385	1.163824
O	-1.816423	1.283533	0.654244
F	2.447391	0.0	0.0
