15

C	-0.270154	-0.094298	-1.507758
C	0.0	0.0	0.0
Cl	-2.005561	-0.463501	-1.857303
H	1.105387	0.0	0.0
C	0.002225	1.193476	-2.170194
N	0.255916	2.197292	-2.72648
N	0.540405	-1.181956	-1.993601
H	1.504204	-1.015049	-1.692493
H	0.505214	-1.226135	-3.003865
N	-0.51903	-1.18976	0.686513
H	-0.29956	-1.974461	0.078251
H	0.060561	-1.308851	1.511625
C	-0.558864	1.214537	0.583291
N	-0.996613	2.189253	1.069898
Cl	3.266742	0.0	0.0
