15

C	-0.327208	-0.044117	-1.506308
C	0.0	0.0	0.0
Cl	-2.103999	-0.428887	-1.735067
H	1.104519	0.0	0.0
C	-0.156917	1.288243	-2.113924
N	0.010571	2.312253	-2.666607
N	0.475603	-1.049577	-2.118311
H	0.589116	-0.874483	-3.105982
H	1.390794	-1.067818	-1.669558
N	-0.398038	-1.22948	0.655528
H	0.259061	-1.425853	1.398663
H	-1.334783	-1.164405	1.03196
C	-0.531975	1.211015	0.631403
N	-0.993202	2.126313	1.206334
Cl	3.238896	0.0	0.0
