15

C	-0.541801	0.206851	-1.424825
C	0.0	0.0	0.0
Cl	-0.014564	1.795122	-2.052325
H	1.106056	0.0	0.0
C	0.024251	-0.827489	-2.313861
N	0.335776	-1.681204	-3.059815
N	-1.981955	0.162146	-1.388689
H	-2.355117	0.125539	-2.330129
H	-2.220147	-0.696113	-0.897995
N	-0.487138	-1.320701	0.454685
H	0.302635	-1.957068	0.393458
H	-0.74915	-1.269277	1.431721
C	-0.503633	1.056415	0.874071
N	-0.918511	1.8541	1.629463
Cl	3.258221	0.0	0.0
