15

C	-0.539241	0.030186	-1.439644
C	0.0	0.0	0.0
Cl	-0.106746	1.574411	-2.226893
H	1.102544	0.0	0.0
C	0.091252	-1.054119	-2.218543
N	0.460558	-1.955956	-2.876257
N	-1.977475	-0.093252	-1.404627
H	-2.337186	-0.190313	-2.347459
H	-2.168241	-0.949349	-0.890777
N	-0.448991	-1.267883	0.604649
H	0.381385	-1.79556	0.84904
H	-0.970424	-1.095253	1.454467
C	-0.500638	1.150744	0.748541
N	-0.912532	2.021242	1.421477
Cl	3.246004	0.0	0.0
