15

C	-0.343628	-0.107476	-1.500507
C	0.0	0.0	0.0
Cl	-2.13268	-0.381321	-1.665302
H	1.099425	0.0	0.0
C	-0.047642	1.145604	-2.202012
N	0.141737	2.144402	-2.789873
N	0.34658	-1.203231	-2.125743
H	1.343938	-0.981381	-2.082551
H	0.200203	-1.996681	-1.503713
N	-0.380921	-1.240307	0.661536
H	-1.311596	-1.179654	1.055401
H	0.286382	-1.42327	1.401543
C	-0.548262	1.204075	0.622782
N	-1.034629	2.126359	1.165846
Cl	3.235051	0.0	0.0
