15

C	-0.570724	0.031662	-1.425973
C	0.0	0.0	0.0
Cl	0.209005	1.424881	-2.316277
H	1.099229	0.0	0.0
C	-0.211711	-1.191325	-2.150845
N	0.001131	-2.14038	-2.807648
N	-1.997723	0.131747	-1.384402
H	-2.386216	0.078998	-2.318863
H	-2.260125	1.020747	-0.971328
N	-0.419352	-1.239321	0.632529
H	-1.330193	-1.152786	1.065223
H	0.272596	-1.496591	1.326496
C	-0.475315	1.203135	0.705657
N	-0.958131	2.101923	1.290699
Cl	3.260737	0.0	0.0
