15

C	-0.526332	0.043301	-1.450573
C	0.0	0.0	0.0
Cl	0.264161	-1.249266	-2.391742
H	1.103186	0.0	0.0
C	-1.975376	-0.268075	-1.446115
N	-3.141944	-0.418861	-1.473281
N	-0.224209	1.304573	-2.071548
H	-0.605917	1.337394	-3.007727
H	-0.602741	2.068387	-1.523906
N	-0.425537	-1.231123	0.646643
H	-1.244832	-1.100086	1.224963
H	0.338244	-1.577817	1.212894
C	-0.486369	1.200986	0.692179
N	-0.954592	2.140668	1.2221
Cl	3.266339	0.0	0.0
