15

C	-0.56389	-0.018845	-1.429499
C	0.0	0.0	0.0
Cl	0.218581	1.340976	-2.368707
H	1.096497	0.0	0.0
C	-0.202176	-1.268364	-2.106285
N	0.003192	-2.255492	-2.708068
N	-1.990994	0.084129	-1.397585
H	-2.253359	0.990623	-1.024753
H	-2.375847	-0.008975	-2.329806
N	-0.418724	-1.219579	0.666677
H	0.264747	-1.458634	1.373719
H	-1.339707	-1.136309	1.075402
C	-0.479372	1.225968	0.660106
N	-0.939782	2.175331	1.179271
Cl	3.260149	0.0	0.0
