14

C	0.0	0.0	0.0
C	-0.233721	-0.010552	-1.544004
F	1.382042	0.0	0.0
H	0.070828	-0.997342	-1.89709
H	-0.363627	0.915272	0.454165
C	-0.507917	-1.152522	0.737496
N	-0.624731	-2.116335	1.402143
N	0.552176	1.003578	-2.234511
H	1.476252	1.01653	-1.826485
H	0.107222	1.895657	-2.054668
N	-1.621549	0.170634	-2.096437
O	-2.01513	1.32121	-2.248314
O	-2.160425	-0.829607	-2.554369
F	-2.283194	0.0	0.0
