14

C	0.0	0.0	0.0
C	-0.436011	0.303109	-1.447502
F	1.373024	0.0	0.0
H	0.482282	0.323993	-2.050356
H	-0.34942	0.826105	0.613379
C	-0.441696	-1.249936	0.631811
N	-0.552005	-2.225421	1.276327
N	-1.141189	1.530448	-1.502548
H	-1.430604	1.703392	-2.457741
H	-1.972511	1.271565	-0.929052
N	-1.195535	-0.86171	-2.09749
O	-0.766802	-1.99498	-1.897982
O	-2.07642	-0.580868	-2.902764
F	-2.453548	0.0	0.0
