14

C	0.0	0.0	0.0
C	-0.561195	0.062962	-1.397405
F	1.38483	0.0	0.0
H	-1.692089	0.065533	-1.107556
H	-0.357577	0.854671	0.565792
C	-0.421911	-1.244909	0.663381
N	-0.574148	-2.255931	1.238493
N	-0.132839	-1.027274	-2.205366
H	-0.668289	-1.054694	-3.060548
H	0.847319	-0.936505	-2.446681
N	-0.219607	1.408711	-1.986208
O	-0.040793	1.46698	-3.206735
O	-0.202076	2.392774	-1.24711
F	-2.641474	0.0	0.0
