14

C	0.0	0.0	0.0
C	-0.472286	0.167416	-1.451864
F	1.382316	0.0	0.0
H	-1.527177	0.454838	-1.320992
H	-0.36362	0.830307	0.596088
C	-0.465618	-1.274598	0.552617
N	-0.595176	-2.358838	0.987454
N	-0.339689	-0.972675	-2.302991
H	0.534123	-1.458231	-2.133592
H	-1.108674	-1.590815	-2.076245
N	0.324281	1.321214	-1.998412
O	0.128882	2.410177	-1.455838
O	1.119629	1.130403	-2.914178
F	-2.494907	0.0	0.0
