16

C	-0.538637	-0.006775	-1.417241
C	0.0	0.0	0.0
F	0.06054	-1.018736	-2.159694
H	1.099261	0.0	0.0
H	-1.613737	-0.270475	-1.402409
N	-0.277135	1.242146	-2.091484
H	-0.636673	1.181756	-3.038774
H	-0.797683	1.954205	-1.591156
C	-0.492527	-1.219897	0.752602
H	-1.582356	-1.195112	0.886771
H	-0.222527	-2.125655	0.205612
H	-0.012742	-1.271021	1.734435
N	-0.488725	1.251311	0.632589
H	-0.621336	1.071173	1.621975
H	0.294438	1.899161	0.581713
H	3.103686	0.0	0.0
