16

C	-0.487184	0.066676	-1.429585
C	0.0	0.0	0.0
F	-0.241709	1.302961	-1.995837
H	1.096838	0.0	0.0
H	0.088702	-0.652298	-2.033396
N	-1.932275	-0.127095	-1.530326
H	-2.139233	-1.09596	-1.317163
H	-2.190466	0.024497	-2.500013
C	-0.398718	-1.338942	0.625451
H	-1.476173	-1.393162	0.829746
H	-0.114152	-2.18436	-0.012906
H	0.138968	-1.457536	1.570044
N	-0.450115	1.15925	0.761221
H	-1.331413	0.968165	1.222911
H	0.255769	1.36016	1.460767
H	3.030531	0.0	0.0
