16

C	-0.421261	0.030887	-1.45463
C	0.0	0.0	0.0
F	-1.793703	0.502354	-1.535246
H	1.094969	0.0	0.0
H	0.151166	0.792544	-1.989392
N	-0.306234	-1.209917	-2.123267
H	-0.600146	-1.121139	-3.087088
H	-0.875909	-1.908644	-1.665945
C	-0.532119	-1.209072	0.752125
H	-1.626841	-1.267785	0.706134
H	-0.242248	-1.104634	1.798128
H	-0.09489	-2.138039	0.374446
N	-0.387071	1.240331	0.689099
H	-1.177605	1.66358	0.220975
H	0.402245	1.874884	0.635309
H	3.017255	0.0	0.0
