16

C	-0.428734	0.041802	-1.453383
C	0.0	0.0	0.0
F	-0.119031	1.28201	-2.010762
H	1.096274	0.0	0.0
H	0.153116	-0.687051	-2.035321
N	-1.869312	-0.094857	-1.606483
H	-2.088996	-0.125159	-2.594656
H	-2.158952	-0.976031	-1.20048
C	-0.45389	-1.292688	0.666625
H	-1.532175	-1.292645	0.867779
H	0.064289	-1.380053	1.62335
H	-0.195201	-2.171143	0.063624
N	-0.47649	1.157147	0.760355
H	0.214458	1.890217	0.641813
H	-1.340926	1.483908	0.3404
H	3.04921	0.0	0.0
