16

C	-0.327523	-0.019687	-1.478012
C	0.0	0.0	0.0
F	-1.66357	-0.391851	-1.728315
H	1.103286	0.0	0.0
H	-0.26234	1.001638	-1.883519
N	0.536077	-0.966378	-2.123196
H	1.466534	-0.892016	-1.705201
H	0.608607	-0.763407	-3.111346
C	-0.525272	-1.232999	0.703769
H	-0.092955	-1.299287	1.707831
H	-0.243137	-2.130475	0.152041
H	-1.615688	-1.191604	0.782248
N	-0.543136	1.221645	0.626057
H	0.123222	1.964031	0.422971
H	-0.4765	1.088437	1.631459
H	3.027047	0.0	0.0
