16

C	-0.331832	-0.051645	-1.473223
C	0.0	0.0	0.0
F	-1.691432	-0.388208	-1.69216
H	1.098172	0.0	0.0
H	-0.241338	0.958786	-1.890556
N	0.488189	-1.043413	-2.107039
H	1.427911	-0.974239	-1.708397
H	0.553433	-0.863051	-3.10158
C	-0.471425	-1.251258	0.727624
H	-0.121373	-2.149969	0.215675
H	-0.069106	-1.252755	1.745649
H	-1.566077	-1.288048	0.77655
N	-0.468597	1.251252	0.598319
H	-1.361669	1.099598	1.054409
H	0.19813	1.514587	1.313662
H	2.988755	0.0	0.0
