16

C	-0.324381	-0.026763	-1.479335
C	0.0	0.0	0.0
F	-1.727765	-0.104873	-1.65308
H	1.096914	0.0	0.0
H	-0.027136	0.929647	-1.921802
N	0.300428	-1.073882	-2.23695
H	1.25983	-0.776624	-2.394784
H	0.378715	-1.896469	-1.651073
C	-0.529463	-1.20759	0.757125
H	-0.176196	-2.157454	0.342894
H	-0.17419	-1.146841	1.787169
H	-1.623409	-1.214234	0.764038
N	-0.466633	1.229085	0.656321
H	0.277666	1.914148	0.595037
H	-1.273799	1.589897	0.161783
H	3.047164	0.0	0.0
