16

C	-0.442393	0.052695	-1.459496
C	0.0	0.0	0.0
F	-0.178238	1.330485	-1.948398
H	1.096062	0.0	0.0
H	0.161264	-0.647927	-2.046449
N	-1.840916	-0.213716	-1.7435
H	-1.995954	-1.213066	-1.681451
H	-2.414932	0.223799	-1.029525
C	-0.436883	-1.304997	0.645382
H	0.051634	-1.38773	1.616075
H	-0.129747	-2.164659	0.040308
H	-1.522288	-1.354172	0.797192
N	-0.457343	1.131366	0.805599
H	-1.441342	1.323259	0.63313
H	0.065152	1.947914	0.50408
H	3.036783	0.0	0.0
