19

C	-0.415006	0.097446	-1.454659
C	0.0	0.0	0.0
Br	-2.365304	0.516283	-1.665611
H	1.09513	0.0	0.0
C	0.401541	1.124881	-2.21103
H	1.455712	0.960457	-1.949584
H	0.25094	1.03111	-3.288264
H	0.105276	2.129921	-1.904935
N	-0.195576	-1.274684	-2.095635
O	0.969854	-1.494673	-2.416483
O	-1.122306	-2.063996	-2.205411
N	-0.421004	-1.255169	0.595959
H	0.332643	-1.577665	1.195255
H	-1.260605	-1.136545	1.151251
C	-0.381113	1.231516	0.812214
H	-1.459899	1.282625	0.995162
H	-0.06261	2.159795	0.331089
H	0.145133	1.165399	1.769593
H	2.798846	0.0	0.0
