19

C	-0.333015	-0.086663	-1.501217
C	0.0	0.0	0.0
Br	0.253355	1.520443	-2.449765
H	1.09563	0.0	0.0
C	0.345306	-1.271044	-2.154148
H	-0.005996	-2.201572	-1.714206
H	1.415862	-1.158799	-1.952476
H	0.154523	-1.2906	-3.229185
N	-1.844668	-0.16599	-1.651571
O	-2.323947	-1.30675	-1.649578
O	-2.516588	0.860256	-1.626354
N	-0.354459	-1.2261	0.713429
H	-1.192339	-1.665124	0.350078
H	0.421436	-1.874144	0.640458
C	-0.571714	1.201886	0.725153
H	-0.334284	2.140458	0.223964
H	-1.658923	1.128833	0.839566
H	-0.123037	1.212954	1.720165
H	2.821179	0.0	0.0
