19

C	-0.384363	-0.058865	-1.488557
C	0.0	0.0	0.0
Br	0.359887	1.461795	-2.467335
H	1.095199	0.0	0.0
C	0.117362	-1.317189	-2.162482
H	-0.124612	-1.308002	-3.227095
H	1.201539	-1.335912	-2.018075
H	-0.329072	-2.195886	-1.702313
N	-1.899879	0.031649	-1.580781
O	-2.454789	1.12274	-1.661691
O	-2.49947	-1.041805	-1.433656
N	-0.360243	-1.21194	0.728519
H	0.392947	-1.882225	0.626578
H	-1.229529	-1.618836	0.404045
C	-0.536753	1.219258	0.727018
H	-0.321293	2.146213	0.194555
H	-0.043333	1.253335	1.699583
H	-1.618161	1.149971	0.890966
H	2.814392	0.0	0.0
