19

C	-0.324851	0.013566	-1.484094
C	0.0	0.0	0.0
Br	-2.307289	0.104232	-1.851379
H	1.096737	0.0	0.0
C	0.365322	1.138746	-2.212733
H	-0.086396	2.088717	-1.931522
H	0.289411	1.0161	-3.293178
H	1.418445	1.119603	-1.903014
N	0.11802	-1.314267	-2.089516
O	-0.522769	-2.324942	-1.810288
O	1.140653	-1.297257	-2.771266
N	-0.455153	-1.149376	0.761045
H	-1.348071	-1.480014	0.41322
H	0.217522	-1.899151	0.646636
C	-0.429311	1.282391	0.696939
H	-0.04868	1.220615	1.717579
H	-1.519436	1.377027	0.733936
H	-0.001735	2.173504	0.233253
H	2.787277	0.0	0.0
