19

C	-0.359724	-0.065836	-1.495028
C	0.0	0.0	0.0
Br	0.293974	1.513436	-2.448318
H	1.095207	0.0	0.0
C	0.239963	-1.282372	-2.166856
H	0.026789	-1.284058	-3.237844
H	-0.156454	-2.193223	-1.724441
H	1.319077	-1.229982	-1.990936
N	-1.87674	-0.070662	-1.613478
O	-2.49741	0.988747	-1.622695
O	-2.40978	-1.186827	-1.553384
N	-0.359949	-1.222863	0.714883
H	0.400286	-1.88699	0.617365
H	-1.217937	-1.640279	0.372606
C	-0.553785	1.205701	0.735597
H	-1.637898	1.133046	0.878413
H	-0.329741	2.142474	0.224267
H	-0.08015	1.221427	1.718873
H	2.817886	0.0	0.0
