16

C	0.0	0.0	0.0
C	-0.195948	0.109482	-1.521271
F	1.379528	0.0	0.0
H	0.331542	0.996759	-1.866479
H	-0.353591	-0.966852	0.355854
C	-0.589195	1.145775	0.764588
H	-1.680746	1.081323	0.695125
H	-0.245357	2.102909	0.367202
H	-0.298314	1.067987	1.813622
N	-1.559961	0.196138	-2.137958
O	-1.988621	1.336314	-2.25852
O	-2.078823	-0.846193	-2.508925
N	0.490372	-1.04655	-2.194831
O	0.443258	-2.147396	-1.660014
O	1.036702	-0.785766	-3.266264
Br	-4.068962	0.0	0.0
