16

C	0.0	0.0	0.0
C	-0.548082	-0.07905	-1.408668
F	1.374989	0.0	0.0
H	-1.645005	0.027308	-1.367997
H	-0.3496	-0.894744	0.517533
C	-0.473032	1.250325	0.706834
H	-1.562988	1.278975	0.705593
H	-0.074076	2.140066	0.216472
H	-0.10864	1.22616	1.736355
N	-0.246161	-1.376969	-2.096521
O	-0.543307	-1.428578	-3.285593
O	0.224735	-2.294354	-1.431015
N	0.034515	0.999115	-2.260266
O	1.137572	0.791434	-2.759447
O	-0.617084	2.036061	-2.350294
Br	-3.743156	0.0	0.0
