14
Coordinates from ORCA-job run
  C   0.47802462468174     -0.08571324719038     -0.30705845453127
  C   -0.80570904943637     -0.56574475185874      0.31550586836975
  F   0.51355551593824     -0.27170085758536     -1.61831854954104
  H   -0.90465533315047     -1.64425543539386      0.20126795898050
  H   -0.85011556499305     -0.28866000869768      1.36615122155440
  N   0.76735091582454      1.38480566462968     -0.00046284154136
  O   1.18707586658669      2.06061412317776     -0.92228079410014
  O   0.58307566676537      1.70563944044921      1.16541889548419
  N   1.66285139002033     -0.82464373957147      0.31463999021497
  O   1.52374520232990     -1.17348928729493      1.48084655796920
  O   2.63937647865345     -0.96293237189899     -0.40637978092932
  N   -1.97408309887000      0.06416978766420     -0.37393987364035
  O   -2.99329120821995     -0.61088132763297     -0.43661255393985
  O   -1.82620140613042      1.21379201120351     -0.77777764434966
