14
Coordinates from ORCA-job run
  C   0.49905517835210     -0.06926147454319     -0.27744778798048
  C   -0.79650178647987     -0.59608257877499      0.27916779957289
  F   0.62179843995619     -0.27910912766129     -1.57972604817344
  H   -0.91460359981753     -0.30308368819048      1.31971400402487
  H   -0.84023024496973     -1.67984686822393      0.18078911668696
  N   0.70325454153166      1.41876367627493      0.01286881533778
  O   0.42579917660091      1.75625743331236      1.15533626558916
  O   1.15578775103739      2.09261330745308     -0.89486786760076
  N   1.67624296422996     -0.74139044190193      0.42976911896923
  O   2.69546145093572     -0.86259855065226     -0.23267247447057
  O   1.48606131591919     -1.06048312602235      1.59731428990413
  N   -1.95001500923844     -0.03293215519376     -0.48879388229184
  O   -1.82645347756171      1.11023811794771     -0.91819342261029
  O   -2.93665670049586     -0.75108452382387     -0.58425792695765
