14
Coordinates from ORCA-job run
  C   0.41002424047157      0.15552348272228     -0.37172226764672
  C   -0.98660424353295      0.24434209210506      0.18316556082764
  F   0.43427405008324     -0.17189315490212     -1.65465148880236
  H   -1.53882100629254      1.05006402166518     -0.29845902426850
  H   -0.96120811521680      0.38914252747023      1.26064498799758
  N   1.11531315975371      1.50223807734708     -0.20573319267708
  O   0.80915445314267      2.14224559630172      0.79320227053536
  O   1.93141609142856      1.78790234892896     -1.06841422518286
  N   1.29343705217632     -0.81777115412824      0.41130707961065
  O   2.03324541387138     -1.52707188842495     -0.24685558460026
  O   1.18700827931111     -0.73964084870245      1.62711758010705
  N   -1.72541778024679     -1.02728692892533     -0.09018587144769
  O   -1.07037826322768     -2.06509115793690     -0.06824909967986
  O   -2.93144333172180     -0.92370301352052     -0.27216672477294
