14
Coordinates from ORCA-job run
  C   0.46288591683838      0.05347404228071     -0.33637830448540
  C   -0.99034122488828      0.29462871409580     -0.02672029649102
  F   0.64496866599125     -0.58337351308870     -1.48370817826364
  H   -1.43265404462128      0.95861399592692     -0.76804445583020
  H   -1.10622211864059      0.70825778256389      0.97231808301324
  N   1.20509022323451      1.38839317043545     -0.40599694153214
  O   0.77061335541510      2.27993036326304      0.31333730802468
  O   2.17487812758003      1.41857055030354     -1.14829814010391
  N   1.18482020664073     -0.70466822865236      0.77904537575188
  O   0.93346521272887     -0.30665199566165      1.90800912260519
  O   1.95527167958416     -1.58105083685610      0.43121567804845
  N   -1.74448847050499     -0.99599679290113     -0.07852990180904
  O   -1.14821769981973     -2.00215011573028      0.29384578693410
  O   -2.90906982953813     -0.92697713597913     -0.44909513586218
