14
Coordinates from ORCA-job run
  C   0.49273970708586     -0.08831146232101     -0.28248172526436
  C   -0.78678263727071     -0.57573662856224      0.34293828057420
  F   0.58657247034874     -0.39659115807466     -1.56749198946306
  H   -0.82613214526979     -1.66403273613595      0.33100406701804
  H   -0.88338437182443     -0.20232959799631      1.35971310594322
  N   0.69541498153042      1.41825552029336     -0.11123076377322
  O   0.44990894758253      1.83886098063646      1.01080863361326
  O   1.11526349279084      2.02459061659557     -1.08010164619278
  N   1.68992527634859     -0.69981118501336      0.44589691919288
  O   2.69660785991049     -0.85876123879502     -0.22770241418212
  O   1.52695923821040     -0.93745974022881      1.63670080358728
  N   -1.95984917789780     -0.07909247164819     -0.44089477957314
  O   -1.85577502767008      1.03260021928767     -0.95065380177454
  O   -2.94046861387507     -0.81118111803750     -0.46850468970566
