14
Coordinates from ORCA-job run
  C   0.48067048489546      0.04605122506992     -0.30997144430259
  C   -0.99292925759810      0.27186110327272     -0.10097329045759
  F   0.74274947167513     -0.64651839904689     -1.40898317855488
  H   -1.17734358448323      0.73337787188132      0.86629766854074
  H   -1.40106428828751      0.88709911746551     -0.90143706532697
  N   1.20329854568646      1.38945203089973     -0.40719173906723
  O   2.23443229624244      1.38905090538795     -1.06252044217254
  O   0.69310019877032      2.31948677276833      0.20582280332767
  N   1.14741995905200     -0.63664488264142      0.88518609817614
  O   0.83230050097638     -0.17267139268867      1.97236380858179
  O   1.94103893314056     -1.52499263227081      0.63391337873904
  N   -1.71777365997419     -1.03611343852505     -0.13020759599548
  O   -1.13135741312538     -2.00502932530673      0.34299474033808
  O   -2.85354218697035     -1.01540895626590     -0.58629374182617
