14
Coordinates from ORCA-job run
  C   0.49976735633298     -0.06857152100121     -0.27349773036253
  C   -0.80106165678175     -0.59617062417771      0.27024291768086
  F   0.62917572612674     -0.26752378742484     -1.57727566084395
  H   -0.92683999921362     -0.30871892582636      1.31147841338084
  H   -0.84631780829854     -1.67909980904055      0.16512531505194
  N   0.70696206813679      1.41573677437506      0.03134245510440
  O   0.44616983276841      1.73609122660160      1.18281414122687
  O   1.14341110148625      2.10340797612739     -0.87350524707478
  N   1.67206998674264     -0.74888678401160      0.43307718973839
  O   1.46479876251298     -1.11943396651771      1.58233259160472
  O   2.70655089859166     -0.82489432589170     -0.21249455594081
  N   -1.94591834050996     -0.02482995271490     -0.50430259337399
  O   -1.82408791895874      1.12993895413016     -0.90212964699955
  O   -2.92468000893584     -0.74804523462764     -0.63620758919242
