14
Coordinates from ORCA-job run
  C   0.52005109610964     -0.06321695161892     -0.24184304365319
  C   -0.80067104589983     -0.60777915833990      0.23252033636454
  F   0.73996401912366     -0.29409980452249     -1.52726159715530
  H   -0.81638543942294     -1.69356636617311      0.14708722574299
  H   -0.99573073147732     -0.30362797288048      1.25809318071506
  N   0.67299819911929      1.43364660699465      0.03287163570699
  O   0.29079138266500      1.79113965436081      1.13836552541865
  O   1.19311760907083      2.09596508741607     -0.84704700240044
  N   1.65538330140731     -0.69963145099270      0.56142131749299
  O   2.71030959930671     -0.85287709650261     -0.03487702068651
  O   1.39704643771791     -0.96342489197893      1.72967743607126
  N   -1.91062447921475     -0.07977936793315     -0.62007497159493
  O   -1.77134807964708      1.04989800872812     -1.07931169896171
  O   -2.88390186885844     -0.81064629655736     -0.74962132306039
