14
Coordinates from ORCA-job run
  C   0.64275835324007     -0.10618791217247     -0.38634376187517
  C   -0.77473848643892     -0.58218545299198     -0.58670407959189
  F   1.37687915323961     -0.52104682126199     -1.42801501706814
  H   -0.79911100839137     -1.67062639042449     -0.58164295153880
  H   -1.11720937356513     -0.19440901328780     -1.54783138314459
  N   0.75735094199947      1.41507536629717     -0.34670435905411
  O   1.23670961641906      1.92696799573362      0.65176197638878
  O   0.36925414148135      1.95385034459004     -1.37173913848643
  N   1.27505662751838     -0.64060623082780      0.88059248705899
  O   0.49833739033593     -0.87896768867313      1.79790791471785
  O   2.48904984465536     -0.76737807759783      0.86310191090129
  N   -1.73727641224517     -0.10107981397261      0.44701665272074
  O   -2.59662254409068     -0.89737260634452      0.79864684517396
  O   -1.61843824415796      1.06396630093378      0.80895290379752
