14
Coordinates from ORCA-job run
  C   0.58974017420706     -0.12540981700042     -0.45830212855090
  C   -0.88314042282074     -0.43608123835818     -0.56138888853544
  F   1.20565371616799     -0.65100362369211     -1.52607745203453
  H   -1.29729272095764      0.04693585802647     -1.44485395913285
  H   -0.98332600810551     -1.52064564601600     -0.63259950489597
  N   0.88324307390853      1.35902518866380     -0.42556117107863
  O   0.00450490105878      2.05966716892513      0.06266178149385
  O   1.96476267483741      1.70296424676015     -0.87520920068101
  N   1.24111385458696     -0.74546139739568      0.77457473791483
  O   1.16182102368520     -1.96387798325267      0.80033382835988
  O   1.78555313642952      0.00211749086874      1.57066855856263
  N   -1.68694404941601      0.00138378336100      0.61728785559389
  O   -1.19217610076435     -0.19632957592261      1.72130367889478
  O   -2.79251325281720      0.46671554503238      0.37816186408947
