14
Coordinates from ORCA-job run
  C   0.51465672537300      0.06561885534303     -0.24772576266273
  C   -0.79906178120120     -0.65019258074335     -0.08224661574666
  F   0.71199352332301      0.49770393196538     -1.48454185933361
  H   -0.98022925963322     -0.88301661945444      0.96443918899368
  H   -0.81692173486357     -1.55785191985661     -0.68382803303989
  N   0.67440049086374      1.23606447144641      0.72446062628689
  O   0.33687265621047      0.98986173492138      1.87411461200986
  O   1.15428326951368      2.25902118983044      0.27081562620361
  N   1.66442600748781     -0.87153605280246      0.12207340777578
  O   1.41534460620472     -1.71167362989329      0.97838013386036
  O   2.72282021905978     -0.66526573428923     -0.45212817023129
  N   -1.91874296858145      0.22030926213681     -0.55800427391412
  O   -2.88006009707598     -0.35634767358490     -1.04958874684715
  O   -1.79778165668078      1.42830476498084     -0.37722013335473
