14
Coordinates from ORCA-job run
  C   0.39015979939706     -0.03217149150769      0.42110795428718
  C   -0.67503852760781     -0.63837092219054     -0.45266751124650
  F   0.10758853493696     -0.12149496462192      1.71243830478217
  H   -0.46913268135783     -0.44087703510179     -1.50204045582758
  H   -0.75060878842818     -1.70995480255982     -0.27360981148554
  N   1.72482533128699     -0.73490018713689      0.17248918404862
  O   1.89682354060131     -1.17127129035907     -0.95937778091596
  O   2.49548831840757     -0.76087133385432      1.12003629244258
  N   0.67912888587914      1.42866750864360      0.07029034052006
  O   0.77453553169296      1.65284296076715     -1.12840799908500
  O   0.82594445403523      2.19439908285927      1.00549529662502
  N   -2.00603520969345     -0.03844483459820     -0.12655664534638
  O   -2.01609661817269      1.14393140780428      0.20275276553881
  O   -2.97658257097727     -0.77248409814407     -0.25894993433746
