14

C	-0.297722	-0.055872	-1.488817
C	0.0	0.0	0.0
Br	-2.240995	-0.151469	-1.842885
H	1.095694	0.0	0.0
H	-0.010999	0.902991	-1.923327
N	0.357069	-1.218396	-2.012019
H	0.361659	-1.187522	-3.023524
H	1.321681	-1.212398	-1.680195
C	-0.521445	-1.133674	0.741274
N	-0.936348	-2.05226	1.343323
N	-0.444359	1.292472	0.608395
O	-0.906817	1.267253	1.744116
O	-0.264572	2.301489	-0.066648
Cl	3.158546	0.0	0.0
