14

C	-0.430871	0.017671	-1.454148
C	0.0	0.0	0.0
Br	-2.460414	0.425662	-1.527767
H	1.094729	0.0	0.0
H	-0.008634	0.889353	-1.946357
N	-0.08771	-1.168128	-2.095934
H	-0.487123	-1.994764	-1.67291
H	-0.25565	-1.146866	-3.089935
C	-0.522077	-1.157513	0.705314
N	-0.90106	-2.15558	1.195754
N	-0.383845	1.269704	0.692291
O	-0.816715	1.198179	1.838974
O	-0.173992	2.301522	0.063934
Cl	3.14602	0.0	0.0
