14

C	-0.508021	0.012885	-1.453724
C	0.0	0.0	0.0
Br	0.013227	-1.675775	-2.292209
H	1.09154	0.0	0.0
H	-1.599427	0.016837	-1.460369
N	-0.009926	1.117079	-2.214245
H	0.97825	1.259973	-2.022743
H	-0.530059	1.956721	-1.99214
C	-0.545447	-1.088363	0.79935
N	-0.984536	-1.962017	1.450528
N	-0.496139	1.29849	0.589601
O	0.320928	2.187797	0.790983
O	-1.715412	1.392262	0.754492
Cl	3.229799	0.0	0.0
