14

C	-0.4152	0.051157	-1.470758
C	0.0	0.0	0.0
Br	-0.121744	-1.785773	-2.275089
H	1.092052	0.0	0.0
H	-1.487213	0.183252	-1.586247
N	0.317765	1.084474	-2.066615
H	1.315262	0.986927	-1.889469
H	0.127923	1.187872	-3.053462
C	-0.582196	-1.087956	0.765972
N	-1.053927	-1.944213	1.416889
N	-0.494763	1.304687	0.59233
O	-1.714694	1.462777	0.600762
O	0.334667	2.104223	0.99319
Cl	3.236699	0.0	0.0
