14

C	-0.470548	-0.047447	-1.453522
C	0.0	0.0	0.0
Br	0.098257	1.689288	-2.310914
H	1.090592	0.0	0.0
H	0.166261	-0.771169	-1.962529
N	-1.834691	-0.359137	-1.625758
H	-2.077559	-0.415271	-2.605172
H	-2.419284	0.318548	-1.15439
C	-0.497172	-1.160606	0.733934
N	-0.894161	-2.095222	1.324264
N	-0.5184	1.222478	0.713951
O	-1.714011	1.485674	0.558754
O	0.261916	1.850954	1.412124
Cl	3.218451	0.0	0.0
