14

C	-0.497924	-0.01324	-1.44547
C	0.0	0.0	0.0
Br	0.094776	1.716677	-2.293633
H	1.090675	0.0	0.0
H	0.10336	-0.750192	-1.975581
N	-1.874156	-0.286631	-1.590385
H	-2.143935	-0.307361	-2.56382
H	-2.429291	0.392797	-1.088395
C	-0.493489	-1.172239	0.717851
N	-0.869642	-2.121926	1.297446
N	-0.498129	1.210265	0.750508
O	0.312412	1.853746	1.397667
O	-1.705022	1.455156	0.666844
Cl	3.220672	0.0	0.0
