13

C	-0.299947	0.141072	-1.358793
C	0.044481	-0.15688	0.103476
Br	-0.133022	-1.697914	-2.353751
H	1.092193	-0.469104	0.141718
H	-0.017912	0.792365	0.64554
C	-1.716708	0.456365	-1.559453
N	-2.842279	0.760961	-1.709808
N	0.525187	1.13728	-1.842533
H	1.513632	1.022365	-1.554899
H	0.414328	1.325733	-2.828697
C	-0.836299	-1.133954	0.72983
N	-1.543573	-1.893688	1.278023
Cl	3.328544	0.633449	-0.548249
