11

C	-0.556869	0.024228	-1.427546
C	0.0	0.0	0.0
Cl	0.082128	1.412145	-2.343379
H	1.092668	0.0	0.0
H	-1.642685	0.149215	-1.407156
H	-0.323018	-0.929286	0.482884
C	-0.25442	-1.218913	-2.131133
N	-0.043922	-2.231569	-2.686667
C	-0.530816	1.125324	0.765501
N	-1.00819	2.014401	1.366158
Br	3.453537	0.0	0.0
