11

C	-0.422706	-0.048627	-1.465621
C	0.0	0.0	0.0
Cl	-2.203145	-0.23296	-1.667399
H	1.094366	0.0	0.0
H	0.033827	-0.915764	-1.946115
H	-0.358075	0.916641	0.474285
C	-0.010655	1.162095	-2.172198
N	0.276578	2.136003	-2.761502
C	-0.489931	-1.159998	0.733058
N	-0.893014	-2.092775	1.320718
Br	3.426871	0.0	0.0
