11

C	-0.424333	-0.04724	-1.462782
C	0.0	0.0	0.0
Cl	-2.151712	-0.528291	-1.644139
H	1.094769	0.0	0.0
H	0.165012	-0.821125	-1.957773
H	-0.311875	-0.932543	0.47851
C	-0.221877	1.219588	-2.159901
N	-0.091791	2.240995	-2.724115
C	-0.572186	1.125971	0.721431
N	-1.054271	2.02283	1.305564
Br	3.4276	0.0	0.0
