11

C	-0.553111	0.025273	-1.426941
C	0.0	0.0	0.0
Cl	-0.040014	1.526642	-2.248819
H	1.092683	0.0	0.0
H	-1.64564	0.048687	-1.408919
H	-0.325542	0.911357	0.510058
C	-0.153092	-1.138164	-2.216595
N	0.088128	-2.086289	-2.86573
C	-0.531235	-1.156299	0.713553
N	-1.002075	-2.077776	1.26868
Br	3.458799	0.0	0.0
