11

C	-0.550971	0.002599	-1.428204
C	0.0	0.0	0.0
Cl	-0.043473	1.492264	-2.273384
H	1.092703	0.0	0.0
H	-1.64353	0.021281	-1.412108
H	-0.326777	0.919044	0.494927
C	-0.144494	-1.171822	-2.198789
N	0.098661	-2.130668	-2.831589
C	-0.530178	-1.145528	0.731243
N	-0.995367	-2.059066	1.303787
Br	3.462349	0.0	0.0
