11

C	-0.538808	0.036351	-1.433654
C	0.0	0.0	0.0
Cl	-0.048271	1.559988	-2.228146
H	1.092608	0.0	0.0
H	-1.631529	0.034144	-1.430719
H	-0.334273	0.902781	0.518603
C	-0.09623	-1.108532	-2.229998
N	0.180547	-2.04626	-2.880722
C	-0.528189	-1.170895	0.691831
N	-0.984514	-2.099354	1.24712
Br	3.447238	0.0	0.0
