11

C	-0.420789	-0.068005	-1.465565
C	0.0	0.0	0.0
Cl	-2.199268	-0.268009	-1.668443
H	1.094411	0.0	0.0
H	0.043309	-0.936583	-1.935575
H	-0.359045	0.922259	0.462328
C	-0.016973	1.138375	-2.184007
N	0.260668	2.111368	-2.779262
C	-0.488954	-1.150886	0.747912
N	-0.891847	-2.075203	1.348935
Br	3.426822	0.0	0.0
