11

C	-0.556089	0.021527	-1.42509
C	0.0	0.0	0.0
Cl	0.076395	1.411014	-2.350051
H	1.092723	0.0	0.0
H	-1.642434	0.141763	-1.408638
H	-0.32025	-0.929289	0.484022
C	-0.264456	-1.226892	-2.128231
N	-0.108521	-2.248528	-2.685458
C	-0.527247	1.124874	0.764166
N	-0.991537	2.015275	1.372141
Br	3.45836	0.0	0.0
