11

C	-0.423327	-0.070119	-1.46225
C	0.0	0.0	0.0
Cl	-2.152395	-0.546224	-1.638114
H	1.094551	0.0	0.0
H	0.16327	-0.855189	-1.943004
H	-0.313076	-0.924461	0.493129
C	-0.212088	1.184212	-2.179789
N	-0.063862	2.199725	-2.750663
C	-0.571574	1.138263	0.702588
N	-1.055832	2.045017	1.269365
Br	3.427442	0.0	0.0
