14

C	-0.296074	0.066566	-1.506249
C	0.0	0.0	0.0
F	-0.142302	-1.257129	-2.015877
H	1.09782	0.0	0.0
H	-1.337231	0.315526	-1.749422
N	0.600044	0.985964	-2.078455
H	1.546402	0.802059	-1.733134
H	0.568302	0.970413	-3.088576
N	-0.459549	-1.193161	0.697152
H	0.280763	-1.878098	0.595226
H	-1.281053	-1.569868	0.23827
C	-0.515112	1.207662	0.639038
N	-0.959029	2.16549	1.155485
H	2.809848	0.0	0.0
