14

C	-0.283227	-0.056526	-1.49641
C	0.0	0.0	0.0
F	-1.625544	-0.425053	-1.737005
H	1.097647	0.0	0.0
H	-0.198076	0.941698	-1.943884
N	0.575118	-1.04752	-2.064732
H	0.675598	-0.895048	-3.059913
H	1.496656	-0.948671	-1.625753
N	-0.428736	-1.191816	0.727769
H	-1.229549	-1.589188	0.251322
H	0.331783	-1.86077	0.657917
C	-0.553124	1.209477	0.598919
N	-1.002029	2.191519	1.063366
H	2.757767	0.0	0.0
