14

C	-0.538862	0.031895	-1.4163
C	0.0	0.0	0.0
F	-1.955876	0.278127	-1.357994
H	1.0933	0.0	0.0
H	-0.136752	0.884842	-1.968353
N	-0.262883	-1.18288	-2.070748
H	-0.485299	-1.938827	-1.432873
H	-0.789661	-1.255855	-2.929776
N	-0.373873	-1.254096	0.665915
H	-1.172268	-1.129713	1.274251
H	0.427717	-1.537663	1.221834
C	-0.444594	1.181757	0.737708
N	-0.779917	2.119862	1.362022
H	2.749096	0.0	0.0
