14

C	-0.414879	-0.110501	-1.457751
C	0.0	0.0	0.0
F	-0.092197	1.087923	-2.114198
H	1.097689	0.0	0.0
H	0.186776	-0.891686	-1.930573
N	-1.805669	-0.411411	-1.606307
H	-2.347866	0.346342	-1.204335
H	-2.040229	-0.483232	-2.589252
N	-0.368884	-1.185512	0.773745
H	0.461335	-1.7691	0.81113
H	-1.111901	-1.684396	0.300924
C	-0.576157	1.205768	0.590087
N	-1.057481	2.168789	1.063164
H	2.735652	0.0	0.0
