14

C	-0.322628	0.028919	-1.507974
C	0.0	0.0	0.0
F	-0.204636	-1.282258	-1.974754
H	1.098042	0.0	0.0
H	-1.358701	0.3327	-1.71432
N	0.581362	0.861756	-2.238084
H	0.293294	1.828344	-2.166562
H	1.507751	0.766824	-1.813878
N	-0.472849	-1.139106	0.772631
H	0.253542	-1.84263	0.705201
H	-1.312118	-1.525096	0.354817
C	-0.478691	1.259078	0.567442
N	-0.898992	2.275695	0.982375
H	2.795625	0.0	0.0
