14

C	-0.365304	0.43091	-1.424978
C	0.0	0.0	0.0
F	-0.253152	-0.708662	-2.233935
H	1.100567	0.0	0.0
H	-1.407187	0.759015	-1.512761
N	0.520653	1.43251	-1.918808
H	1.450958	1.275689	-1.525262
H	0.19432	2.353089	-1.664594
N	-0.594154	-1.289046	0.380141
H	-0.034068	-1.638748	1.152609
H	-0.39376	-1.907883	-0.397802
C	-0.458332	1.054226	0.902804
N	-0.828539	1.913131	1.614483
H	2.841454	0.0	0.0
