14

C	-0.541322	0.035459	-1.414642
C	0.0	0.0	0.0
F	-1.961833	0.263464	-1.349911
H	1.093289	0.0	0.0
H	-0.152764	0.898086	-1.961934
N	-0.251469	-1.17027	-2.079299
H	-0.462078	-1.934961	-1.448272
H	-0.778304	-1.244132	-2.938471
N	-0.37167	-1.256662	0.662099
H	0.425563	-1.532866	1.228849
H	-1.177715	-1.13697	1.260968
C	-0.447103	1.177947	0.743013
N	-0.796721	2.10301	1.379
H	2.750489	0.0	0.0
