16

C	0.0	0.0	0.0
C	-0.549371	-0.167705	-1.419339
F	1.35623	0.0	0.0
H	-1.651006	-0.18286	-1.376399
N	-0.472736	1.260276	0.469074
H	-1.498544	1.249638	0.42236
H	-0.208743	1.366658	1.442804
C	-0.393221	-1.154247	0.85599
N	-0.597067	-2.002728	1.64267
N	-0.076163	-1.397155	-2.122948
O	0.582716	-2.221314	-1.497871
O	-0.41729	-1.481223	-3.300112
N	-0.101583	0.988178	-2.257662
O	-0.926651	1.86592	-2.47742
O	1.066921	0.964546	-2.640225
Br	-3.604081	0.0	0.0
