14

C	-0.592596	0.040245	-1.401615
C	0.0	0.0	0.0
Cl	0.22949	-1.100219	-2.492798
H	1.096211	0.0	0.0
H	-1.639843	-0.259048	-1.345499
C	-0.509621	1.390021	-1.952667
N	-0.443848	2.478798	-2.387116
N	-0.447256	-1.255986	0.696431
O	0.035591	-1.432361	1.811243
O	-1.270351	-1.994313	0.156113
N	-0.567339	1.083274	0.802297
H	-0.165565	1.947052	0.450701
H	-0.17173	0.969241	1.732522
Br	3.468531	0.0	0.0
