14

C	-0.549267	0.05578	-1.425828
C	0.0	0.0	0.0
Cl	0.054036	-1.29804	-2.414594
H	1.089879	0.0	0.0
H	-1.635869	-0.052035	-1.381446
C	-0.224319	1.334006	-2.049153
N	-0.018345	2.377901	-2.546089
N	-0.527313	-1.280121	0.610004
O	0.236982	-1.972177	1.265537
O	-1.731156	-1.497944	0.449738
N	-0.454803	1.074422	0.826909
H	-1.3242	1.492495	0.525381
H	0.274266	1.766421	0.921564
Br	3.445283	0.0	0.0
