14

C	-0.521096	0.006714	-1.439246
C	0.0	0.0	0.0
Cl	0.030824	1.46365	-2.293673
H	1.091484	0.0	0.0
H	-0.111725	-0.851188	-1.968845
C	-1.982398	-0.050672	-1.454082
N	-3.154876	-0.105158	-1.411254
N	-0.380325	-1.376725	0.564671
O	-0.182055	-2.352482	-0.156789
O	-0.835697	-1.421967	1.706078
N	-0.48623	1.073933	0.777095
H	0.169313	1.281468	1.517917
H	-1.395363	0.878042	1.174992
Br	3.397753	0.0	0.0
