14

C	-0.489301	-0.077743	-1.443474
C	0.0	0.0	0.0
Cl	-0.014561	1.413577	-2.306021
H	1.101461	0.0	0.0
H	0.013966	-0.902125	-1.945154
C	-1.938178	-0.247375	-1.527961
N	-3.099363	-0.389349	-1.621261
N	-0.388795	-1.278157	0.683005
O	-0.550415	-1.246934	1.899603
O	-0.454298	-2.291623	-0.011618
N	-0.604984	1.105023	0.70971
H	-0.425006	0.953179	1.697006
H	-0.092356	1.93778	0.446749
Br	3.412154	0.0	0.0
