14

C	-0.49074	0.024905	-1.443473
C	0.0	0.0	0.0
Cl	-0.005119	1.568083	-2.20594
H	1.101445	0.0	0.0
H	0.00526	-0.766676	-2.001296
C	-1.941231	-0.127738	-1.538437
N	-3.102752	-0.270981	-1.632874
N	-0.382852	-1.324083	0.592899
O	-0.451217	-2.289045	-0.167995
O	-0.536097	-1.373536	1.809834
N	-0.609171	1.047479	0.788951
H	-0.386132	0.854171	1.75934
H	-0.129275	1.910305	0.546767
Br	3.414019	0.0	0.0
