16

C	-0.409006	-0.00754	-1.462916
C	0.0	0.0	0.0
F	-0.070905	1.184166	-2.089725
H	1.097016	0.0	0.0
H	0.116205	-0.810571	-1.989765
C	-1.866833	-0.193808	-1.635388
N	-3.024409	-0.353525	-1.750928
C	-0.452791	-1.296155	0.666601
H	-1.543489	-1.360579	0.746808
H	-0.090062	-2.171384	0.118807
H	-0.027304	-1.349123	1.671119
C	-0.523235	1.2323	0.721911
H	-0.176361	2.143015	0.23208
H	-1.619189	1.245483	0.759017
H	-0.143581	1.24118	1.746436
Br	3.619575	0.0	0.0
