17

C	0.0	0.0	0.0
C	-0.278516	-0.026548	-1.55499
Br	1.945384	0.0	0.0
H	0.487647	0.644834	-1.954176
N	-0.522477	1.215468	0.638047
O	-0.548161	1.242219	1.883667
O	-0.517199	2.252212	-0.077844
C	-0.440984	-1.167903	0.736332
N	-0.580147	-2.201012	1.292676
N	-1.610918	0.424823	-1.983656
H	-1.719782	1.368173	-1.620129
H	-1.560821	0.504493	-3.001394
C	-0.079383	-1.435521	-2.098916
H	0.888629	-1.853161	-1.823332
H	-0.145706	-1.414308	-3.191972
H	-0.87525	-2.080526	-1.719217
H	-1.834202	0.0	0.0
