17

C	0.0	0.0	0.0
C	-0.312806	-0.032713	-1.549916
Br	1.930683	0.0	0.0
H	-1.383521	-0.216066	-1.580373
N	-0.403459	1.197621	0.806501
O	-0.373229	2.303788	0.254376
O	-0.468508	1.033902	2.027336
C	-0.524841	-1.192627	0.651567
N	-0.597248	-2.245605	1.18562
N	0.338227	-1.221642	-2.104105
H	1.25677	-0.994821	-2.46584
H	-0.230248	-1.559634	-2.869498
C	-0.027692	1.242277	-2.335633
H	-0.20785	1.017606	-3.390661
H	-0.682883	2.051817	-2.029901
H	1.005462	1.573097	-2.228179
H	-2.124091	0.0	0.0
