17

C	0.0	0.0	0.0
C	-0.295172	0.017196	-1.583003
Br	1.941034	0.0	0.0
H	0.587787	0.49696	-2.007042
N	-0.375049	1.265651	0.70007
O	-0.501487	1.238284	1.924409
O	-0.323603	2.299404	0.0226
C	-0.491447	-1.141842	0.734805
N	-0.581474	-2.171296	1.310339
N	-1.415344	0.751561	-2.142822
H	-2.245356	0.428061	-1.648991
H	-1.299848	1.721162	-1.866051
C	-0.357005	-1.429705	-2.049327
H	0.500343	-2.009159	-1.702012
H	-0.386712	-1.441431	-3.140271
H	-1.26713	-1.899002	-1.666722
H	-1.98409	0.0	0.0
