17

C	0.0	0.0	0.0
C	-0.276405	-0.100917	-1.552027
Br	1.945486	0.0	0.0
H	0.499244	0.538453	-1.983915
N	-0.522327	1.243628	0.582591
O	-0.517956	2.246413	-0.179007
O	-0.550426	1.325816	1.82578
C	-0.434011	-1.13296	0.793799
N	-0.580347	-2.134973	1.401557
N	-1.601348	0.348194	-2.011674
H	-1.52575	0.408096	-3.02893
H	-1.706334	1.301606	-1.673778
C	-0.096988	-1.539402	-2.0195
H	0.856228	-1.962307	-1.703574
H	-0.144493	-1.575564	-3.112728
H	-0.913666	-2.145447	-1.62012
H	-1.832617	0.0	0.0
