16
Coordinates from ORCA-job run
  C   1.12758776279291      0.13247396716313     -0.19049619999184
  C   -0.36669403866447     -0.08496955951234     -0.36278932713194
  Cl  1.97785774400762      0.31490136568499     -1.72899202375232
  H   -0.48330525172114     -0.92731365856735     -1.05304020458507
  H   1.35461347849782      0.99939159703949      0.42917307188042
  N   1.71102048599867     -1.04454221482148      0.54773790433197
  O   1.66638812649930     -2.13441067371412     -0.00861018405247
  O   2.12064231943472     -0.81896552914762      1.68422605122122
  C   -1.01446704514126      1.16281912873101     -0.95715141446285
  H   -0.88423494840495      2.02002673383615     -0.28946837538032
  H   -0.59568909487467      1.41814067475725     -1.93094192102945
  H   -2.08673853426367      0.99908623109526     -1.08381747600852
  C   -1.00133048434633     -0.44321843167080      0.98152527034515
  H   -2.08350805035743     -0.52799663084282      0.86288960151088
  H   -0.63687147577892     -1.39602896567899      1.36941327412580
  H   -0.80427099367819      0.32960596564824      1.73034195297933
