16
Coordinates from ORCA-job run
  C   1.05828594687842     -0.40640378868595     -0.56109231619972
  C   -0.43939697108981     -0.11097385186623     -0.51887998073238
  Cl  1.41201367138331     -2.09288935371924     -0.93654363673010
  H   -0.80194598141215     -0.43355853049824     -1.50251656506531
  H   1.56127027686963      0.21184315831756     -1.30248274546628
  N   1.69648843691749     -0.02221325349839      0.75201145187550
  O   1.64518442296982     -0.81264186351094      1.68539708016912
  O   2.16691713244000      1.11403241949534      0.78364699363695
  C   -0.68221577893651      1.39206314997522     -0.38306865095227
  H   -1.74730113679448      1.60147579595421     -0.50477010067234
  H   -0.13594991894390      1.96293434227484     -1.13778821564696
  H   -0.37892567816751      1.75929740659150      0.59959051861113
  C   -1.18756115480513     -0.89661508226806      0.55375547695804
  H   -2.26088016313783     -0.73211588575146      0.43405610671875
  H   -0.90662523965595     -0.56714594001846      1.55579987018264
  H   -0.99835786451539     -1.96808872279170      0.48388471331322
