16
Coordinates from ORCA-job run
  C   1.12717385530934      0.22124552751557     -0.07872762588194
  C   -0.33089374202635     -0.06350294622250     -0.39993826546101
  Cl  2.07957626001109      0.63251675322039     -1.50932918304245
  H   -0.33518432195889     -0.82585140727520     -1.18635075643722
  H   1.24501624048206      1.02203589683004      0.65063247672170
  N   1.73132335584189     -0.99676699083976      0.57030075110260
  O   2.03632165747936     -0.88117019367856      1.75508632802327
  O   1.80503324510346     -2.01481728067367     -0.10596163707854
  C   -1.01645005387212      1.20337996102073     -0.90421686451687
  H   -2.05945161769395      0.98878550239840     -1.14655189294966
  H   -1.00572255625917      1.97984446928530     -0.13312679439251
  H   -0.53793295855036      1.60060272377835     -1.79981577615308
  C   -1.04041003014299     -0.61332401822992      0.83824439545858
  H   -2.10292045226541     -0.74343172871677      0.62250683785990
  H   -0.95045484028866      0.07512463708312      1.68368630442777
  H   -0.64502404116932     -1.58367090549552      1.14356170231946
