16
Coordinates from ORCA-job run
  C   1.05688140983811     -0.38753165666313     -0.57698713882920
  C   -0.44335686723642     -0.10899895918336     -0.51585951143175
  Cl  1.42411539198834     -2.06447102330782     -0.98137243961483
  H   -0.81307887837079     -0.42326926817770     -1.49944672416707
  H   1.54516953785875      0.24691433229645     -1.31452278337409
  N   1.70379893225244     -0.01617683684922      0.73550353254781
  O   2.16094062925846      1.12498057615114      0.78036358755503
  O   1.67154199892811     -0.82208959017618      1.65641785722637
  C   -0.70140037848624      1.38966252143254     -0.35999548660579
  H   -0.17128670526648      1.97497084897183     -1.11519186982707
  H   -0.39023651085720      1.75003325869457      0.62271515516169
  H   -1.77033506527943      1.58770665474010     -0.46621640662543
  C   -1.17123609399539     -0.91492068863745      0.55571454738804
  H   -2.24789399217708     -0.76690052731866      0.44489121319873
  H   -0.88830391465446     -0.58822914845791      1.55814219066445
  H   -0.96531949380071     -1.98268049351520      0.47684427673310
