11
Coordinates from ORCA-job run
  C   -0.97054369374146     -0.51337163935491      0.22661049545594
  C   0.33422566182234     -0.83657680171879      0.18533674900399
  H   -1.71685618064229     -1.26589020783855      0.46635043855323
  H   0.60938159987029     -1.86547429966819      0.38795030861465
  N   -1.48293503243212      0.77968034373056      0.08114528394169
  H   -0.87609426119343      1.40379864743208     -0.42964208231824
  H   -2.42094558132267      0.80453042074416     -0.28635378406184
  C   1.41376091684663      0.17078255693846     -0.10047250681980
  H   2.40277811008910     -0.28689998062342     -0.06371371591685
  H   1.40283180096921      0.99033346834713      0.62661514684322
  H   1.30439665973442      0.61908749201147     -1.09582633329600
