11
Coordinates from ORCA-job run
  C   -0.99052382915452     -0.52283124076519      0.04677355625211
  C   0.29508258913904     -0.85501054904509     -0.16644684990734
  H   -1.76246323168311     -1.28752709729989      0.05634199848132
  H   0.53093839042448     -1.90247956500574     -0.31669363029594
  N   -1.47343222748685      0.78414708530680      0.16634475766750
  H   -2.30795829072077      0.85777830017671      0.72641834395901
  H   -0.77647612376287      1.45086886323198      0.46369563143756
  C   1.39924053706271      0.16407053896803     -0.23100203447490
  H   1.21921299413512      0.90385067831167     -1.01888200814315
  H   2.36124703424529     -0.30630566787354     -0.43659461805175
  H   1.50613215780149      0.71443865399425      0.71204485307557
