11
Coordinates from ORCA-job run
  C   -0.73861367377104      0.39315594969807     -0.15196136504448
  C   0.27280696711318     -0.43424926749599      0.15750881396251
  H   -0.53336368708243      1.33580382043205     -0.65667863101971
  H   0.04886014345634     -1.37790457723006      0.65584269615551
  N   -2.10539348230366      0.13068749548315      0.01434274562335
  H   -2.28314078172462     -0.63300372262189      0.65107098542555
  H   -2.63714172790775      0.94558945468315      0.28064847624815
  C   1.70780208468403     -0.14762608966245     -0.17162946399905
  H   2.12131654188115     -0.89260503667199     -0.85888045082580
  H   1.81140270731957      0.83185237828267     -0.64534953664234
  H   2.33646490833521     -0.15370040489673      0.72408573011631
