11
Coordinates from ORCA-job run
  C   -0.98453809855620     -0.52923565204914      0.09232178202802
  C   0.32022896860429     -0.84682866931082      0.16468542278256
  H   -1.74622644276441     -1.28597434437654      0.25925789347179
  H   0.58119883400021     -1.87189233174656      0.40232145966132
  N   -1.48723557681904      0.71809770034869     -0.29000572951520
  H   -0.83922395704251      1.47933460501929     -0.15147978950222
  H   -2.38896975677545      0.93180025601688      0.10576147154415
  C   1.41591818515734      0.15033286072778     -0.09372560217066
  H   1.34489608466228      0.57517257217554     -1.10124491926145
  H   1.38437144811892      0.98796431712056      0.61413488047938
  H   2.40058031141456     -0.30877131392568     -0.00102686951769
