16

C	0.0	0.0	0.0
C	-0.427815	0.067624	-1.515517
Br	1.933799	0.0	0.0
H	-1.302503	0.698614	-1.584774
N	-0.453954	1.272815	0.668583
O	-0.499783	2.281845	-0.042972
O	-0.470034	1.270599	1.901206
C	-0.479083	-1.132451	0.763086
N	-0.568541	-2.105874	1.427795
N	-0.892455	-1.305801	-1.966062
O	-0.110538	-2.241381	-1.796021
O	-1.943635	-1.367074	-2.602605
N	0.563982	0.549317	-2.429615
H	0.114981	0.749846	-3.314379
H	1.322057	-0.107285	-2.560062
H	-2.029837	0.0	0.0
