16

C	0.0	0.0	0.0
C	-0.374637	-0.072016	-1.496826
Br	1.932468	0.0	0.0
H	0.089784	0.769823	-2.010579
N	-0.361814	1.322651	0.642238
O	-0.275115	2.313454	-0.076485
O	-0.544773	1.323062	1.857333
C	-0.589751	-1.08791	0.755241
N	-0.719866	-2.095443	1.367881
N	-1.903037	0.167434	-1.651254
O	-2.211167	1.348615	-1.928879
O	-2.549496	-0.820087	-2.08535
N	0.027866	-1.329652	-2.030192
H	-0.649768	-2.016364	-1.708143
H	-0.074543	-1.290908	-3.036545
H	-1.972208	0.0	0.0
