16

C	0.0	0.0	0.0
C	-0.255218	-0.109089	-1.541404
Br	1.936487	0.0	0.0
H	0.515248	0.488048	-2.025617
N	-0.413025	1.30613	0.568468
O	-0.400093	2.260255	-0.218429
O	-0.493477	1.390204	1.796353
C	-0.495734	-1.113065	0.774223
N	-0.659129	-2.154879	1.309159
N	-1.522351	0.515531	-2.210715
O	-2.566714	-0.129207	-2.232642
O	-1.32774	1.550162	-2.848917
N	-0.16132	-1.477599	-1.908103
H	-0.173779	-1.572542	-2.914436
H	-0.94433	-1.987425	-1.514581
H	-1.853514	0.0	0.0
