18
Coordinates from ORCA-job run
  C   0.70481259538996      0.32075900625131      0.71159238689854
  C   -0.72656707658610     -0.13943861880410      0.34666386587650
  H   0.61278449323129      1.20502655579400      1.35544881281200
  H   -1.22007270098746     -0.37783119950936      1.29744008768505
  C   1.58811373957931      0.68554502179384     -0.48758600858645
  H   2.56334150328396      1.03608395646309     -0.14431964005057
  H   1.13003775752094      1.48357517045521     -1.07371829049523
  H   1.75171535062484     -0.17700764865102     -1.13501205134174
  C   1.36504996906809     -0.71548745723249      1.51257884535218
  N   1.88588869513099     -1.56443357686639      2.13507320002187
  C   -0.73348488891760     -1.39936081083582     -0.51509905038350
  H   -0.32238410217551     -1.20467196874005     -1.50900537465694
  H   -1.75824316550594     -1.75500976575501     -0.64945403266722
  H   -0.15799214408614     -2.20670713688421     -0.05555349112197
  C   -1.51263077314239      0.98886026752191     -0.31793668808429
  H   -2.56175555632112      0.70254900658857     -0.42725056726302
  H   -1.47755771729022      1.90789356400326      0.27441183722265
  H   -1.13005597881690      1.21065563440726     -1.31727384121786
