18
Coordinates from ORCA-job run
  C   0.78369067894274      0.08893561149685      0.47428427115715
  C   -0.45949223211426     -0.31754691121228     -0.34570043839370
  H   0.43830428959212      0.43521877978451      1.45838085642167
  H   -0.09836507892151     -0.71812837600017     -1.30242940555079
  C   1.62366567379029      1.19543975474138     -0.17485931557409
  H   1.06667659948640      2.13201590187904     -0.20985813084654
  H   2.54002559442793      1.36797832430285      0.39251430453834
  H   1.90105521723897      0.91411696101001     -1.19376592403464
  C   1.62969800422380     -1.08647176985068      0.70852216125022
  N   2.31414870886014     -2.02765023358683      0.86671738371547
  C   -1.34942313577134      0.89145767573654     -0.62637151708246
  H   -2.26545577776030      0.57485078457340     -1.13114423303648
  H   -0.86223741803329      1.62983499851072     -1.26522166496531
  H   -1.63871841242199      1.38376745773025      0.30823085308610
  C   -1.24980381927358     -1.40951173278713      0.37202966434285
  H   -1.62111952766947     -1.04372583566508      1.33502057124368
  H   -0.64182264018943     -2.29763213487293      0.55663866277908
  H   -2.11382672440724     -1.71194925579044     -0.22498809905056
