18
Coordinates from ORCA-job run
  C   0.73032402004250      0.57721940456423      0.32732722333437
  C   -0.60065664997731      0.20803452998374     -0.36299778055356
  H   0.68052639953173      1.64171743747411      0.58994007831873
  H   -0.63732726045674      0.81512465275788     -1.27774993226250
  C   1.96535291438139      0.35474525329323     -0.55289389617147
  H   1.83149272885326      0.86360394956233     -1.51086961932371
  H   2.85917971438962      0.75624088402446     -0.07133866861324
  H   2.13326615857235     -0.70610171913540     -0.74156794556071
  C   0.86815139241676     -0.16294576695548      1.58608597959536
  N   0.97170886332311     -0.78248620020394      2.57863403350088
  C   -1.78801714728612      0.58886388490435      0.51791492678887
  H   -2.72948240478645      0.41398725917990     -0.00907596681089
  H   -1.75303659843839      1.64471639650348      0.80179239561040
  H   -1.80029548249517     -0.00873883111980      1.43384094639061
  C   -0.66302791878323     -1.26618110846569     -0.75337663442301
  H   0.12054583626418     -1.54095361629271     -1.46239850160809
  H   -0.56761390982360     -1.90537661919785      0.12944940306275
  H   -1.62409065572790     -1.48946979087686     -1.22371604127478
