18
Coordinates from ORCA-job run
  C   0.69657831100674      0.30669924241751      0.72315138780602
  C   -0.72919797819831     -0.15030759164376      0.33368027665424
  H   0.59586858838772      1.18480031235372      1.37424329941752
  H   -1.22715406425791     -0.42633565008802      1.27179460548227
  C   1.59746818881096      0.68095723263711     -0.45997824816824
  H   2.55992798206530      1.04828400587959     -0.09851276146136
  H   1.78759149248688     -0.18176131051368     -1.10001902638441
  H   1.13887388225557      1.46911011785759     -1.05929106150034
  C   1.34487036161335     -0.73710038664893      1.52473341675353
  N   1.85640680149757     -1.58867231996094      2.15026595364239
  C   -0.71938150018009     -1.37794332435632     -0.57335278585589
  H   -0.12899759211129     -2.19188006283838     -0.14536737184609
  H   -0.31512647168674     -1.13989415949475     -1.56052220792153
  H   -1.73850838741638     -1.74553614819116     -0.71748616524588
  C   -1.52063123578591      0.99536079629382     -0.29372045227334
  H   -2.56304695840148      0.69886100349363     -0.43561821367136
  H   -1.12380597096596      1.26935755228437     -1.27437370989254
  H   -1.51073544912002      1.88600069051860      0.34137306446500
