15

C	0.0	0.0	0.0
C	-0.36206	0.16303	-1.516024
F	1.379529	0.0	0.0
H	0.44394	-0.388275	-2.01726
N	-0.571696	0.998449	0.818613
H	-0.399742	0.774158	1.793989
H	-1.596012	0.90911	0.658259
C	-0.338074	-1.403688	0.395902
N	-0.514184	-2.506535	0.760974
C	-0.15369	1.577148	-1.887975
N	0.096107	2.662168	-2.261416
N	-1.626642	-0.327942	-2.007623
H	-1.564704	-1.339807	-2.037563
H	-2.370149	-0.120362	-1.288578
H	-3.176489	0.0	0.0
