15

C	0.0	0.0	0.0
C	-0.407008	0.004289	-1.500471
F	1.375051	0.0	0.0
H	0.475642	-0.395182	-2.012522
N	-0.550677	1.094988	0.7128
H	-1.575697	1.010615	0.563485
H	-0.383625	0.959309	1.705348
C	-0.325987	-1.33438	0.595876
N	-0.453383	-2.347097	1.177836
C	-0.550401	1.401309	-1.980969
N	-0.679279	2.436977	-2.520014
N	-1.53611	-0.863295	-1.760645
H	-2.32674	-0.550597	-1.129911
H	-1.821038	-0.7501	-2.72878
H	-3.163335	0.0	0.0
