15

C	0.0	0.0	0.0
C	-0.42808	-0.016222	-1.492126
F	1.400261	0.0	0.0
H	0.251271	-0.745118	-1.969737
N	-0.469302	1.078432	0.737444
H	-0.60677	1.964663	0.297675
H	-0.819278	0.954923	1.65687
C	-0.40037	-1.275638	0.625418
N	-0.605857	-2.308841	1.151665
C	-0.090163	1.315017	-2.041968
N	0.224275	2.365914	-2.46864
N	-1.790017	-0.382098	-1.78103
H	-1.862754	-1.392062	-1.73592
H	-2.52269	-0.06409	-1.049195
H	-3.65512	0.0	0.0
