15

C	0.0	0.0	0.0
C	-0.393452	-0.211404	-1.486333
F	1.401543	0.0	0.0
H	0.48788	-0.692325	-1.924143
N	-0.543554	1.185796	0.549311
H	-0.381761	1.190853	1.551963
H	-1.568096	1.088049	0.409359
C	-0.310277	-1.23731	0.778683
N	-0.410632	-2.164008	1.494192
C	-0.507246	1.102049	-2.168253
N	-0.588801	2.066774	-2.83591
N	-1.527087	-1.097805	-1.62417
H	-2.320415	-0.698925	-1.050999
H	-1.804558	-1.138205	-2.597811
H	-3.161861	0.0	0.0
