15

C	0.0	0.0	0.0
C	-0.496825	-0.071125	-1.447454
F	1.414385	0.0	0.0
H	-1.603918	-0.151595	-1.26368
N	-0.507716	1.12152	0.69874
H	-0.4144	1.904596	0.054337
H	-1.531759	0.914231	0.733987
C	-0.361831	-1.251761	0.709747
N	-0.483671	-2.270059	1.280202
C	0.00439	-1.243702	-2.168216
N	0.400067	-2.14707	-2.809748
N	-0.205633	1.186504	-2.126615
H	-0.887482	1.339077	-2.858416
H	0.71754	1.157526	-2.542142
H	-2.922617	0.0	0.0
