16

C	0.0	0.0	0.0
C	-0.350402	0.087294	-1.510098
F	1.358786	0.0	0.0
H	-1.390401	0.405867	-1.574428
N	-0.328557	1.319998	0.706188
O	-0.197614	1.305068	1.927237
O	-0.534009	2.317077	0.022476
C	-0.782549	-1.051773	0.654147
N	-0.733482	-2.112767	1.206528
C	-0.184602	-1.299735	-2.140376
H	-0.373209	-1.249015	-3.21473
H	0.828382	-1.674252	-1.981705
H	-0.891695	-1.991889	-1.683087
C	0.501286	1.046366	-2.207631
N	1.166362	1.772494	-2.847569
H	-2.207112	0.0	0.0
