16

C	0.0	0.0	0.0
C	-0.210614	-0.204929	-1.542709
F	1.382403	0.0	0.0
H	0.503498	0.51482	-1.955868
N	-0.46443	1.335094	0.442073
O	-0.406259	2.239428	-0.41858
O	-0.527521	1.539606	1.665631
C	-0.525667	-1.034319	0.873351
N	-0.593286	-1.977188	1.585588
C	-1.541431	0.025725	-2.251725
H	-1.932376	1.000462	-1.968556
H	-1.346002	0.007593	-3.334006
H	-2.27155	-0.737985	-1.999995
C	0.292678	-1.543327	-1.87227
N	0.647792	-2.61975	-2.181686
H	-2.012398	0.0	0.0
