16

C	0.0	0.0	0.0
C	-0.361626	0.201617	-1.495508
F	1.34869	0.0	0.0
H	-1.397702	0.539495	-1.524531
N	-0.348126	1.253249	0.811257
O	-0.291277	1.129738	2.030796
O	-0.491852	2.310627	0.205116
C	-0.747158	-1.11527	0.581226
N	-0.679285	-2.20242	1.075423
C	-0.222395	-1.137508	-2.226335
H	-0.407105	-1.002197	-3.294536
H	-0.947031	-1.846416	-1.822862
H	0.783495	-1.544627	-2.095155
C	0.502612	1.194334	-2.132881
N	1.171538	1.944491	-2.742157
H	-2.236975	0.0	0.0
