16

C	0.0	0.0	0.0
C	-0.369302	-0.071254	-1.51082
F	1.394187	0.0	0.0
H	0.49398	0.38248	-2.003657
N	-0.383598	1.290421	0.511928
H	-0.404753	1.249112	1.523539
H	-1.320643	1.506501	0.191662
N	-0.430845	-1.174722	0.701935
H	-1.452348	-1.164166	0.707687
H	-0.117413	-1.105069	1.665705
N	-1.538351	0.705446	-1.87241
H	-1.690909	0.635687	-2.872008
H	-2.379525	0.363929	-1.394863
C	-0.427143	-1.482599	-1.963913
N	-0.539466	-2.540043	-2.465893
Cl	-3.966275	0.0	0.0
