16

C	0.0	0.0	0.0
C	-0.208254	-0.039682	-1.536219
F	1.418333	0.0	0.0
H	0.367109	-0.931148	-1.821565
N	-0.456824	1.211723	0.55335
H	-0.144274	1.333778	1.506857
H	-0.201012	1.993069	-0.035102
N	-0.487609	-1.18693	0.611666
H	-1.511015	-1.102045	0.538551
H	-0.264589	-1.151396	1.60269
N	0.368366	1.198332	-2.094578
H	1.374908	1.135328	-2.006472
H	0.133066	1.258308	-3.077285
C	-1.521505	-0.226751	-2.16914
N	-2.270692	-0.397319	-3.060266
Cl	-3.642986	0.0	0.0
