16

C	0.0	0.0	0.0
C	-0.387401	0.043632	-1.492648
F	1.422185	0.0	0.0
H	0.274904	0.785056	-1.952231
N	-0.439377	1.200262	0.618302
H	-0.490063	1.094411	1.623513
H	-1.359023	1.435995	0.255988
N	-0.483204	-1.194674	0.600052
H	0.053777	-2.002386	0.311731
H	-0.511622	-1.133493	1.608119
N	-1.753301	0.475152	-1.63133
H	-2.433203	-0.056586	-1.079072
H	-2.057553	0.487392	-2.59465
C	-0.062094	-1.26441	-2.116376
N	0.129185	-2.284129	-2.668269
Cl	-4.498236	0.0	0.0
