17

C	-0.28586	-0.120305	-1.5201
C	0.0	0.0	0.0
Br	-2.138061	-0.670113	-1.93306
H	1.093765	0.0	0.0
N	-0.165868	1.273896	-2.237822
O	-0.977294	2.140853	-1.946014
O	0.742039	1.374296	-3.055223
N	0.60954	-1.065364	-2.020567
H	0.595137	-1.106604	-3.031183
H	1.558795	-0.869757	-1.684385
N	-0.432749	-1.097203	0.79636
H	-1.359044	-1.412988	0.54035
H	0.235518	-1.848983	0.701617
N	-0.551273	1.267367	0.566248
O	-1.707156	1.222853	0.980483
O	0.17827	2.253354	0.570318
Br	3.419941	0.0	0.0
