17

C	-0.479024	0.005003	-1.454259
C	0.0	0.0	0.0
Br	0.202333	-1.688774	-2.263804
H	1.097796	0.0	0.0
N	-2.030201	-0.098867	-1.436102
O	-2.555728	0.835459	-0.843807
O	-2.610168	-1.024446	-1.980725
N	-0.114941	1.138385	-2.178674
H	0.773687	1.507853	-1.862091
H	-0.109786	0.971432	-3.174488
N	-0.609399	-1.109794	0.69803
H	-0.038821	-1.92583	0.518249
H	-0.570533	-0.917589	1.691078
N	-0.359605	1.286216	0.705041
O	-1.05151	1.223892	1.71972
O	0.133578	2.311853	0.249376
Br	3.423716	0.0	0.0
