17

C	-0.543518	-0.003347	-1.421915
C	0.0	0.0	0.0
Br	-2.609157	0.205966	-1.291646
H	1.090851	0.0	0.0
N	-0.081886	1.133692	-2.324333
O	-0.596405	1.160192	-3.437896
O	0.829658	1.837031	-1.921976
N	-0.166412	-1.163759	-2.060678
H	-0.228554	-1.962824	-1.444472
H	-0.573939	-1.283344	-2.975224
N	-0.375745	-1.23143	0.628482
H	0.29862	-1.43881	1.353775
H	-1.300874	-1.169544	1.035009
N	-0.442369	1.205505	0.802915
O	-0.452895	1.052523	2.023075
O	-0.723495	2.245052	0.217921
Br	3.370252	0.0	0.0
