19

C	0.0	0.0	0.0
C	-0.200085	-0.543866	-1.468702
Br	1.978456	0.0	0.0
H	0.459391	0.048848	-2.102939
C	-0.494865	1.42091	0.169451
H	-1.590298	1.395546	0.147997
H	-0.134595	2.072579	-0.627493
H	-0.163736	1.816279	1.133188
C	-0.557534	-0.915806	1.062022
H	-1.650298	-0.907361	0.945876
H	-0.178	-1.934726	0.974752
H	-0.307326	-0.53519	2.054768
N	-1.549253	-0.259483	-2.106105
O	-2.308984	-1.197693	-2.296778
O	-1.717422	0.899418	-2.47581
N	0.058425	-1.947728	-1.673827
H	0.873927	-2.218465	-1.140813
H	-0.747871	-2.473256	-1.35648
Cl	-3.966886	0.0	0.0
