19

C	0.0	0.0	0.0
C	-0.36158	-0.129223	-1.506943
Br	1.968144	0.0	0.0
H	0.16571	-1.004171	-1.89123
C	-0.523757	1.236836	0.705235
H	-0.144512	2.155119	0.263509
H	-0.235744	1.198063	1.759009
H	-1.617718	1.229826	0.649525
C	-0.496995	-1.258082	0.696828
H	-0.144896	-2.160717	0.189987
H	-0.141469	-1.280257	1.729317
H	-1.591755	-1.23957	0.700251
N	0.240897	1.007668	-2.316277
O	1.056594	0.713765	-3.188315
O	-0.172041	2.141944	-2.090393
N	-1.733386	-0.201585	-1.870057
H	-2.057084	-1.157778	-1.854607
H	-2.379052	0.311702	-1.270767
Cl	-4.241079	0.0	0.0
