14

C	0.0	0.0	0.0
C	-0.526767	-0.18083	-1.418778
F	1.349608	0.0	0.0
H	-0.465464	0.796433	-1.906763
H	-1.613335	-0.38288	-1.266433
N	-0.559795	1.088338	0.6867
H	-1.594631	0.882304	0.646006
H	-0.399525	1.926166	0.135872
N	-0.334353	-1.274253	0.816261
O	-0.409958	-1.171122	2.031894
O	-0.377468	-2.32582	0.183498
C	0.163294	-1.148879	-2.257704
N	0.715399	-1.87103	-3.0018
H	-2.956955	0.0	0.0
