14

C	0.0	0.0	0.0
C	-0.34802	-0.243	-1.485073
F	1.388512	0.0	0.0
H	0.131263	-1.178812	-1.83212
H	-1.419283	-0.319423	-1.394277
N	-0.403929	1.22245	0.581575
H	0.443207	1.48657	1.081507
H	-1.162707	1.013474	1.225962
N	-0.452866	-1.260771	0.796263
O	-0.525189	-2.331591	0.18379
O	-0.443972	-1.141231	2.031763
C	0.034281	0.909882	-2.326469
N	0.317249	1.857847	-2.98685
H	-2.662109	0.0	0.0
