14

C	0.0	0.0	0.0
C	-0.562893	0.201045	-1.38786
F	1.353508	0.0	0.0
H	-1.670494	0.109068	-1.230815
H	-0.209122	-0.580965	-2.058484
N	-0.579365	0.86438	0.905974
H	-1.619358	0.728138	0.752166
H	-0.342348	0.580033	1.850728
N	-0.253744	-1.518723	0.391634
O	-0.261478	-1.758819	1.595516
O	-0.328674	-2.362322	-0.494455
C	-0.207611	1.50821	-1.912704
N	0.097036	2.530205	-2.406285
H	-2.956946	0.0	0.0
