14

C	0.0	0.0	0.0
C	-0.546227	-0.124869	-1.401119
F	1.388577	0.0	0.0
H	-1.654033	-0.169025	-1.239787
H	-0.196176	-1.04623	-1.863407
N	-0.57538	1.048019	0.681882
H	-0.337488	0.989012	1.666538
H	-1.617957	0.876252	0.56124
N	-0.231219	-1.387627	0.726331
O	-0.259236	-1.342785	1.95305
O	-0.270487	-2.4137	0.056131
C	-0.174494	1.02141	-2.213396
N	0.120766	1.91806	-2.913433
H	-2.943429	0.0	0.0
