16

C	0.0	0.0	0.0
C	-0.389897	-0.082535	-1.487626
F	1.395888	0.0	0.0
H	0.374191	-0.727098	-1.938514
H	-0.309281	-0.939545	0.47016
C	-0.559395	1.174511	0.755323
H	-0.216221	2.113878	0.317669
H	-0.239785	1.132187	1.799039
H	-1.652551	1.135895	0.721402
C	-0.252496	1.22369	-2.140417
N	-0.154037	2.257371	-2.689135
C	-1.768057	-0.693792	-1.742922
H	-2.580774	-0.181652	-1.223712
H	-1.984897	-0.692884	-2.813525
H	-1.772588	-1.730177	-1.39609
Cl	-4.646583	0.0	0.0
