14

C	-0.51368	0.011022	-1.44149
C	0.0	0.0	0.0
Cl	0.035481	-1.437855	-2.352387
H	1.095749	0.0	0.0
H	-1.607313	-0.036381	-1.461713
C	-0.106056	1.208801	-2.177141
N	0.16164	2.174116	-2.790548
C	-0.436505	-1.241639	0.773207
H	0.045496	-2.119256	0.342174
H	-1.52211	-1.383242	0.776232
H	-0.087044	-1.149086	1.803146
C	-0.494245	1.203029	0.648984
N	-0.908135	2.167727	1.180912
H	2.684011	0.0	0.0
