14

C	-0.511299	0.014569	-1.443118
C	0.0	0.0	0.0
Cl	0.043442	-1.430282	-2.355005
H	1.095776	0.0	0.0
H	-1.604888	-0.035119	-1.464619
C	-0.11174	1.215993	-2.177471
N	0.125783	2.183791	-2.798834
C	-0.438567	-1.245296	0.766578
H	-0.108892	-1.150646	1.80319
H	0.059076	-2.119055	0.344224
H	-1.523668	-1.396059	0.750593
C	-0.492713	1.202666	0.651173
N	-0.902753	2.168565	1.184267
H	2.687459	0.0	0.0
