14

C	-0.345892	-0.050034	-1.484094
C	0.0	0.0	0.0
Cl	-0.038122	1.513399	-2.298471
H	1.095528	0.0	0.0
H	0.352509	-0.765031	-1.934844
C	-1.722701	-0.461189	-1.755635
N	-2.825262	-0.821472	-1.946745
C	-0.372884	-1.311996	0.691048
H	0.010869	-1.287186	1.713026
H	0.13428	-2.134491	0.177945
H	-1.449571	-1.500909	0.713598
C	-0.575784	1.144813	0.674054
N	-1.052095	2.053086	1.251314
H	2.649022	0.0	0.0
