17
Coordinates from ORCA-job run
  C   -0.83742765994295     -0.25008763280494     -0.17883553752283
  C   0.60086316115532      0.19603506411166     -0.46039487789880
  F   -1.07820923331449     -1.29542148220920     -1.12541187386336
  H   0.61460159561273      0.62995420294737     -1.46066316055825
  N   -1.02907718112874     -0.70557165606169      1.14355747868161
  H   -0.31016903903426     -1.37635415005754      1.38497739746083
  H   -1.93579609134434     -1.15074891575715      1.22296999489000
  N   -1.70559563780226      0.84448299843924     -0.46328184071549
  H   -2.55296100281610      0.79201683681417      0.08542398387692
  H   -1.93490290237370      0.86055504399795     -1.44844000531349
  N   1.49812593746984     -0.99900421845632     -0.56397291300648
  O   1.59501998451401     -1.71806558677415      0.43191140994144
  O   2.09794285850021     -1.16978488961446     -1.62027740367583
  C   1.14971225035369      1.15524615856047      0.57543018481761
  H   2.14409434783206      1.49925689353475      0.28290546441602
  H   1.20536664004366      0.67662121822634      1.55178854825212
  H   0.47841197227529      2.01087011510349      0.64131315021800
