17
Coordinates from ORCA-job run
  C   -0.73280474523215     -0.30356234852718      0.26379049038570
  C   0.48391502113210      0.43695475067795     -0.30626156737870
  F   -0.30117367463678     -1.18266612096848      1.26531048401696
  H   0.10964580656685      1.32717447913104     -0.81193566080296
  N   -1.53451448832468      0.68032534664029      0.95219233854077
  H   -1.99809459745092      0.23942154033301      1.73620928805542
  H   -2.22459809517203      1.06203959247367      0.31802654916494
  N   -1.45356999613451     -0.98230058227346     -0.75536579863962
  H   -0.89532550755518     -1.73050911098346     -1.14879525179603
  H   -2.29963112867159     -1.37842000070524     -0.36367979647541
  N   1.17111228421807     -0.34473378626408     -1.38169171925054
  O   1.34839350332367     -1.54821401279855     -1.18848085862817
  O   1.55844052711685      0.28163610113735     -2.36464471715066
  C   1.51035130195085      0.79302675082936      0.75201941744738
  H   1.94331838637310     -0.11268613352385      1.17513610445452
  H   2.30048071614615      1.40613260174673      0.31494378547112
  H   1.01505468635021      1.35638093307490      1.54222691258526
