17
Coordinates from ORCA-job run
  C   -0.88893106793937      0.07741825808337     -0.01182977959033
  C   0.56568522732219      0.41006979444232     -0.37375242628285
  F   -1.53230669146318      1.33026029340455      0.03814361343023
  H   0.54803636299541      0.98682649794902     -1.30008568060961
  N   -1.44811510200126     -0.73574596373388     -1.03770233694350
  H   -1.42568162043672     -0.26920758162771     -1.93719110969829
  H   -2.40366523290149     -0.98693835183386     -0.81667048241294
  N   -1.00804142838961     -0.46550104829525      1.30209885687188
  H   -1.98519693925286     -0.56369316428633      1.54995620945911
  H   -0.54876272895330     -1.36658894428773      1.33976866367435
  N   1.27198392407215     -0.86053198884395     -0.72619064502418
  O   1.64524073249878     -0.99746099500949     -1.88795036673221
  O   1.43443591376576     -1.68002671315449      0.17660626997621
  C   1.31294366610918      1.14023107946035      0.72093390047882
  H   2.31268822450851      1.41487273602780      0.37776275201726
  H   1.38636258443698      0.51859930341006      1.61037720215240
  H   0.76332417562883      2.04641678829520      0.97572535923364
