17
Coordinates from ORCA-job run
  C   -0.72373688291677     -0.36887882979503      0.17907688409278
  C   0.51218641707086      0.36733175315773     -0.35681754119494
  F   -0.30999327833859     -1.28651453787240      1.14750496733167
  H   0.16739872675249      1.09981453564483     -1.08694822021859
  N   -1.61060315550726      0.59817713455354      0.75228562500507
  H   -2.48351532519339      0.14640182115598      0.99912857467155
  H   -1.21258841508055      0.99439930409529      1.59590879746437
  N   -1.31527210934585     -1.15610805002170     -0.85802952447456
  H   -1.99085303684448     -1.79890947357075     -0.46399820257817
  H   -1.76101440147245     -0.56401556124943     -1.54638412204362
  N   1.33392832713051     -0.60258834336834     -1.14789678523837
  O   1.24461308092500     -0.53420093889951     -2.37144038799364
  O   2.03364852729443     -1.39180622912362     -0.52044164080308
  C   1.36660300860564      1.00096657022948      0.72315652775119
  H   2.28195577571218      1.40614913783358      0.28857821737811
  H   1.63548760394821      0.26110182704790      1.47476328744327
  H   0.83075513726002      1.82867988018246      1.19155354340697
