17
Coordinates from ORCA-job run
  C   -0.79128649338146     -0.36073793192375     -0.09889327050423
  C   0.56832041348813      0.21074253360159     -0.54454700698729
  F   -1.06153246269634     -1.43399226722932     -0.97261281478377
  H   0.47594499362954      0.57268622697371     -1.57101519306151
  N   -0.75359372535753     -0.88910314675359      1.22861209497876
  H   -0.90430019208544     -1.88623815928587      1.23116527771374
  H   -1.39923040853916     -0.41414620083874      1.84067787118388
  N   -1.76884664469218      0.66348575882211     -0.20985756238597
  H   -2.68643031672798      0.27523021655279     -0.02335667360645
  H   -1.77057954002392      1.06321315985961     -1.14033067035383
  N   1.54383262102180     -0.92412041297353     -0.65534366700550
  O   2.14023026441955     -1.26770848166910      0.36243580996909
  O   1.66864511351199     -1.43871974279174     -1.76536247014579
  C   1.08976910412428      1.26457040885799      0.40453940986161
  H   0.40358997197533      2.11148422706447      0.42255151622513
  H   2.07475801175862      1.61138201388741      0.08625663331198
  H   1.16970928957479      0.84197179784596      1.40408071559014
