17
Coordinates from ORCA-job run
  C   -0.88915825919211      0.04593411250538      0.05589051049554
  C   0.51731814997662      0.40063777771738     -0.44780722900697
  F   -1.57692922052848      1.27567974756255      0.06858225990846
  H   0.40274155090571      0.90560711771784     -1.40852443170801
  N   -1.49445055285965     -0.86162825609739     -0.85830761562244
  H   -1.55757874882234     -0.46720915851923     -1.78979315261364
  H   -2.42025591298587     -1.12504910566222     -0.54451606898326
  N   -0.88141725272735     -0.40004198071075      1.41134451066549
  H   -0.39187528718751     -1.28358011699910      1.47483973574239
  H   -1.83129574874050     -0.50539960778126      1.74686891711733
  N   1.24344430215801     -0.86831070628453     -0.76525178727016
  O   1.51237875592979     -1.61030482558250      0.17821102265086
  O   1.52485296998763     -1.08100144489321     -1.94142463821104
  C   1.31947042695960      1.23544261876754      0.52646723575110
  H   0.75576103922092      2.13878064086849      0.75982893200964
  H   1.48802376773555      0.68467562794910      1.44901985428862
  H   2.27697002016998      1.51776755944191      0.08357194478611
