17
Coordinates from ORCA-job run
  C   -0.90470190265692     -0.00692865852713     -0.03769186720738
  C   0.51104357582215      0.38458774505617     -0.46915660800284
  F   -1.61406428717251      1.21661458449517     -0.13399792006570
  H   0.39258948106527      0.96272616349247     -1.38589447655302
  N   -1.51491239354807     -0.86163633810585     -1.01342452729914
  H   -1.27078263328294     -1.82416752445494     -0.82351787544163
  H   -2.51890423087084     -0.73748133702176     -0.98185518088764
  N   -0.95886739876559     -0.50531696283392      1.28819001329659
  H   -0.66595179645589      0.19159367983858      1.96117044802318
  H   -1.90104130855481     -0.80230637415623      1.50949468095994
  N   1.33545093402505     -0.80064951947958     -0.88226058096259
  O   1.01073385628142     -1.92628663826805     -0.51400385513118
  O   2.32979418104102     -0.53370875105473     -1.55281743487455
  C   1.29701306705794      1.16350903356500      0.57080249285227
  H   1.53616178536705      0.53030962563819      1.42772923136936
  H   2.22780797470311      1.52744407096153      0.13641118762969
  H   0.70963109594462      2.02169720085513      0.90182227229463
