17
Coordinates from ORCA-job run
  C   -0.89222109761374      0.00141040924258      0.00168078595607
  C   0.52683991945186      0.51949494197335     -0.25234104269478
  F   -1.60286697447345      0.30327174731995     -1.20274979132380
  H   0.46238862406398      1.60373481459778     -0.34886319767929
  N   -0.93710562877467     -1.38047742194630      0.28762748713071
  H   -0.40339155550590     -1.89258730774850     -0.40379504415624
  H   -1.89800154368321     -1.70135144842252      0.26594814526067
  N   -1.45404903891724      0.75386522914016      1.07464567056071
  H   -2.15259246911934      0.21780951673654      1.57114821257246
  H   -1.86320488452297      1.60982845359377      0.72348065218965
  N   1.01076189787009      0.05731016749662     -1.59260134489625
  O   1.31630630052020      0.91555431426196     -2.41399146879982
  O   1.09541220902083     -1.15891820544013     -1.77151055896920
  C   1.52033342349477      0.10914819138434      0.81492603570219
  H   2.49194706634449      0.56975031573849      0.62386017120467
  H   1.14643016291874      0.44675494674197      1.78099163595964
  H   1.63201358892555     -0.97359866467010      0.84054365198267
