17
Coordinates from ORCA-job run
  C   -0.78714101580005     -0.36321638702424     -0.08341794178016
  C   0.56495049792107      0.21907856759584     -0.53881371513252
  F   -1.01208394192552     -1.48506768093062     -0.91099173003912
  H   0.45509261397675      0.60962843986508     -1.55260834690641
  N   -0.76723125854411     -0.82503604620809      1.26819047551740
  H   -1.43692620928807     -0.33721486091881      1.84311558618664
  H   -0.89052570158956     -1.82453404253356      1.31729289718718
  N   -1.78468327521848      0.63049236126053     -0.26437860133322
  H   -1.79381363135907      0.96595475875417     -1.21956605565633
  H   -2.69525683873797      0.24164829176716     -0.04799377592820
  N   1.53799160250787     -0.91029425646687     -0.69779599753211
  O   2.05488206501442     -1.36374438343773      0.32026005062090
  O   1.74275019498709     -1.30912826632779     -1.84271878572536
  C   1.10638412432964      1.24871948606796      0.42551617319771
  H   2.06551033285032      1.63450889418056      0.07404785145178
  H   1.23841926989818      0.79081285245505      1.40357240407798
  H   0.40068117097747      2.07639227190137      0.50528951179385
