17
Coordinates from ORCA-job run
  C   -0.90651573435325     -0.33207619930683     -0.05999601698820
  C   0.49151383215963      0.09238259345861     -0.54806372499997
  F   -1.23338730775208     -1.42077786519614     -0.89750446969807
  H   0.38908375010588      0.40854298102235     -1.58717108485448
  N   -0.92513194253459     -0.65821593129192      1.30964801623273
  H   -1.85116817780339     -0.98086098063266      1.55961296370278
  H   -0.22722159474265     -1.35611761877203      1.53015131394524
  N   -1.93014741306891      0.63858986002599     -0.29350881926860
  H   -1.96312672135304      0.92778997947467     -1.26153957727117
  H   -1.82422488958012      1.43340437586513      0.31989237558361
  N   1.39742008599895     -1.10064215496855     -0.62375504551124
  O   1.62269792185987     -1.70463951134752      0.42571177119337
  O   1.87226241147603     -1.38179793768340     -1.71954784154636
  C   1.15245677968726      1.15559496884543      0.30608701456770
  H   1.28997226216106      0.79502498787913      1.32385725065660
  H   0.52557691025159      2.04816523322714      0.33446077006182
  H   2.11993982748775      1.43363321940060     -0.11733489580578
