17
Coordinates from ORCA-job run
  C   -0.89624549128283      0.16690627325327     -0.07916764820248
  C   0.58510107598248      0.41743244573591     -0.38409496357353
  F   -1.48421948095167      1.42394420760180     -0.12172459578928
  H   0.60245580318503      1.00304385370630     -1.30311597867138
  N   -1.48897052728269     -0.55151233896262     -1.18947424727325
  H   -2.47723730863085     -0.33063152238935     -1.22786754110868
  H   -1.38132717255196     -1.54827594992714     -1.05100611983310
  N   -1.09409986404262     -0.31528654999284      1.25578403625943
  H   -0.62523172792942     -1.20659879050312      1.35878021589843
  H   -2.08553951306461     -0.43991088269059      1.42567118818641
  N   1.27771746349264     -0.86061846172922     -0.73517137759467
  O   2.20400782257637     -0.78967496310686     -1.53410355214370
  O   0.91418839620977     -1.89246801426919     -0.16303843355817
  C   1.35288465737641      1.09886419916748      0.73253902080295
  H   2.35681622027733      1.35775329795703      0.39119796907318
  H   0.82392314849264      2.00954025685012      1.01362740341990
  H   1.41477649814396      0.45749293929899      1.61116462410795
