17
Coordinates from ORCA-job run
  C   -0.73198523954402     -0.32805320455087      0.38147526508992
  C   0.46468719270692      0.40675277524816     -0.27037104096056
  F   -0.24433605132550     -1.11309700170399      1.40450502732450
  H   0.07175800696172      1.21072102933149     -0.89637570738124
  N   -1.56149127821107      0.67722837066201      0.97861158709289
  H   -2.35217609013050      0.20524752109639      1.40477959774552
  H   -1.91697637549274      1.31081276851828      0.27288794497577
  N   -1.46113738571562     -1.24037585539581     -0.46227632659805
  H   -1.75445690418145     -0.78973741584192     -1.32006089564102
  H   -0.89129685936304     -2.04586584906245     -0.69438131152853
  N   1.10271932077128     -0.52952815319095     -1.24508067907395
  O   0.81715538296422     -0.37923578666994     -2.43380220517462
  O   1.82079016806053     -1.41796983277838     -0.79248913711944
  C   1.47817677847018      0.91386719255860      0.73220369694929
  H   0.96944770622200      1.56222197484327      1.44510916108670
  H   1.92353509666616      0.07826799754766      1.26740577915796
  H   2.26558653114091      1.47874346938847      0.22885924405486
