17
Coordinates from ORCA-job run
  C   -0.96660030806137      0.12695469259845     -0.08354057728018
  C   0.53328567564660      0.35377300405839     -0.40746550246904
  F   -1.44433982548286      1.40762057094836      0.17810348229953
  H   0.58569677901907      0.76497025815961     -1.42053536906964
  N   -1.66079191078428     -0.34684241536665     -1.23300774021567
  H   -2.61364053786155     -0.55992355678807     -0.96064483541807
  H   -1.22055210458048     -1.18542542393694     -1.58525114463190
  N   -1.26288136654852     -0.62383262438499      1.10563237871606
  H   -0.83572561473715     -0.21869566054684      1.92910756023536
  H   -0.97565996322799     -1.58707452731749      0.99984240091458
  N   1.27745145943582     -0.96060420023501     -0.49202401914765
  O   2.48666732194279     -0.94264739059325     -0.29201022586588
  O   0.64057480992694     -1.97188548503190     -0.79550893173422
  C   1.23436844640018      1.26569458240038      0.58022170295213
  H   0.71052047881222      2.21812186984732      0.62091352874529
  H   1.24802617523802      0.82381038843625      1.57895520931060
  H   2.26460048486257      1.43598591775241      0.27621208265871
