17
Coordinates from ORCA-job run
  C   -0.88893670724961      0.04941134203511      0.05307310619529
  C   0.52057641563957      0.39951119860568     -0.44488345409314
  F   -1.57133360792524      1.28225036814795      0.06771499997667
  H   0.41145616251257      0.90748322808251     -1.40465488395119
  N   -1.49552244041773     -0.85231458172808     -0.86617514373557
  H   -2.42273706531606     -1.11382071668528     -0.55486772978465
  H   -1.55616040894516     -0.45300327005950     -1.79577105523535
  N   -0.88725779073654     -0.40124361422023      1.40696549188662
  H   -0.40118449412204     -1.28687982433572      1.46886226080265
  H   -1.83866499867225     -0.50427553604744      1.73883167045276
  N   1.24218073189396     -0.87169953282520     -0.76316480809529
  O   1.52856043054318     -1.08151275344439     -1.93864248755834
  O   1.50336634043237     -1.61786477109137      0.17914481459237
  C   1.32318533178732      1.22795732242169      0.53440944573983
  H   1.48654494264282      0.67349871639544      1.45572340606338
  H   0.76270838506365      2.13294233305537      0.76913930462267
  H   2.28321877286918      1.50756009169341      0.09529506212129
