17
Coordinates from ORCA-job run
  C   -0.87065223946159     -0.41359829738359     -0.08557331943804
  C   0.49585291252139      0.13959758759229     -0.53334450151131
  F   -1.07362688382863     -1.52315601184204     -0.93460430615724
  H   0.39360035946009      0.44983327284598     -1.57422337478967
  N   -0.89729245127562     -0.74607298538997      1.28209539226044
  H   -0.14425383740457     -1.37677191946241      1.52236089950837
  H   -1.79673923000774     -1.15181281390839      1.50643689952055
  N   -1.97279083190717      0.46000148842478     -0.34610923665360
  H   -2.00937578503497      0.73975780520021     -1.31688174097076
  H   -1.95054015275541      1.26504235464451      0.26280422981781
  N   1.50844518590009     -0.96577186992078     -0.58659740649508
  O   2.03344163794230     -1.20040580166190     -1.67035287334419
  O   1.76802264977962     -1.54348102616164      0.46975471704821
  C   1.03277469351336      1.25466714334300      0.34128982355314
  H   0.32921056230983      2.08864183929821      0.34902813579517
  H   1.98482857321446      1.61833689380782     -0.05110448774184
  H   1.16909483703449      0.90519234057390      1.36302114959803
