17
Coordinates from ORCA-job run
  C   -0.79153684491267     -0.26948719068346      0.11104022343715
  C   0.52966670127083      0.33830915730720     -0.39402930164496
  F   -0.39281228435846     -1.38802138182402      0.91295995340659
  H   0.28645218974727      0.98733812381109     -1.23720750802078
  N   -1.47042211318485      0.67598184492854      0.93011258887619
  H   -1.12204547162178      0.63610175673900      1.87881282320306
  H   -2.46663277830761      0.50324183744004      0.92464518682675
  N   -1.63026398090852     -0.67980070300023     -0.95036815697095
  H   -2.35023603155446     -1.29872893447306     -0.59655749636625
  H   -1.09715569233269     -1.16299756667680     -1.66168326440574
  N   1.36119880248260     -0.77331194954768     -0.98090693187781
  O   2.35657490482311     -1.14820085614240     -0.37297163736285
  O   0.96928012764169     -1.24327237483855     -2.05159466621222
  C   1.30867642942963      1.06719991201905      0.67726960403390
  H   1.49607113376171      0.41626489363210      1.53101038290431
  H   2.27219387102187      1.39611670566237      0.28839997583455
  H   0.74099103700232      1.94226672564682      0.99106822433905
