17
Coordinates from ORCA-job run
  C   -0.83658519976580     -0.31890323389079      0.09834518298256
  C   0.52091184051064      0.29282513488336     -0.33702808145203
  F   -0.47628199306443     -1.49746848232836      0.78753932990208
  H   0.32071755753889      1.02636600077045     -1.12077605069572
  N   -1.58915134764194      0.44260115139663      1.04306526058375
  H   -1.91955613867383      1.30413354995765      0.63244702819091
  H   -1.07196659401979      0.61595825667417      1.89283006962667
  N   -1.66734650235357     -0.55043286750831     -1.01598732167283
  H   -2.49700291239145     -1.04553437918637     -0.71513023896712
  H   -1.18659818358115     -1.05373947218051     -1.74917945985911
  N   1.31841170097372     -0.78909732700338     -1.01939931922225
  O   0.93190552877143     -1.13183184031762     -2.13834095995263
  O   2.27464672144079     -1.27367106011548     -0.42556297643727
  C   1.31762022182329      0.88025997118817      0.80638306132162
  H   1.42778988021266      0.15572555364796      1.61283651595020
  H   2.31394518772101      1.16633292000360      0.46995471065900
  H   0.81854023249951      1.77547612400883      1.17900324904213
