17
Coordinates from ORCA-job run
  C   -0.84099943943622     -0.29386501826683     -0.04304562920057
  C   0.54090049396456      0.13127428639488     -0.54957740589513
  F   -1.13949796837033     -1.48416075315501     -0.77847258466887
  H   0.43171046748556      0.39667011055294     -1.60154022606159
  N   -0.87375739332921     -0.53220680439712      1.34806852169846
  H   -0.10650734815030     -1.13762184466503      1.61247242892637
  H   -1.74799660636544     -0.98007191778877      1.59661504968402
  N   -1.77676509580468      0.72064266298121     -0.40045884876021
  H   -2.55597727195288      0.74369233761843      0.24299351474818
  H   -2.11273815038512      0.56940378162258     -1.34253879790737
  N   1.46827056800929     -1.04510131563205     -0.55953877773303
  O   1.95775906477501     -1.37423157700576     -1.63508953715118
  O   1.69890346586680     -1.58904664704951      0.52177727285916
  C   1.15807106547980      1.25819996011651      0.25255004232522
  H   1.33523162367188      0.94672917118269      1.28067891887120
  H   0.46460812643153      2.09855301214199      0.25442164216821
  H   2.10178439810973      1.57114055534874     -0.19931558390291
