17
Coordinates from ORCA-job run
  C   -0.79244868705701     -0.26048472915275      0.11433718454609
  C   0.53589598636517      0.32903595625372     -0.39306571796253
  F   -0.40900441760618     -1.36205985994829      0.94271395699056
  H   0.30006773131909      0.97377088130935     -1.24155037526648
  N   -1.47178464601186      0.70747297553264      0.90811624490990
  H   -1.15806309722233      0.66406585735843      1.86846282155196
  H   -2.47176815465186      0.56744513534384      0.86357581796253
  N   -1.62730098606850     -0.68688512442880     -0.94460984621064
  H   -2.34009022683988     -1.31065853691693     -0.58489954514709
  H   -1.09194569423320     -1.16816756720272     -1.65548945918818
  N   1.35863655588537     -0.79457037086065     -0.96805046184595
  O   2.33706851066846     -1.18704261776837     -0.34353514949725
  O   0.97369747267804     -1.26096086013268     -2.04305773128345
  C   1.31823193203902      1.05878984259654      0.67534164483845
  H   0.75592510950887      1.93965594883460      0.98240202266740
  H   2.28462200696477      1.37901664761471      0.28607277287095
  H   1.49826060426212      0.41157642156734      1.53323582006372
