17
Coordinates from ORCA-job run
  C   -0.95782369146300     -0.05856932200048      0.02246589586419
  C   0.42193005112088      0.54300003903522     -0.32283703809427
  F   -1.72612306722592      0.15760010425042     -1.13537257187396
  H   0.31080301894063      1.62316204670043     -0.43408991106211
  N   -1.03678110659605     -1.45520587029054      0.29284725095258
  H   -0.60286018587161     -1.98445653905221     -0.45214864187491
  H   -0.58571319025073     -1.66802747757252      1.17195696335386
  N   -1.47070446580342      0.63498151187127      1.14784596893941
  H   -2.36195339210112      0.22371548827023      1.39958368715992
  H   -1.60271052337875      1.61616618758653      0.93801669021590
  N   0.82699067148642      0.07629347680238     -1.68513318103903
  O   0.97321295116955      0.92570268242829     -2.55835753092094
  O   0.99850473803084     -1.13436647730244     -1.83217478838759
  C   1.50356484936115      0.18862791102546      0.67598686883067
  H   1.67933770412415     -0.88705916911786      0.68024117825863
  H   2.43914102061386      0.69043516598092      0.42108138639958
  H   1.19018461784312      0.50800024138490      1.67008777327804
