17
Coordinates from ORCA-job run
  C   -0.98277148840429      0.10117647511394     -0.06367435255657
  C   0.47636742122394      0.38599686104959     -0.47528184915244
  F   -1.55564417275915      1.36854737491411     -0.06913959950246
  H   0.43731641855257      0.92103683080351     -1.42446867298313
  N   -1.62767032724048     -0.65804132694652     -1.08918433850132
  H   -2.59585249535564     -0.77803868807932     -0.81136762985576
  H   -1.20906281986496     -1.57778884954993     -1.15330041049646
  N   -1.22800387715583     -0.40587983752826      1.25800642094332
  H   -0.75834486214906     -1.29436092576635      1.37353188580692
  H   -0.90368233719482      0.24264388641662      1.96488474501135
  N   1.23109981701256     -0.87289835587048     -0.77270485597266
  O   2.17150138982858     -0.77864371625774     -1.55353099556432
  O   0.90197302770501     -1.90675340129626     -0.18364976119675
  C   1.26551175980226      1.16515713806225      0.56144554790901
  H   2.24030876187967      1.44318052526543      0.15910385334549
  H   1.41620577373644      0.57018201416531      1.46438431568630
  H   0.72074801038319      2.07448399550408      0.81694569707949
