17
Coordinates from ORCA-job run
  C   -0.98641296369463      0.12762941501010     -0.06766979291783
  C   0.49848833834955      0.38581889635136     -0.43472453480631
  F   -1.50151223382599      1.43591607766032      0.01897403282234
  H   0.51471266129554      0.87664603052703     -1.40897649017735
  N   -1.62041128582821     -0.59919335713784     -1.08235565858344
  H   -1.05963876081635     -0.93975976577158     -1.84426514434774
  H   -2.32032976778677     -1.23906563901209     -0.74716134884269
  N   -1.26145430953301     -0.44864673504374      1.21582608578314
  H   -0.71143048276770     -1.28689032851692      1.35517393085729
  H   -1.06374096011191      0.21153549357687      1.95582658773898
  N   1.14989802605731     -0.94069389486146     -0.65478501412191
  O   1.44825535631430     -1.59951620882523      0.34153143968930
  O   1.30927953032299     -1.30895431129696     -1.81941132147450
  C   1.25911893870473      1.17978619814059      0.60335216996007
  H   1.28345616504869      0.65201637778950      1.55583935016917
  H   0.77319647757332      2.14613741013247      0.73490905436498
  H   2.28752527069812      1.34723434127762      0.27791665388652
