12
Coordinates from ORCA-job run
  C   0.54639888889720      0.10773181908629     -0.37240427551631
  C   -0.54625570222046     -0.10800226318015      0.37213264711938
  H   0.42281902616499      0.52525369227794     -1.37258815393068
  H   -0.42269301598851     -0.52573381593303      1.37223087348182
  C   1.94990208299494     -0.18417217402923      0.06748635205422
  H   2.56322697409223      0.72196738173071      0.05985072261930
  H   2.43293189920896     -0.90208228240296     -0.60227712853216
  H   1.96736840276254     -0.59751356687920      1.07828988422626
  C   -1.94973023484373      0.18422953690124     -0.06763051702975
  H   -1.96719622098031      0.59750098045618     -1.07846251445066
  H   -2.56332385784477     -0.72171352395352     -0.05957819316090
  H   -2.43244824224309      0.90253421592574      0.60195030311948
