12
Coordinates from ORCA-job run
  C   -0.68599689944073     -0.76913227073078      0.03958140193517
  C   0.63270366655547     -0.78615092217689     -0.21340186612401
  H   -1.20605722000743     -1.72617810767560      0.02457395588347
  H   1.08643666929448     -1.75596733044389     -0.41389959810907
  C   -1.54560360047828      0.42266286777592      0.34338755635143
  H   -0.98469731207535      1.35676375914590      0.35733016872728
  H   -2.03137450266728      0.30839226414449      1.31712285556096
  H   -2.34353183698540      0.52094130302329     -0.39890195424307
  C   1.57315338176837      0.38239798092566     -0.25309742026096
  H   2.37207591597099      0.25927991013636      0.48436994150211
  H   1.07691979069832      1.33171788410575     -0.05329497063768
  H   2.05497194736685      0.45527266176978     -1.23277007058562
