12
Coordinates from ORCA-job run
  C   0.53575424048531      0.11390396719075     -0.38561115415841
  C   -0.53592440618216     -0.11412855930451      0.38525347325804
  H   0.38285014248750      0.53198783342986     -1.38148503293028
  H   -0.38302859630014     -0.53225422997577      1.38111073931944
  C   1.95255717437988     -0.16468759955757      0.01873699689513
  H   1.99944342163492     -0.57926207243006      1.02807453501122
  H   2.42582706932424     -0.87686776580508     -0.66395429850791
  H   2.55627409307771      0.74763789247706     -0.00271173786264
  C   -1.95272738064599      0.16446463219743     -0.01909376767832
  H   -2.55647260985363     -0.74785115988980      0.00150994696080
  H   -1.99953916832856      0.57999917992894     -1.02804048721000
  H   -2.42601398007909      0.87605788173877      0.66421078690293
