14

C	0.0	0.0	0.0
C	-0.497583	-0.445341	-1.390621
Cl	1.780474	0.0	0.0
H	-1.59102	-0.503376	-1.288752
H	-0.289984	-0.760047	0.734046
N	-0.506798	1.32163	0.258841
H	-0.246907	1.596921	1.199444
H	-1.529218	1.224453	0.245128
C	-0.004412	-1.791953	-1.699293
N	0.385255	-2.873452	-1.937343
N	-0.182504	0.462503	-2.483209
H	0.808422	0.679705	-2.446462
H	-0.676384	1.326711	-2.289632
Br	-3.69297	0.0	0.0
