14

C	0.0	0.0	0.0
C	-0.376483	-0.673375	-1.35593
Cl	1.822083	0.0	0.0
H	0.435918	-1.344179	-1.6454
H	-0.287399	-0.716499	0.769632
N	-0.564529	1.264921	0.304443
H	-1.546046	1.133547	0.546351
H	-0.508853	1.89385	-0.488195
C	-0.439373	0.369776	-2.407438
N	-0.495965	1.182049	-3.255013
N	-1.5653	-1.478115	-1.183073
H	-2.363402	-0.932727	-0.840012
H	-1.844786	-1.8822	-2.069007
Br	-4.274899	0.0	0.0
