14

C	0.0	0.0	0.0
C	-0.571215	-0.013424	-1.409417
Cl	1.85075	0.0	0.0
H	-1.658755	-0.104111	-1.222557
H	-0.252916	-0.92965	0.509218
N	-0.516519	1.103758	0.675073
H	-0.399249	1.956834	0.149412
H	-0.236586	1.175708	1.63891
C	-0.113899	-1.180452	-2.176226
N	0.248286	-2.09321	-2.821107
N	-0.313093	1.259475	-2.072865
H	0.558031	1.227278	-2.587705
H	-1.071465	1.465423	-2.709734
Br	-3.910855	0.0	0.0
