14

C	0.0	0.0	0.0
C	-0.385067	-0.175267	-1.50719
Cl	1.821974	0.0	0.0
H	0.463333	-0.603712	-2.04454
H	-0.286134	-0.936313	0.478391
N	-0.564697	1.084062	0.719513
H	-0.537422	1.935474	0.170797
H	-1.543269	0.860746	0.905993
C	-0.607538	1.160093	-2.112063
N	-0.804554	2.203361	-2.617592
N	-1.485723	-1.109483	-1.613749
H	-2.317119	-0.761044	-1.123193
H	-1.746658	-1.224635	-2.586296
Br	-4.149256	0.0	0.0
