14

C	0.0	0.0	0.0
C	-0.331432	-0.287504	-1.507718
Cl	1.795911	0.0	0.0
H	0.360461	-1.069851	-1.838219
H	-0.314561	-0.872944	0.575008
N	-0.565501	1.162011	0.590223
H	-0.467871	1.963882	-0.022957
H	-1.557299	0.989245	0.753695
C	0.011562	0.922328	-2.272904
N	0.270203	1.92022	-2.833222
N	-1.66637	-0.711374	-1.844311
H	-2.389379	-0.117236	-1.434637
H	-1.832501	-1.62918	-1.445621
Br	-4.269168	0.0	0.0
