16
Coordinates from ORCA-job run
  C   0.74174624352049     -0.61367810517440      0.03805743059330
  C   -0.54578934653516      0.11801290978767     -0.33515105278936
  F   0.87680403951544     -1.64564755921341     -0.89207064400810
  H   -0.43174893566885      0.55186841191205     -1.33006847606211
  H   0.62155661599356     -1.07967155753303      1.02019025395159
  C   1.97576428183970      0.25474185381252     -0.01246898396407
  H   2.06480395192207      0.73660413575060     -0.98819373431223
  H   1.94443634299728      1.02481397577822      0.76047401944045
  H   2.85995709964255     -0.36202439984362      0.15507604644033
  N   -0.67396968030078      1.28222447050344      0.59294612275456
  O   -0.83698244850026      1.01997624655823      1.78437261732822
  O   -0.57972241588663      2.41107579122753      0.11532032592240
  C   -1.77787271449987     -0.75945681554048     -0.24106903696438
  H   -1.66893260394646     -1.59819442786508     -0.92869497297352
  H   -2.67429024336155     -0.19858143762273     -0.51310720413673
  H   -1.89476018673153     -1.14206349253751      0.77338728877966
