16
Coordinates from ORCA-job run
  C   0.81485367713363     -0.38345255460638     -0.63419951372102
  C   -0.64307822455621      0.06399801151505     -0.55357154941544
  F   1.40084948583472      0.23955937523259     -1.73211709763573
  H   -1.03028518120130      0.09997183999056     -1.57344588273419
  H   0.80314552689604     -1.45762384600543     -0.85117204816094
  C   1.66254193472667     -0.09274754146381      0.58271993031271
  H   1.76958221288038      0.98317482570726      0.72365665565467
  H   2.65499123148609     -0.52018113530562      0.43319679358910
  H   1.22957999879101     -0.52075274033689      1.48762694645362
  N   -0.68365701380214      1.48749475687666     -0.08249756332903
  O   -0.73722080667146      1.67929311995560      1.13201079260559
  O   -0.61157104622582      2.36147178779637     -0.94276944314741
  C   -1.49323308675294     -0.81692244365883      0.33970480803166
  H   -1.09260979346968     -0.86639080574600      1.35084197121150
  H   -2.51189750308136     -0.43124772977010      0.39976059753036
  H   -1.53399141198764     -1.82464492018101     -0.07974539724545
