17

C	0.0	0.0	0.0
C	-0.53159	0.016622	-1.453972
Br	1.978199	0.0	0.0
H	-1.633165	0.157006	-1.224812
N	-0.505229	1.008961	0.870554
H	-1.537085	0.817674	0.827481
H	-0.360982	1.903529	0.412259
C	-0.343026	-1.314853	0.578871
N	-0.506043	-2.379333	1.050545
C	-0.294427	-1.240454	-2.255798
H	-0.682949	-1.112536	-3.266897
H	0.765994	-1.49075	-2.324385
H	-0.835601	-2.059553	-1.780346
N	-0.029273	1.211167	-2.165586
O	-0.268487	2.321432	-1.674358
O	0.587873	1.057377	-3.225952
H	-2.864261	0.0	0.0
