17

C	0.0	0.0	0.0
C	-0.312875	0.213589	-1.526081
Br	1.971272	0.0	0.0
H	0.491504	-0.282645	-2.079927
N	-0.295888	1.054901	0.957723
H	-1.315892	1.112412	0.912398
H	0.130539	1.919328	0.636334
C	-0.458733	-1.287999	0.511674
N	-0.537837	-2.359066	1.002054
C	-0.36154	1.678573	-1.887953
H	0.555404	2.168832	-1.549583
H	-0.436069	1.793997	-2.968375
H	-1.232734	2.143172	-1.426199
N	-1.515024	-0.510934	-2.066601
O	-1.455709	-1.737941	-2.01159
O	-2.329868	0.119427	-2.742992
H	-2.254712	0.0	0.0
