17

C	0.0	0.0	0.0
C	-0.342205	0.059235	-1.514483
Br	1.970758	0.0	0.0
H	0.256493	-0.711404	-2.002516
N	-0.562561	1.119077	0.689624
H	-0.468177	0.973719	1.691177
H	-1.57167	1.07037	0.468802
C	-0.330075	-1.29993	0.623656
N	-0.424074	-2.230025	1.341414
C	-0.099778	1.425995	-2.124148
H	-0.382164	1.381681	-3.178351
H	0.947995	1.716339	-2.043121
H	-0.723144	2.168632	-1.633921
N	-1.74108	-0.362415	-1.788986
O	-2.648269	0.526802	-1.547925
O	-1.975244	-1.576627	-1.534562
H	-3.062246	0.0	0.0
