16

C	-0.407685	-0.054833	-1.483936
C	0.0	0.0	0.0
Cl	-2.198908	-0.311641	-1.607327
H	1.096438	0.0	0.0
C	-0.123305	1.219435	-2.14509
N	0.103708	2.243026	-2.676312
C	0.316896	-1.197904	-2.17566
H	0.04379	-1.240189	-3.23126
H	1.392413	-1.033868	-2.063295
H	0.043722	-2.127227	-1.67746
N	-0.396119	-1.227836	0.674118
H	0.296847	-1.435089	1.383387
H	-1.30437	-1.131215	1.110308
C	-0.508725	1.211916	0.652667
N	-0.929072	2.139845	1.239369
Cl	3.25823	0.0	0.0
