16

C	-0.54383	-0.045181	-1.444119
C	0.0	0.0	0.0
Cl	0.062372	1.386404	-2.340048
H	1.094207	0.0	0.0
C	-0.047319	-1.251132	-2.110422
N	0.251051	-2.224416	-2.696506
C	-2.067104	-0.044226	-1.485155
H	-2.432948	-0.912335	-0.933968
H	-2.417473	-0.09941	-2.516924
H	-2.444388	0.873297	-1.02941
N	-0.427933	-1.218167	0.692062
H	0.386984	-1.625623	1.134777
H	-1.123022	-1.025074	1.400726
C	-0.48216	1.209429	0.671489
N	-0.923754	2.121998	1.26639
Cl	3.250618	0.0	0.0
