16

C	-0.411477	-0.080941	-1.480627
C	0.0	0.0	0.0
Cl	-2.205086	-0.343127	-1.593409
H	1.096437	0.0	0.0
C	-0.135398	1.181874	-2.166146
N	0.074561	2.197392	-2.718519
C	0.311819	-1.235189	-2.155223
H	0.042332	-2.15537	-1.638494
H	0.033838	-1.297247	-3.208635
H	1.388006	-1.067495	-2.050831
N	-0.39226	-1.216239	0.697591
H	-1.291232	-1.10853	1.148489
H	0.312002	-1.419548	1.396087
C	-0.507306	1.221789	0.633545
N	-0.930186	2.160216	1.201495
Cl	3.258403	0.0	0.0
