16

C	-0.404516	-0.03711	-1.483613
C	0.0	0.0	0.0
Cl	-2.207166	-0.227322	-1.607569
H	1.096455	0.0	0.0
C	-0.074751	1.227686	-2.140646
N	0.194011	2.242313	-2.668595
C	0.275342	-1.202957	-2.18238
H	-0.029809	-2.124719	-1.690493
H	1.356837	-1.078531	-2.071967
H	-1e-06	-1.227166	-3.238483
N	-0.411734	-1.227316	0.663004
H	0.244502	-1.41894	1.410812
H	-1.342958	-1.137097	1.051005
C	-0.500552	1.214048	0.657542
N	-0.914029	2.143232	1.246779
Cl	3.272112	0.0	0.0
