16

C	-0.37566	-0.027231	-1.504356
C	0.0	0.0	0.0
Cl	-2.181595	-0.137938	-1.677464
H	1.097428	0.0	0.0
C	0.0304	1.213073	-2.1618
N	0.354267	2.211831	-2.690091
C	0.259903	-1.226166	-2.189568
H	1.340088	-1.178958	-2.024786
H	-0.137872	-2.144131	-1.755553
H	0.036873	-1.217837	-3.257446
N	-0.426622	-1.150207	0.765028
H	-1.371734	-1.430996	0.532827
H	0.221394	-1.914284	0.625241
C	-0.503422	1.228404	0.620853
N	-0.928642	2.202862	1.119632
Cl	3.265118	0.0	0.0
