16

C	-0.346376	-0.058493	-1.510898
C	0.0	0.0	0.0
Cl	-2.130992	-0.341846	-1.723254
H	1.097433	0.0	0.0
C	-0.05358	1.218304	-2.160855
N	0.169257	2.24564	-2.686905
C	0.420968	-1.186288	-2.183813
H	1.48851	-1.023047	-2.006547
H	0.124709	-2.139748	-1.743994
H	0.2085	-1.208303	-3.253531
N	-0.392269	-1.165017	0.765975
H	-1.279656	-1.543678	0.462167
H	0.335925	-1.863805	0.710648
C	-0.5505	1.214447	0.605848
N	-1.024356	2.172025	1.093736
Cl	3.264283	0.0	0.0
