16

C	-0.400694	-0.063142	-1.484465
C	0.0	0.0	0.0
Cl	-2.194597	-0.306536	-1.614475
H	1.096423	0.0	0.0
C	-0.102815	1.204513	-2.151645
N	0.138389	2.222763	-2.686858
C	0.319049	-1.215479	-2.165443
H	1.39506	-1.059456	-2.047383
H	0.0352	-2.140111	-1.664789
H	0.052626	-1.259849	-3.222501
N	-0.402149	-1.221893	0.679587
H	0.273345	-1.414618	1.409549
H	-1.321834	-1.125077	1.090974
C	-0.507479	1.2181	0.642063
N	-0.926105	2.151694	1.221043
Cl	3.264557	0.0	0.0
