14

C	0.0	0.0	0.0
C	-0.502069	0.158457	-1.443424
Br	1.969985	0.0	0.0
H	0.034654	1.008705	-1.874285
H	-1.564701	0.401114	-1.345348
C	-0.39347	1.132935	0.843911
N	-0.589986	2.071109	1.523987
C	-0.406652	-1.26129	0.624321
N	-0.617751	-2.302615	1.127208
C	-0.339253	-1.105959	-2.271247
H	-0.609335	-0.896209	-3.309137
H	0.683849	-1.490515	-2.255421
H	-1.018639	-1.875951	-1.901994
Cl	-3.41915	0.0	0.0
