14

C	0.0	0.0	0.0
C	-0.502543	0.127608	-1.444843
Br	1.970011	0.0	0.0
H	0.028439	0.973752	-1.890265
H	-1.566047	0.365379	-1.346155
C	-0.382921	1.155956	0.812572
N	-0.607626	2.091797	1.486129
C	-0.400689	-1.248963	0.650517
N	-0.623999	-2.275412	1.177626
C	-0.327966	-1.148861	-2.251272
H	0.701513	-1.519606	-2.229981
H	-0.995776	-1.923165	-1.867592
H	-0.598908	-0.95984	-3.292415
Cl	-3.41855	0.0	0.0
