14

C	0.0	0.0	0.0
C	-0.484782	-0.152756	-1.450613
Br	1.97009	0.0	0.0
H	-1.555486	-0.359348	-1.362164
H	0.027504	-1.026515	-1.864804
C	-0.402902	1.264041	0.618164
N	-0.569247	2.324959	1.096062
C	-0.382039	-1.150663	0.822149
N	-0.547843	-2.119681	1.465988
C	-0.261545	1.091641	-2.29458
H	-0.580127	0.891491	-3.320663
H	-0.869786	1.914845	-1.914715
H	0.786457	1.401692	-2.317064
Cl	-3.38062	0.0	0.0
