15

C	0.0	0.0	0.0
C	-0.359228	-0.211455	-1.490291
Cl	1.80781	0.0	0.0
H	0.238734	0.537632	-2.033423
H	-0.279136	-0.89525	0.566404
N	-0.518566	1.24782	0.483548
H	-0.31021	1.342493	1.470965
H	-1.533913	1.187122	0.398651
N	-1.727606	-0.013616	-1.875086
H	-2.395276	-0.503078	-1.283154
H	-1.987082	0.962377	-1.836039
N	-0.017958	-1.589227	-1.841797
H	0.98605	-1.701612	-1.901467
H	-0.419505	-1.75116	-2.75738
Br	-4.461192	0.0	0.0
