15

C	0.0	0.0	0.0
C	-0.408265	-0.244903	-1.500522
Cl	1.85714	0.0	0.0
H	0.504837	-0.342276	-2.092426
H	-0.266852	-0.87481	0.591924
N	-0.492588	1.165575	0.645257
H	-0.522166	1.907359	-0.046758
H	-1.45573	0.972807	0.918086
N	-1.115883	0.926849	-1.984595
H	-2.029837	0.931141	-1.528892
H	-1.294771	0.770263	-2.970895
N	-1.174558	-1.472455	-1.707112
H	-0.66024	-2.263209	-1.32969
H	-2.053989	-1.391342	-1.196726
Br	-3.884481	0.0	0.0
