15

C	0.0	0.0	0.0
C	-0.489709	0.233845	-1.428786
Cl	1.809476	0.0	0.0
H	-1.581054	0.215043	-1.322517
H	-0.30413	-0.998023	0.324091
N	-0.49533	0.961785	0.937109
H	-0.430488	1.866392	0.476286
H	-1.493167	0.754471	1.041031
N	0.000328	-0.800289	-2.351904
H	0.110927	-1.676014	-1.851173
H	-0.719558	-0.957921	-3.050157
N	-0.111256	1.568182	-1.862268
H	-0.772872	1.895958	-2.555442
H	0.799009	1.499549	-2.302648
Br	-3.860186	0.0	0.0
