15

C	0.0	0.0	0.0
C	-0.502045	-0.10837	-1.426502
Cl	1.879247	0.0	0.0
H	-1.586448	-0.200475	-1.29672
H	-0.226294	-0.920404	0.534377
N	-0.5365	1.107038	0.614833
H	-0.529989	1.947782	0.062895
H	-0.431857	1.201067	1.60731
N	-0.006669	-1.328089	-2.04214
H	0.981062	-1.23591	-2.252332
H	-0.508988	-1.495303	-2.905013
N	-0.240266	1.159582	-2.108679
H	-0.8837	1.267724	-2.882142
H	0.708554	1.164856	-2.466485
Br	-4.170038	0.0	0.0
