18

C	0.0	0.0	0.0
C	-0.500639	0.199911	-1.422953
F	1.403568	0.0	0.0
H	-1.592694	0.236356	-1.332848
H	-0.302694	0.86837	0.595673
C	-0.489311	-1.260765	0.67092
H	-1.582106	-1.257841	0.652888
H	-0.108547	-2.145894	0.156583
H	-0.142983	-1.291536	1.707395
C	-0.108474	-0.953315	-2.343698
H	-0.404974	-0.731374	-3.373164
H	-0.604355	-1.882571	-2.055927
H	0.974377	-1.114202	-2.327217
C	0.001186	1.531636	-1.976713
H	1.092334	1.537332	-2.055089
H	-0.417312	1.718137	-2.970332
H	-0.300893	2.359614	-1.328496
Cl	-3.899271	0.0	0.0
