16

C	0.0	0.0	0.0
C	-0.594403	-0.037971	-1.419361
Cl	1.78509	0.0	0.0
H	-1.696524	0.03063	-1.259358
C	-0.471253	1.203868	0.812652
H	-0.11055	1.08945	1.836279
H	-0.065041	2.122644	0.392468
H	-1.562555	1.223089	0.797869
C	-0.399326	-1.246572	0.666769
N	-0.617762	-2.271099	1.199128
C	-0.233026	-1.247227	-2.144057
N	0.020613	-2.229174	-2.736461
N	-0.155776	1.165346	-2.2086
O	0.716552	1.013696	-3.060994
O	-0.708642	2.224439	-1.927334
Cl	-3.540475	0.0	0.0
