16

C	0.0	0.0	0.0
C	-0.594215	-0.036244	-1.420031
Cl	1.785152	0.0	0.0
H	-1.696451	0.032757	-1.25899
C	-0.470378	1.202175	0.815499
H	-1.561792	1.222294	0.799945
H	-0.06428	2.121155	0.396312
H	-0.109877	1.085494	1.838768
C	-0.399707	-1.247824	0.663816
N	-0.619009	-2.273121	1.194417
C	-0.234378	-1.245839	-2.144504
N	0.015888	-2.229388	-2.735722
N	-0.154898	1.16671	-2.209412
O	-0.697093	2.228896	-1.919263
O	0.707065	1.011783	-3.071679
Cl	-3.540575	0.0	0.0
