16

C	0.0	0.0	0.0
C	-0.328738	-0.012306	-1.518365
Cl	1.790144	0.0	0.0
H	0.06337	0.92948	-1.910119
C	-0.47358	1.285987	0.660583
H	-0.120298	1.305611	1.693321
H	-1.564631	1.298587	0.636146
H	-0.054058	2.141029	0.124804
C	-0.43847	-1.18802	0.730807
N	-0.612886	-2.123026	1.42113
C	-1.668311	-0.217217	-2.089507
N	-2.341707	-0.407646	-3.042257
N	0.507044	-1.072718	-2.225445
O	0.402801	-2.221873	-1.820186
O	1.195496	-0.68758	-3.164287
Cl	-3.394985	0.0	0.0
