11
Coordinates from ORCA-job run
  C   0.95227037943783     -0.09957443478795      0.03362031267007
  C   -0.57052309551691     -0.17456168320688      0.29946817770745
  Cl  1.32389751940657     -0.58847432246592     -1.63000077377291
  H   -0.74016629826452      0.15839346698642      1.33214637150305
  H   1.45160481518617     -0.80733778631097      0.70026500182341
  C   1.43700473127959      1.24952389634677      0.30653354367552
  N   1.80704530885661      2.33594944475943      0.55701081585518
  C   -1.04127056436366     -1.55802783193738      0.18311723650492
  N   -1.39987344560457     -2.67387737484507      0.11733899614281
  C   -1.31334456062089      0.71553797866758     -0.59699944359170
  N   -1.90664478979623      1.44244864679397     -1.30250023851781
