11
Coordinates from ORCA-job run
  C   1.00673858149707     -0.10846598101823     -0.12467422446459
  C   -0.46942607445350     -0.52999568481145     -0.31991712119991
  Cl  1.73944758442526      0.20020663340798     -1.71336354895028
  H   -0.47677895084649     -1.38237124212562     -1.00963840229913
  H   1.54679037715898     -0.94425263230955      0.32651874864451
  C   1.10924224514422      1.06333463027704      0.73736409302527
  N   1.17799207842554      1.99966540166553      1.44336404600613
  C   -1.25779990903096      0.55444384230241     -0.91163157649252
  N   -1.88532304589350      1.42241786126091     -1.39219473619100
  C   -1.03586141317143     -0.95621808444910      0.96394418942853
  N   -1.45502147325519     -1.31876474419991      1.99922853249298
