11
Coordinates from ORCA-job run
  C   0.92014781982016      0.03429402515489      0.26012592612418
  C   -0.60356257254263     -0.22573875614473      0.17705082454728
  Cl  1.73243745699624     -0.51952693653979     -1.21560610888675
  H   -1.05315971236401      0.15820983012591      1.10241670589389
  H   1.32249187224932     -0.54947167460138      1.09198894437359
  C   1.16833563307841      1.45268696585137      0.49742197832999
  N   1.34524525243447      2.59324058461701      0.71561764394348
  C   -0.87045667328800     -1.66543877621072      0.10333959273453
  N   -1.06923605750928     -2.82215545349315      0.08105228202086
  C   -1.20431067983150      0.48408031663628     -0.95563406167242
  N   -1.68793233904318      1.06181987460431     -1.85577372740865
