11
Coordinates from ORCA-job run
  C   0.90897355930695     -0.01902294186410      0.24814083466048
  C   -0.50705098166530     -0.26602398731098     -0.33096350217438
  Cl  2.02322980532466     -1.25382553271825     -0.37645934034093
  H   -0.43509288773361     -0.22987658567027     -1.42465765258915
  H   0.87931075678857     -0.12157337137404      1.33525343933959
  C   1.37103089627005      1.31694536356187     -0.11218105456540
  N   1.73101450181048      2.39310755244793     -0.41555309647295
  C   -1.42637629394226      0.78184653769132      0.12482798204166
  N   -2.14521509491616      1.63255229608248      0.49709851807549
  C   -1.00228745785989     -1.58789393764529      0.06558634811151
  N   -1.39753680338349     -2.64523539320066      0.38790752391407
