11
Coordinates from ORCA-job run
  C   0.87267589073425      0.07235421054314      0.34809582332692
  C   -0.45044420440727     -0.34006192028979     -0.34536977135064
  Cl  2.11254070814177     -1.15959997471612      0.02825041418676
  H   -0.24983914529692     -0.44405759557887     -1.41848411444452
  H   0.71938071085661      0.11272181431914      1.42899843159087
  C   1.30811400437706      1.37630354121077     -0.14036858699291
  N   1.64576325146658      2.42631410686915     -0.54458693626083
  C   -1.46736109253209      0.69752321087082     -0.14534568881937
  N   -2.26548714771637      1.54208536330650      0.02456133057021
  C   -0.92392230357883     -1.62760548482832      0.17203771092405
  N   -1.30042067204479     -2.65697727170642      0.59221138726947
