11
Coordinates from ORCA-job run
  C   0.84928577448269      0.11335759728101      0.39165924026919
  C   -0.42060777467814     -0.37012252982080     -0.35341478781775
  Cl  2.13681558514522     -1.09667676825202      0.20486128793685
  H   -0.15549598169853     -0.52401812824839     -1.40629161099595
  H   0.63258219682622      0.20178801347711      1.45877617725059
  C   1.27831376580668      1.40420667045422     -0.13564444673976
  N   1.61217690745228      2.44298582901086     -0.57087236759165
  C   -1.47291231370990      0.64771905697285     -0.26630812802909
  N   -2.30009246931358      1.47743212755371     -0.18646450103405
  C   -0.89213427665585     -1.64129781110061      0.20470900509165
  N   -1.26793141365708     -2.65637405732794      0.65899013165995
