11
Coordinates from ORCA-job run
  C   1.01062954307050     -0.12123628673667     -0.04261559647972
  C   -0.44970567548834     -0.51887833287896     -0.36419505727176
  Cl  1.87632548810972      0.19595066320362     -1.56107002194514
  H   -0.41116611794327     -1.36257414982620     -1.06350902900748
  H   1.49962354807759     -0.97052381935130      0.44045614469343
  C   1.05977930568531      1.03811444653891      0.84083128610725
  N   1.08932412192702      1.96451605091477      1.56250236670577
  C   -1.17326133555087      0.58261615244357     -1.00529453448384
  N   -1.74920693700633      1.46206391565772     -1.52786082992856
  C   -1.12485844714608     -0.95224008956747      0.86340133955886
  N   -1.62748349373525     -1.31880855039801      1.85935393205120
