11
Coordinates from ORCA-job run
  C   1.01559660891882     -0.07573859361760     -0.01762119740967
  C   -0.41797997151279     -0.54726280076406     -0.35975436185844
  Cl  1.89969043426923      0.24451338836083     -1.52451284476210
  H   -0.32561338851550     -1.40784172088287     -1.03307480523237
  H   1.53154495992165     -0.89027553455098      0.49635613818250
  C   0.99241896441230      1.10480783704702      0.83813399891391
  N   0.96480623271620      2.04894422932196      1.53666338007264
  C   -1.17408162345165      0.50194462166553     -1.04878833579285
  N   -1.77636445792453      1.33854623616787     -1.61055611676482
  C   -1.10104878277289     -0.97741416397938      0.86459835394818
  N   -1.60896897606084     -1.34222349876834      1.85855579070300
