11
Coordinates from ORCA-job run
  C   1.01220023284871     -0.08843338955031     -0.07804259689618
  C   -0.44434317209470     -0.54960420537502     -0.32232828357993
  Cl  1.80657709936082      0.18787144358040     -1.64282046984807
  H   -0.40235883205479     -1.42640773626054     -0.97947078641374
  H   1.54962141747718     -0.89798069816593      0.42161887719428
  C   1.05497567365380      1.10983880991503      0.75207051424790
  N   1.08075934475145      2.06409982980664      1.43657865188703
  C   -1.22955406613692      0.49294474136519     -0.98882678347271
  N   -1.85803088118510      1.32284754609332     -1.53133142609757
  C   -1.05806459988901     -0.94162553651951      0.95058686024361
  N   -1.51078221673145     -1.27355080488927      1.98196544273539
