11
Coordinates from ORCA-job run
  C   0.95248301884361     -0.03379502147569      0.09988710005803
  C   -0.57615382340898     -0.21934213874044      0.25741750431874
  Cl  1.47232066217568     -0.47200431155904     -1.53792980576117
  H   -0.83972642235415      0.08378407777442      1.27947054659147
  H   1.45372949633980     -0.71364757336535      0.79368212030328
  C   1.31862263464588      1.34257986370812      0.41814677515905
  N   1.59187794013809      2.44881878094821      0.70331840724867
  C   -0.93864084685992     -1.63005504949775      0.09147419879264
  N   -1.21158624117294     -2.76703465453701     -0.01232534293031
  C   -1.31541946631163      0.63228213564096     -0.67854938044653
  N   -1.90850695203544      1.32841389110358     -1.41459212333386
