11
Coordinates from ORCA-job run
  C   0.91306564611315     -0.00492650217864      0.23312014312865
  C   -0.51013988397244     -0.27945844576907     -0.31526897463069
  Cl  2.02746230219189     -1.24785340902016     -0.37474688837698
  H   -0.45670950539244     -0.27260998264816     -1.41056697094205
  H   0.90198012333119     -0.07666424822799      1.32316224484885
  C   1.35771652308404      1.32420232244519     -0.17209634016419
  N   1.70254069197330      2.39484428115450     -0.51056837972652
  C   -1.43044264024160      0.77309969141809      0.12766848342567
  N   -2.14873412890823      1.62792030545163      0.49154980763198
  C   -0.98742193369067     -1.59384603660383      0.12537756483001
  N   -1.36931719448819     -2.64470797602157      0.48336930997527
