11
Coordinates from ORCA-job run
  C   0.94965396359695     -0.05240316332743      0.11356792321820
  C   -0.58541464846936     -0.17601468094152      0.27124870376082
  Cl  1.46908696197886     -0.66168113640300     -1.46865618364127
  H   -0.84807447573203      0.23278229310768      1.25605334043116
  H   1.42364737401389     -0.67728105413561      0.87488971069737
  C   1.35563371683140      1.33646563782892      0.30284877108233
  N   1.66132040398287      2.45574341162273      0.48617703001355
  C   -0.98942550994352     -1.58475339817453      0.23774699389371
  N   -1.29552958458153     -2.71798889948404      0.23934545493538
  C   -1.28941955185055      0.60229566563085     -0.75179687439243
  N   -1.85047864982699      1.24083532427594     -1.56142486999883
