11
Coordinates from ORCA-job run
  C   0.95143335840727     -0.11741177466134      0.00449685833965
  C   -0.56759990742173     -0.19822112638184      0.29005170372265
  Cl  1.28577194253043     -0.43767601700636     -1.70721415288773
  H   -0.71338971993740      0.02452454549070      1.35549516661483
  H   1.45144133177331     -0.89654644590096      0.58559364017055
  C   1.46135824427983      1.19001870381005      0.40504189826643
  N   1.85525693352314      2.23897287220575      0.75752349972390
  C   -1.06404736377623     -1.55393605521832      0.03573520432633
  N   -1.44589622031264     -2.65009522648804     -0.13916858822583
  C   -1.31030932753331      0.79506527195902     -0.49073171974549
  N   -1.90401927153267      1.60630525219135     -1.09682351030530
