11
Coordinates from ORCA-job run
  C   0.92864005434687     -0.01275669852137      0.23422416168998
  C   -0.60928946596255     -0.18625805839720      0.20409751508094
  Cl  1.66277424726148     -0.66761930462062     -1.24113912677263
  H   -1.00708231588442      0.25171512718224      1.12925150100199
  H   1.32213866786673     -0.58725776830724      1.07670547796694
  C   1.26393030072351      1.39699901025967      0.40734339305479
  N   1.51035159708204      2.53398980718491      0.56942837275939
  C   -0.96149587544722     -1.60920625781605      0.18383760580399
  N   -1.22934070185476     -2.75196589607732      0.19985268384568
  C   -1.20270378048350      0.52390116354631     -0.93232334945867
  N   -1.67792272764819      1.10745887556667     -1.83327823497241
