11
Coordinates from ORCA-job run
  C   1.01264719761214     -0.10666382488238     -0.04253581576191
  C   -0.44197582490156     -0.51171583101227     -0.37942899073086
  Cl  1.87727837236884      0.26618654737890     -1.54947516148494
  H   -0.39124565154483     -1.33411566115435     -1.10286479054027
  H   1.51101328432199     -0.96456988120980      0.41523753673512
  C   1.04683977939043      1.02626714872997      0.87531927434985
  N   1.06455994736603      1.93071856286308      1.62470970270427
  C   -1.17742358180677      0.59814901151420     -0.99152878708565
  N   -1.76396827817821      1.48249948665833     -1.49362790244568
  C   -1.11558628014267     -0.99028129871741      0.83191479876768
  N   -1.62113896448538     -1.39547426016826      1.81128013549240
