11
Coordinates from ORCA-job run
  C   1.01100883692099     -0.12019191673997     -0.03303850140881
  C   -0.44602229497007     -0.52047782048004     -0.36630628877119
  Cl  1.88925306701909      0.19381499471444     -1.54520399734083
  H   -0.40014276709404     -1.36763845780122     -1.06104837950968
  H   1.49720800440355     -0.96758534457124      0.45612537951794
  C   1.05093556854498      1.04157615956528      0.84745199612864
  N   1.07170335339928      1.97007860585078      1.56675158969153
  C   -1.16403476734996      0.57721130548575     -1.01977700451987
  N   -1.73501878809340      1.45367395447327     -1.55275136825885
  C   -1.13193419670992     -0.94904052497500      0.85697683253413
  N   -1.64195601607049     -1.31142095552204      1.85081974193700
