11
Coordinates from ORCA-job run
  C   0.95574806218335     -0.04199206127750      0.05347606186983
  C   -0.56491134377822     -0.23815746291611      0.26596046402185
  Cl  1.39810182836165     -0.35194433686291     -1.63555071525198
  H   -0.78081702898885     -0.01401877105768      1.31914186307009
  H   1.48494720298411     -0.77444331043051      0.66840392012979
  C   1.34221780111385      1.30531725622038      0.45979056675042
  N   1.63332220550223      2.38648824218195      0.81504541881795
  C   -0.94021128677556     -1.63177220452666      0.00902728372352
  N   -1.22283679240208     -2.75741564074587     -0.16712816539060
  C   -1.34248812899765      0.68320766317230     -0.56738983380743
  N   -1.96407251920282      1.43473062624261     -1.22077686393344
