11
Coordinates from ORCA-job run
  C   0.88238453392219      0.06620808657450      0.32408696704365
  C   -0.45693604459823     -0.33023442909554     -0.34743340101446
  Cl  2.12796936184875     -1.12730538801596     -0.10068829691423
  H   -0.28883074992416     -0.38002276324011     -1.42995794479780
  H   0.76383862384362      0.04648594066749      1.40993849952767
  C   1.28316033246055      1.40107543725153     -0.10702168891951
  N   1.59414599468952      2.47453404900026     -0.46861818315015
  C   -1.47967536117766      0.68313739384329     -0.06854525301095
  N   -2.28071223536896      1.51177836446544      0.15695663404902
  C   -0.89777494277432     -1.64699247038495      0.12264676760744
  N   -1.24856951292129     -2.69866422106596      0.50863589957931
