11
Coordinates from ORCA-job run
  C   0.94224806073771     -0.01782681418666      0.18322989909344
  C   -0.59166287224094     -0.22391280910646      0.21705416281653
  Cl  1.60421392098216     -0.49400288792920     -1.39140579088665
  H   -0.94391992051157      0.09708453734704      1.20652376037187
  H   1.39292218575042     -0.66866557546139      0.93668596983952
  C   1.25927991134474      1.37374974907244      0.48679558021955
  N   1.48738924307941      2.49543249256642      0.75113786332526
  C   -0.92085083582560     -1.64304616830028      0.05245562268186
  N   -1.17205550931806     -2.78466861715849     -0.05314195197690
  C   -1.26072866218995      0.59658123545323     -0.79651568319065
  N   -1.79783552180832      1.27027485770335     -1.59381943229383
