11
Coordinates from ORCA-job run
  C   1.01324778358036     -0.10056301798828     -0.04349039998707
  C   -0.43904814649588     -0.52910453829087     -0.36200458913476
  Cl  1.87036370086354      0.22957185603462     -1.56395770472334
  H   -0.38378663421159     -1.37536234383881     -1.05715949646041
  H   1.52022829105664     -0.93825692723952      0.44129429946002
  C   1.03935911159512      1.06168125290867      0.83703577921490
  N   1.04889362293329      1.98941018855856      1.55760471509598
  C   -1.18488002254833      0.55425102645870     -1.00830192022740
  N   -1.77873464661239      1.41989063558423     -1.53385665327385
  C   -1.10494460945188     -0.96991767764849      0.86792320594535
  N   -1.60169845070888     -1.34160045453881      1.86491276409057
