11
Coordinates from ORCA-job run
  C   1.01498143580672     -0.07242602138167     -0.04775050067587
  C   -0.42643012172123     -0.53731167415853     -0.36472545037460
  Cl  1.85751793514527      0.29185517439340     -1.56908322957744
  H   -0.35119343453676     -1.37472758018026     -1.06859403034645
  H   1.54627369652353     -0.89971231143375      0.42892446724513
  C   1.01330555903916      1.08421870778184      0.84045124874835
  N   1.00248846892802      2.00758390268632      1.56663573888669
  C   -1.20451869502594      0.53182735812316     -0.99626150566639
  N   -1.82423967516694      1.38582407512860     -1.51082691968542
  C   -1.07382244152945     -1.00957358386528      0.86345584839872
  N   -1.55336272746237     -1.40755804709384      1.85877433304729
