11
Coordinates from ORCA-job run
  C   0.94858381594062     -0.01319752777960      0.13092813639058
  C   -0.57665301330945     -0.26624645113364      0.20987266627960
  Cl  1.53804620806061     -0.24592937477736     -1.52535515034935
  H   -0.88534619419610     -0.08934748631804      1.24887684977067
  H   1.45166391299797     -0.75018973966349      0.76214604424060
  C   1.25302516834638      1.32963956061837      0.61430599720835
  N   1.47537581162915      2.40400925217025      1.03389884753388
  C   -0.87985275090478     -1.66036592619833     -0.12676384652364
  N   -1.10503169848186     -2.78684771047836     -0.36888128214315
  C   -1.31509983714113      0.66131772124636     -0.65169833178548
  N   -1.90571142294141      1.41815768231385     -1.32732993062207
