11
Coordinates from ORCA-job run
  C   1.01192559423980     -0.10428881821848     -0.05212584171040
  C   -0.44487899883072     -0.51388317114771     -0.37343822579415
  Cl  1.86110628696896      0.26484374492527     -1.56845884472520
  H   -0.39886205738474     -1.34069935354486     -1.09231632298637
  H   1.51653898150235     -0.95942499448955      0.40390680707406
  C   1.05272767504060      1.03125058336571      0.86199015349172
  N   1.07621638633818      1.93565569700956      1.61125020458094
  C   -1.18828756398794      0.59049101843464     -0.98605820993843
  N   -1.78150375566817      1.46992014102944     -1.48895067852427
  C   -1.10660827527665     -0.98679464176777      0.84686310271768
  N   -1.59837427294168     -1.38707020559624      1.83533785581443
