15
Coordinates from ORCA-job run
  C   -0.88323502506160      0.00863130033028      0.44273165041670
  C   0.66696273497285      0.08470514060873      0.36005494225387
  F   -1.17441656268025      1.08177362500052      1.27957357532345
  H   1.13285185696593     -0.15807938922350      1.31561412783206
  N   -1.62399351148054      0.13228851965858     -0.74524232631429
  H   -1.78377845634204     -0.74889524389504     -1.20916745005486
  H   -1.24429229396137      0.82981439632390     -1.37082949489361
  C   -1.25462865836703     -1.22795647658207      1.15228435901600
  N   -1.54375063204776     -2.18969229917484      1.76033305938363
  N   1.08921829370174      1.47110359778468      0.00201262270080
  O   1.80197395425386      2.05806842553722      0.80496271236943
  O   0.67158549131535      1.89855854546725     -1.07152447740211
  N   1.23705762365709     -0.84632740735450     -0.67211456594867
  O   0.57225245241243     -1.84288761925695     -0.93404723829899
  O   2.33819273266132     -0.55310511522419     -1.11764149638339
