15
Coordinates from ORCA-job run
  C   -0.84807040698367      0.00577303271336      0.50985424843623
  C   0.69142484027646      0.07426746843971      0.31189163157396
  F   -1.06482664538839      1.05857583254476      1.39440621566288
  H   1.22559172675910     -0.18267709141822      1.22709388572190
  N   -1.67707632032227      0.16554205925014     -0.61361006576289
  H   -1.33654194490302      0.87105909943951     -1.25269251039775
  H   -1.88291135497047     -0.70317872973681     -1.08287761304438
  C   -1.17259429375330     -1.24725297570829      1.21348273896255
  N   -1.41970928626231     -2.22532772598918      1.81395426529010
  N   1.09392793097073      1.46358466342766     -0.05874978112735
  O   1.85126990266656      2.04455042154782      0.70663957278869
  O   0.61425592235737      1.89959301067628     -1.10273526454876
  N   1.18099180476197     -0.84373648406350     -0.77196067033649
  O   2.27072869404712     -0.56989709675733     -1.25649681006556
  O   0.47353943074416     -1.80987548436592     -1.03619984315318
