15
Coordinates from ORCA-job run
  C   -0.82172762387910     -0.03077321622706      0.27237346699412
  C   0.57161336707362     -0.07380986491840     -0.38292065358867
  F   -0.68706286125756      0.66540995057361      1.47377247311788
  H   0.49955460122727     -0.32066661149322     -1.44068732623171
  N   -1.74511138746704      0.54959631544134     -0.62075142652905
  H   -1.47081754907348      1.48929835839039     -0.87923361720704
  H   -2.68293442142364      0.53618237455985     -0.24084735215872
  C   -1.27336341891939     -1.39840158767061      0.59048632686576
  N   -1.68965718398221     -2.47703785650567      0.79381970049416
  N   1.50996652063654     -1.04658492453127      0.25316634030362
  O   2.36610777979737     -1.50157327012493     -0.49958883544793
  O   1.37356660746312     -1.26701090751092      1.45056224939005
  N   1.20845659138288      1.29287465702635     -0.27459858499448
  O   0.61626232953769      2.17512150770053     -0.88610307923408
  O   2.22514664888393      1.40737507529001      0.38955031822612
