15
Coordinates from ORCA-job run
  C   -0.77996502666649      0.01554802595888      0.49843059269917
  C   0.74173066206463      0.01109585082896      0.26527519722439
  F   -0.96929748549151      1.06855666843866      1.41384769264617
  H   1.27683095193265     -0.29201111279097      1.16289986462139
  N   -1.49787247584021      0.13100149168096     -0.69521537944868
  H   -2.49340390421539      0.01577619329176     -0.56538523561391
  H   -1.27392964012810      0.98300903930047     -1.19218124393159
  C   -1.17832094686881     -1.21515854282658      1.20456209976531
  N   -1.52887647670018     -2.16728828183749      1.79546677801742
  N   1.26361185219943      1.36099508270980     -0.11524002096437
  O   0.55807930438794      2.07983289135301     -0.81447744507523
  O   2.39279877610728      1.61251905585472      0.29198726420956
  N   1.08903052490403     -0.96013062067171     -0.82908857081773
  O   1.37057852621990     -0.50697055134496     -1.92876851349271
  O   1.02800535809483     -2.13477518994552     -0.49111307983919
