15
Coordinates from ORCA-job run
  C   -0.81781426796098     -0.03285446180327      0.28549105645061
  C   0.56442179779874     -0.07372933581816     -0.39258388987638
  F   -0.66697980188429      0.67426807550412      1.47881920983709
  H   0.47733163087586     -0.33148551714520     -1.44661550326493
  N   -1.76011328571562      0.53428720650530     -0.59610586190927
  H   -1.49577158016532      1.47316656784359     -0.86747321501053
  H   -2.69093752376372      0.51862836914040     -0.19948099952288
  C   -1.25447088201741     -1.40057613642754      0.62359799825067
  N   -1.64871580916642     -2.48169328536887      0.85560646967224
  N   1.51915256350118     -1.03519402841548      0.23671244028438
  O   2.36001470867571     -1.49846712156891     -0.52830362862172
  O   1.40944836025959     -1.23947262419033      1.43958291913783
  N   1.19568032109744      1.29763883638427     -0.30827488286428
  O   2.22652553353285      1.42276303111247      0.33152016856981
  O   0.58522823493244      2.17172042424760     -0.91349228113261
