15
Coordinates from ORCA-job run
  C   -0.84266476955027      0.11334547559734      0.43813475581557
  C   0.69427105665466      0.05379506481617      0.42032272336894
  F   -1.18064208305703      0.97401093980903      1.45958541030827
  H   1.08034394404563     -0.04791229668956      1.43320083930231
  N   -1.35410839153145      0.65436520499436     -0.76852835902813
  H   -1.06882088192709      0.09880757564131     -1.56568571274168
  H   -2.36459296623885      0.71320827536077     -0.72944790236449
  C   -1.36054770493135     -1.22212428793782      0.83461572045038
  N   -1.79782333418846     -2.27197983012229      1.13113360259026
  N   1.23691458607297      1.33917345288112     -0.14970798263337
  O   1.55101070935776      1.33727437098514     -1.33168712227058
  O   1.27880660910763      2.27010550349557      0.64102097724694
  N   1.23339828002328     -1.07071203396546     -0.39912473685638
  O   0.54283384442077     -1.47974624698413     -1.32927112469556
  O   2.35162110174178     -1.46161116788156     -0.08356108849245
