15
Coordinates from ORCA-job run
  C   -0.78309094201680     -0.16434669703413      0.44169648108848
  C   0.69924919037597      0.15596038278104      0.24099991202801
  F   -0.82920396184753     -0.79994406765558      1.68952548977956
  H   1.05518888342245      0.79106987641629      1.05131565153588
  N   -1.49912030823024      1.04577597615765      0.39068424668500
  H   -2.50041180045749      0.90677138484242      0.40960595007130
  H   -1.21062142323035      1.70268986604311      1.10451808713968
  C   -1.34762334583218     -1.08870861211777     -0.55459409282324
  N   -1.90700467983961     -1.77747581175652     -1.32318467652243
  N   0.90949729534655      0.89423938097020     -1.04307114694117
  O   1.09577665430851      2.10068800633179     -0.94843563681858
  O   0.85323959979015      0.21812065721406     -2.06429918396219
  N   1.59320804509623     -1.04794158957628      0.21264462852021
  O   1.08426850015628     -2.15279715073003      0.08045680166940
  O   2.78664829295805     -0.78210160188627      0.31313748855009
