15
Coordinates from ORCA-job run
  C   -0.83441786481421      0.04923553566072      0.39745870546872
  C   0.70411434625866      0.07527733190880      0.34594796576836
  F   -1.15860122954360      1.20494428667895      1.13356410758237
  H   1.13442392432519     -0.08731698444580      1.33200725332738
  N   -1.40507186905843     -0.02199369607554     -0.87636468968977
  H   -1.14336908518104      0.76578690162095     -1.45426831539381
  H   -2.40582001350076     -0.15962598961263     -0.84946145935190
  C   -1.28507472606794     -1.09298790299755      1.21250261395562
  N   -1.68137823708430     -1.97262997516603      1.88169533105300
  N   1.23510394000329      1.38382432698817     -0.14850877143262
  O   0.60306804489204      1.97550133680749     -1.01678618413262
  O   2.29932282632805      1.73245507014210      0.35167394272104
  N   1.20367128259350     -1.01568601371283     -0.56077407704978
  O   1.60634779932388     -0.69903348710498     -1.67042681259224
  O   1.12868086152566     -2.13775074069180     -0.07825961023377
