15
Coordinates from ORCA-job run
  C   -0.81744507191771     -0.04977522057931      0.28253173087490
  C   0.56787874123847     -0.06147954929641     -0.39040173510024
  F   -0.68642403428179      0.66012042453115      1.47620847054205
  H   0.48940718578666     -0.32031290389436     -1.44485387918300
  N   -1.76811633503820      0.49759381259044     -0.60297348963299
  H   -1.52391579363675      1.44282137847184     -0.87121107425868
  H   -2.69998376457580      0.46048189090052     -0.21015227934748
  C   -1.22711858540428     -1.42641553287497      0.61817960867528
  N   -1.60539981400232     -2.51363713686387      0.84825308628969
  N   1.53968780586416     -1.00374138826264      0.24170751936742
  O   2.39321896421370     -1.44876665684835     -0.52002500370004
  O   1.42907536530696     -1.21136818888957      1.44399064525942
  N   1.17020677105559      1.32223738802145     -0.30280245400874
  O   2.19609212328765      1.46806827175762      0.34072036398178
  O   0.54383644210366      2.18417341123646     -0.90917150975936
