15
Coordinates from ORCA-job run
  C   -0.76631572566097     -0.10006251380394      0.39088142444416
  C   0.53442917936840     -0.15336369545028     -0.42898100055145
  F   -0.42308169308916      0.23645564170418      1.69903152510231
  H   0.39714556617936     -0.72164811631472     -1.34718729617060
  N   -1.68196369353816      0.78204481337227     -0.21779764379671
  H   -2.61916007014021      0.65315740694213      0.13950660890210
  H   -1.38512084233760      1.74331887256123     -0.10627798603290
  C   -1.36255242332503     -1.44998213901847      0.43245089827908
  N   -1.89086733520860     -2.49790875491266      0.46516996524013
  N   1.61325176790591     -0.83685232224200      0.37443055654977
  O   1.46606468450650     -2.04735524821255      0.48097402867196
  O   2.49626555194459     -0.14092722614360      0.85281986720691
  N   1.06136962906700      1.19088467693773     -0.81671835269011
  O   0.75314667238650      2.15957654002429     -0.12969358121983
  O   1.80738873194151      1.18466206455636     -1.78960901393484
