15
Coordinates from ORCA-job run
  C   -0.78728025148932     -0.16413738700113      0.43376379302669
  C   0.70137127064811      0.18879535359086      0.28567177855453
  F   -0.85032263241407     -1.00234954816563      1.52743677624082
  H   0.97744420356079      0.89205626618496      1.07189912559923
  N   -1.52410070022022      1.01390760866292      0.76164796351464
  H   -2.49136155814955      0.76601021350268      0.94032267710317
  H   -1.48650421212364      1.67249388938105     -0.00721344553784
  C   -1.31101328682645     -0.91980190777597     -0.72756912392398
  N   -1.82167110729879     -1.45073916232715     -1.64301807132851
  N   1.03072817259613      0.82123861762939     -1.03913561379988
  O   0.15629401303971      1.53463211038900     -1.52124815102641
  O   2.15016311006555      0.62364667398621     -1.48592458199129
  N   1.54834918593783     -1.03123553029870      0.43335587586684
  O   1.30731881182675     -1.94771035730052     -0.34341899112230
  O   2.40058498084722     -0.99680684045802      1.31342998882433
