15
Coordinates from ORCA-job run
  C   -0.76833450458890     -0.01548975361508      0.40918418496526
  C   0.56911100219899     -0.03829041497336     -0.34554676072409
  F   -0.61658807139643      0.43923963115700      1.68611739351390
  H   0.42822787920281     -0.34143539550708     -1.38109886800240
  N   -1.62853579457764      0.90400478553065     -0.26196407594856
  H   -2.52775425941566      0.94613804251210      0.20281275270994
  H   -1.76020209258623      0.67792835036600     -1.23972725931008
  C   -1.26754008672251     -1.41335477148999      0.48702878129662
  N   -1.69890155226730     -2.50669240112743      0.47505430721993
  N   1.55806199622174     -0.99510506869681      0.24411211439863
  O   2.15957969412320     -1.68635237966569     -0.57636915495783
  O   1.68751969608982     -1.00438267038540      1.46179693647280
  N   1.15702968315514      1.34498888557396     -0.37327593865631
  O   1.71131900088962      1.74133576528090      0.64179491933725
  O   0.99600740967331      1.94746739504024     -1.42891933231503
