15
Coordinates from ORCA-job run
  C   -0.75215735447172     -0.26744114348348     -0.12216229816765
  C   0.57944680990617      0.02733466630023     -0.03379509635166
  N   -1.67449308490987      0.37798540331111      0.84473460516858
  O   -1.31391739610543      0.47888362560424      2.01318871587576
  O   -2.76404173282662      0.73243680699988      0.39419494175711
  N   -1.42993822080802     -1.11689894534233     -0.92682263750123
  H   -0.91969612677533     -1.45781565189701     -1.72659492982492
  H   -2.41280753777825     -0.91769154034889     -1.03230823411172
  C   1.23527304604675      0.98712151708989      0.90829115759497
  H   1.68405337400723      0.46375202423272      1.75569786374439
  H   0.53029808530584      1.71767100818329      1.29639130234583
  H   2.03282031393929      1.50846043268677      0.38019342090259
  N   1.48754801214920     -0.66011397414344     -0.93239964931222
  O   2.69331877452223     -0.47620787084588     -0.76151469067418
  O   1.02629303779852     -1.39747635834712     -1.81709447144564
