15
Coordinates from ORCA-job run
  C   -0.75706771359650     -0.15037675783173     -0.22949527434585
  C   0.58136611778262     -0.04698946519886      0.04648427843399
  N   -1.71200094311887      0.60661923772751      0.62018407653289
  O   -1.35778749336430      1.70310032367085      1.04530413060067
  O   -2.81738089544611      0.09371452144639      0.79057738933619
  N   -1.40604593744584     -0.90014498925427     -1.13839774044863
  H   -0.84785822451567     -1.37030812473135     -1.83264276420553
  H   -2.38901822330655     -0.74225356125050     -1.27908209651162
  C   1.22165527988613      0.66956421201398      1.19375854281287
  H   0.54332829673401      0.76101847388596      2.03827653934819
  H   2.10269144098817      0.10897241596745      1.50495303329408
  H   1.54819701347559      1.67198379758959      0.90863149417658
  N   1.50898802376792     -0.64516068905900     -0.89056932429223
  O   1.07867824017758     -1.38315827954278     -1.79233713697562
  O   2.70325501798183     -0.37858111543323     -0.74664514775599
