15
Coordinates from ORCA-job run
  C   -0.77685768238773     -0.17764537593975     -0.13250306102000
  C   0.57535554559096      0.00828051338804     -0.06681159054350
  N   -1.63384607997257      0.59577966012900      0.79945619315658
  O   -2.59350208064149     -0.01095938278881      1.27556130353761
  O   -1.35936558646798      1.77479617162541      0.99899438598982
  N   -1.53788333657123     -0.92981991471261     -0.95953667048746
  H   -2.45376336381128     -1.16275874516255     -0.60787638666785
  H   -1.03945039814533     -1.61973754595952     -1.49977289025971
  C   1.32739742482086      0.87727500413680      0.89102069685379
  H   0.73496793434926      1.11763724511183      1.76969319832150
  H   2.23261114571615      0.35732001023948      1.20320215484778
  H   1.63001269120404      1.81383507735035      0.41695370386323
  N   1.40475265518608     -0.69616298878823     -1.02578394985051
  O   0.88298072633856     -1.51661316825566     -1.79629491058727
  O   2.60759040479171     -0.43122656037378     -1.02830217715400
