15
Coordinates from ORCA-job run
  C   -0.75900021604639      0.02803794542704      0.14951311743122
  C   0.57699077534537     -0.08800287763578     -0.01778547774926
  N   -1.61215948398626     -1.11150392387246      0.54395639873263
  O   -1.58621900057101     -2.09295072281482     -0.19137443033599
  O   -2.32346702392169     -0.94577285870114      1.52988204190177
  N   -1.49043418860031      1.17223938122021      0.01289754216611
  H   -1.01787667337205      1.97688892974865     -0.36471364388556
  H   -2.45362996407031      1.07351049978858     -0.26718340634561
  C   1.42855525136515      1.00822322957801     -0.56864713041409
  H   0.92324963484767      1.52519329786277     -1.38926392624494
  H   1.68956690841857      1.74333283165457      0.19961003317359
  H   2.34972244380471      0.58259604992576     -0.96276189445648
  N   1.24555473241897     -1.31046977858695      0.40951921184393
  O   0.74649521477666     -1.95127491905146      1.33442060023516
  O   2.28465158959092     -1.61104708454297     -0.17906903605248
