15
Coordinates from ORCA-job run
  C   -0.75003333466384     -0.09587795589004     -0.27475447763130
  C   0.58181074839022     -0.02203082567010      0.02360260570817
  N   -1.70767916063884      0.57372589109179      0.64024706185561
  O   -2.76726465415966     -0.02081446629912      0.83922571446108
  O   -1.40457181725262      1.67151765098165      1.09686364629773
  N   -1.40267175565111     -0.64403725607094     -1.32404404551648
  H   -2.37542125552242     -0.85597580827111     -1.16460342057506
  H   -0.85868930300529     -1.27141527862032     -1.89546725828178
  C   1.20892314541187      0.61897118776284      1.22142015599754
  H   1.59020321889562      1.61448637489173      0.98287435189741
  H   2.05257545577777      0.00997234270099      1.54427517976220
  H   0.50457685253345      0.71297151477444      2.04384877528803
  N   1.52001155553296     -0.61001704612485     -0.91376702976451
  O   1.08974047633952     -1.26034544300648     -1.87868970153853
  O   2.71848982801235     -0.42213088225047     -0.70103155796011
