15
Coordinates from ORCA-job run
  C   -0.76791754249782      0.03270446146302      0.06343646934034
  C   0.57088392528765     -0.09515421105106     -0.05354824852140
  N   -1.63314479444563     -1.11767520292377      0.40890603670523
  O   -2.65226792129699     -0.85326624589105      1.04755270808719
  O   -1.30422786065659     -2.22327086111835     -0.00296284008203
  N   -1.48771557787422      1.16446569238858     -0.22970423022151
  H   -2.45124387550198      1.10577856378275      0.06680566223808
  H   -1.04951193796154      2.03088293543674      0.04176443811514
  C   1.44928378012881      0.98239260014942     -0.59287154545160
  H   1.86011792781974      1.60987636943411      0.20555318937987
  H   0.89200499163276      1.61420160814100     -1.28765907097644
  H   2.28223955604690      0.52905410758870     -1.13048076187802
  N   1.24331599609491     -1.29517706978556      0.43809186657722
  O   0.90263186128158     -1.73856202131927      1.53351634424032
  O   2.14455147194242     -1.74525072629525     -0.26840001755241
