15
Coordinates from ORCA-job run
  C   -0.81947233727965      0.00273280920666      0.10757122686641
  C   0.50759297835175     -0.10903439716253     -0.11580432580317
  N   -1.62302313244943     -1.10750482956570      0.67700166211208
  O   -1.11179737957711     -2.21656645915595      0.76015196081957
  O   -2.70888560796440     -0.77591792707372      1.15088669729477
  N   -1.60849470784892      1.08852355912597     -0.19651801936611
  H   -2.30366735132420      1.31777667390496      0.49794322945849
  H   -1.11366298348312      1.88415384582666     -0.56614148486115
  C   1.42331438097356      1.02637962695845     -0.43754121522232
  H   1.71185069720279      1.02124445356895     -1.49344031507450
  H   0.97487602574505      1.99051648972794     -0.19543747349264
  H   2.33289432087835      0.91866632322178      0.15829089558439
  N   1.20904333301292     -1.39740951765469     -0.03044199087534
  O   1.90089534420695     -1.56333230471493      0.97089486257406
  O   1.22853641955547     -2.07922834621385     -1.04941571001454
