15
Coordinates from ORCA-job run
  C   -0.78721853382321     -0.00880799840818      0.20750747258703
  C   0.56631285355608      0.12246347841900      0.07172324103148
  N   -1.55188323800433     -0.56515062833678     -0.93627394000526
  O   -1.25049313563095     -0.20144893115293     -2.06860917817210
  O   -2.47011817783015     -1.33232570655982     -0.64665387955451
  N   -1.62355180545267      0.33256339024044      1.21371930779588
  H   -1.18027105443624      0.54578096208339      2.09363255470773
  H   -2.50531528289616     -0.15652330914326      1.22488234599875
  C   1.40366742862453     -0.28407196876959     -1.09965520135415
  H   1.64339925798988      0.57520179451972     -1.73021767214337
  H   2.34248545613127     -0.69853149136901     -0.73387799097882
  H   0.90409318234989     -1.02756347701671     -1.71514195256817
  N   1.30148457658383      0.73400164362552      1.16241911549525
  O   0.70852994484416      1.01077850515978      2.21640181078877
  O   2.49887852799407      0.95563373670841      0.97814396637148
