15
Coordinates from ORCA-job run
  C   -0.76965245339509     -0.01883808478266     -0.00855597036140
  C   0.57557563529684     -0.01255015442785      0.10284410973267
  N   -1.59340343081084     -1.10312579465954      0.57364216240934
  O   -2.62879520420220     -1.37814875284727     -0.03337075476257
  O   -1.21720508965494     -1.60307109990270      1.62644112318125
  N   -1.53234259650428      0.99132843933608     -0.53929380171175
  H   -1.13537323411756      1.44860699282785     -1.34520421647453
  H   -2.49748034920406      0.72783296249941     -0.67569969416764
  C   1.42444500229225      1.15081759786803     -0.28398468341301
  H   2.27624094464663      1.21100608329871      0.39376644969177
  H   0.85637277420062      2.08011299040633     -0.20708676308233
  H   1.80844672450189      1.05201294126240     -1.30502100986738
  N   1.28297463560474     -1.21247485476164      0.54318718827066
  O   2.22665487578300     -1.03977425302297      1.31369098425846
  O   0.92454176556301     -2.29473501309418      0.08164487629646
