15
Coordinates from ORCA-job run
  C   -0.76744222330099     -0.02621593871973     -0.04814923935811
  C   0.57937787473947     -0.05043992786103      0.04013426875102
  N   -1.59244819654631     -1.20453693177280      0.30210439237952
  O   -2.70378168102649     -0.96296471777560      0.77409325757574
  O   -1.13765262782076     -2.31407589655240      0.05301065020758
  N   -1.51513702303036      1.00055665719104     -0.56927094441782
  H   -2.50440194016749      0.89372113808182     -0.39709492778814
  H   -1.17952539271792      1.92601467941864     -0.35222569028693
  C   1.45538375293354      1.03272819519200     -0.49175065448555
  H   2.37859193547636      0.59160094816899     -0.86792171238421
  H   0.96145114714902      1.55344069306462     -1.31460547381138
  H   1.71763737435573      1.76093643718564      0.28328751550185
  N   1.25081893602588     -1.13346289797783      0.75463634242057
  O   0.77230510328570     -1.49996229667353      1.82677478324175
  O   2.28382296064462     -1.56734014096983      0.24597743245412
