15
Coordinates from ORCA-job run
  C   -0.77229101402032     -0.00373347914681      0.10548170026788
  C   0.57113006829959     -0.03721919863044     -0.01286804792374
  N   -1.53984103082125     -1.13383087477517      0.66935123866875
  O   -1.36897080982260     -2.24140438842993      0.17819794715050
  O   -2.34301698067768     -0.83506640603539      1.55154509876224
  N   -1.63169071693936      0.96047042041119     -0.36099382683159
  H   -2.46834148241480      1.04918233951806      0.19897639271070
  H   -1.21011136755876      1.84728531045214     -0.58775697742876
  C   1.39032968883495      1.00604146620901     -0.69931919449389
  H   2.36686042334511      1.09207599343259     -0.22173950248011
  H   1.55470398496011      0.75129297016235     -1.74921306914201
  H   0.90815071688369      1.98518225735064     -0.65008308719013
  N   1.30995182058182     -1.19209499224798      0.47937000743512
  O   2.28936768593371     -1.52577831097816     -0.18894399659065
  O   0.94376901341579     -1.72240310729209      1.52699531708570
