15
Coordinates from ORCA-job run
  C   -0.76644351382520      0.01297448337615      0.07873111206031
  C   0.58222806571661     -0.03314398662154      0.03979618029230
  N   -1.55898166994242     -0.96839503642074      0.85399556493847
  O   -1.08526433231583     -1.38322694840377      1.90433837899978
  O   -2.66666630309959     -1.24845034683193      0.39459745109758
  N   -1.54518652302900      1.00424914236225     -0.46415745601898
  H   -1.22538907853197      1.36310638824636     -1.35025327429672
  H   -2.52909739966150      0.77742212462123     -0.46644618240646
  C   1.41907143653548      1.04850633588649     -0.55469436269387
  H   0.90353848844518      2.00881213666386     -0.48648162750002
  H   2.35545942835499      1.11991480256055     -0.00125246515731
  H   1.65823959567252      0.84823138275734     -1.60472681392417
  N   1.29224085636592     -1.21578849938603      0.51988169289466
  O   2.32401820099926     -1.01309836671668      1.15909474449758
  O   0.84423274831553     -2.32011361209353      0.21557705721685
