15
Coordinates from ORCA-job run
  C   -0.76844316164780      0.03016629613161      0.06168668785416
  C   0.57837414115987     -0.05860683253235      0.04424285081573
  N   -1.61517123391143     -1.08019089773323      0.55635309383478
  O   -2.71668895184163     -1.19819549170696      0.01892998762744
  O   -1.18574043622021     -1.75604584438832      1.48297862794267
  N   -1.49980109554416      1.15123633631530     -0.24136121590592
  H   -1.14395594027929      1.70148060933043     -1.00731684575224
  H   -2.48980349169043      0.96845039343824     -0.31848619230790
  C   1.47330466408029      1.09788643870058     -0.24708909259966
  H   2.37741311909408      1.00861213266461      0.35566369430986
  H   0.97887870401301      2.03671326486945      0.01054763998504
  H   1.76892205038923      1.12897455905119     -1.30122277613917
  N   1.23304693883246     -1.35071181625020      0.23576134531278
  O   0.76055835964293     -2.32724644340667     -0.34388024429184
  O   2.24810633392307     -1.35252270448368      0.93119243931424
