15
Coordinates from ORCA-job run
  C   -0.76695219738722      0.02077463652679      0.08627401682758
  C   0.57002774118379     -0.08258253934111     -0.06833025407205
  N   -1.60073922934468     -1.14673597336647      0.45215785744821
  O   -1.27355859979195     -2.24195764822424      0.01243036850485
  O   -2.59603885836715     -0.90474321299704      1.13554867246227
  N   -1.51820922288597      1.13788745704620     -0.18353836101511
  H   -1.08569752751988      2.01320975032532      0.06753787191548
  H   -2.46825698560731      1.06274789908518      0.15040136265502
  C   1.41647916358562      1.00883053897556     -0.63052025656890
  H   2.22900651913439      0.56810650608007     -1.20843746804313
  H   0.82672291309169      1.64497329088676     -1.29363946680579
  H   1.85708708249299      1.62865217465034      0.15778440649703
  N   1.27526986128733     -1.27413958026298      0.39772390325127
  O   2.17244318268186     -1.69873157464485     -0.32945034801295
  O   0.96341615744649     -1.73629172473952      1.49405769495620
