15
Coordinates from ORCA-job run
  C   -0.76507190199976      0.03867004039246      0.09660015182247
  C   0.57868402183706     -0.06459652224960      0.01962422853038
  N   -1.59982247328046     -1.05475722140725      0.64436507171424
  O   -1.13779253383860     -1.72020178636104      1.56286785263878
  O   -2.72471515600137     -1.16952858143829      0.15684825006319
  N   -1.49752440785856      1.16404764531551     -0.18930564208215
  H   -1.16896401707412      1.69784312353881     -0.97882652044607
  H   -2.49141129731426      0.98890976997927     -0.22338528447516
  C   1.47007112610185      1.07851184799918     -0.32977166701425
  H   1.71182038405629      1.09418416368411     -1.39796653327601
  H   0.99953685762138      2.02579461088162     -0.05882117638867
  H   2.40296632088363      0.98584251496322      0.22667527343677
  N   1.22819269445336     -1.36036972698632      0.20107357410171
  O   2.27520308919656     -1.36258174525338      0.84750503514334
  O   0.71882729321701     -2.34076813305830     -0.33948261376858
