15
Coordinates from ORCA-job run
  C   -0.76514000311744      0.03916247909308      0.09368443602161
  C   0.57878293334637     -0.06455828873405      0.02167791679058
  N   -1.60111556256603     -1.04733160997498      0.65323261490356
  O   -1.14208746490635     -1.69993131806608      1.58241935594030
  O   -2.72380307829477     -1.17031257093361      0.16267023556488
  N   -1.49724324220316      1.16033627064321     -0.20908382069307
  H   -2.49092568576037      0.98421897817916     -0.24401004718811
  H   -1.16640035364224      1.68428043169225     -1.00422308781816
  C   1.47034687336053      1.07476937239766     -0.33947712734852
  H   2.40241450940580      0.98876324845653      0.21940412592516
  H   1.71337620119166      1.07859326328350     -1.40748677620802
  H   0.99941465724878      2.02505590395814     -0.07985382244577
  N   1.22856077251162     -1.35746612760343      0.22234784193038
  O   2.27339980272726     -1.35026106812553      0.87223829477381
  O   0.72141964069832     -2.34531896426585     -0.30654014014863
