15
Coordinates from ORCA-job run
  C   -0.76673242133289      0.03029911864053      0.08618318634043
  C   0.57997774950963     -0.04304446793224      0.03293349995196
  N   -1.56984241171947     -0.95147402728034      0.85050112081970
  O   -2.68487501627104     -1.20662531841122      0.39464037906123
  O   -1.09532292484682     -1.39167083140095      1.89019204661737
  N   -1.53311010187947      1.04710989828565     -0.42754412801450
  H   -1.21601288962280      1.41516932628011     -1.31089984601151
  H   -2.52029835092324      0.83444960764745     -0.42606642284000
  C   1.43778043038473      1.02902065159632     -0.54860663128703
  H   2.36725328772694      1.08793279086730      0.01815146618709
  H   1.68948290949391      0.82561770839154     -1.59494707965141
  H   0.93471709761812      1.99609169957234     -0.48615938818160
  N   1.26909957893546     -1.25041865586462      0.48249619997247
  O   0.79336821797109     -2.33849622918415      0.16256697159291
  O   2.31251484495587     -1.08196127120772      1.11255862544289
