15
Coordinates from ORCA-job run
  C   -0.77680884044942      0.01871436205668      0.07439115414043
  C   0.56849502989741     -0.05095048467500      0.00393359697962
  N   -1.59379412167186     -1.10332265074429      0.58414607612175
  O   -1.42016487713577     -2.20801008087336      0.08758354691003
  O   -2.43371476429529     -0.80028833994201      1.42991075691375
  N   -1.59371057803291      1.01580176563227     -0.40094909462687
  H   -1.14174087210443      1.89951422546015     -0.57570546126472
  H   -2.44994664570421      1.10750971777509      0.12825152013626
  C   1.44681554838998      0.97632055948089     -0.63110438510159
  H   1.68208465876299      0.70663894590582     -1.66345517145559
  H   2.38837093765404      1.05583749632613     -0.08622175825782
  H   0.97523200533023      1.96145350081218     -0.62896378314576
  N   1.25718204295905     -1.23185617231667      0.50835582526995
  O   0.84291042390493     -1.75961380852958      1.53910830156980
  O   2.24779005249527     -1.58774903636831     -0.13128112418923
