15
Coordinates from ORCA-job run
  C   -0.77546654430730      0.01157821623723      0.07214848497504
  C   0.57089294835185     -0.04780393223156      0.01113437654553
  N   -1.58929073774796     -1.10914120039350      0.58889115484975
  O   -1.42389998093977     -2.21307225686225      0.08811077767759
  O   -2.41996409560596     -0.80427713242997      1.44295488201872
  N   -1.59559109110538      0.99758943079616     -0.41917511716717
  H   -1.14679674196075      1.87824311047773     -0.61588428237498
  H   -2.45312974148549      1.09740574738983      0.10629026929952
  C   1.44101839266693      0.98455738912141     -0.62722298687111
  H   0.97282124906838      1.97120151064166     -0.60004987758573
  H   2.39288670557704      1.05287878531544     -0.09949756233433
  H   1.65565504223619      0.73014030516846     -1.66806621632641
  N   1.26388603402940     -1.22304780748795      0.52127207694814
  O   2.26775405882872     -1.56672097498474     -0.10433871337685
  O   0.83822450239411     -1.76053119075795      1.54243273372229
