13
Coordinates from ORCA-job run
  C   -0.70394856263626      0.53092607744973      0.03453095517382
  C   0.37445874151607     -0.54270175410045      0.00134604847049
  Br  -0.45090721444796      1.90723354110558     -1.28247723331290
  H   0.13991081291450     -1.23124727229259      0.81704545453975
  H   -0.75251399057835      1.01772886479117      1.00908315097950
  H   0.27563680075396     -1.10472213370460     -0.93286902292030
  N   -2.05622629549665     -0.14521327453498     -0.12632710823309
  O   -2.31291495444046     -0.92814927224607      0.78573516498615
  O   -2.74707935579167      0.06579084814950     -1.11134620023580
  C   1.78619434969471      0.00672624386119      0.16616759933163
  H   2.48331347667319     -0.81322845722071      0.34904616593039
  H   2.11593444895076      0.54255529565955     -0.72342582306553
  H   1.84614174288815      0.69330129308269      1.01449084835589
