13
Coordinates from ORCA-job run
  C   -0.82542635940619      0.71473497206631      0.12088735116782
  C   0.49514598235386      0.26982131401347      0.73138328932222
  Br  -0.60500960454719      2.04523353885551     -1.25209743728346
  H   0.98921140939372      1.15896454768322      1.13058231695903
  H   -1.48353659154841      1.14634062383760      0.87490617285929
  H   0.24387636162120     -0.37366918159470      1.57857998821330
  N   -1.55926491574338     -0.50882871644010     -0.39866069093026
  O   -1.80349277361744     -0.63018299839209     -1.58930407940298
  O   -1.78268381294783     -1.34268365483133      0.47592971114207
  C   1.40467602394125     -0.47439349823939     -0.23782584014517
  H   2.32087977871507     -0.77715961684210      0.27222620826863
  H   1.68336167373637      0.14960109886988     -1.08823671657983
  H   0.92326282804897     -1.37777842898628     -0.61837027359066
