13
Coordinates from ORCA-job run
  C   -0.69522453689078      0.48684871193028      0.10987635152774
  C   0.39586486926686     -0.52924314834624     -0.14812388316650
  Br  -0.61168662711451      2.00138079331454     -1.09140296267425
  H   0.32397737006650     -0.85790038897423     -1.18666517379424
  H   -0.68583558093517      0.88236075302291      1.12379490467481
  H   0.17021109377903     -1.39667878080066      0.48413862648286
  N   -2.04426882917809     -0.16297353603006     -0.05047919624099
  O   -2.81404650907111     -0.05719647135589      0.90151230173099
  O   -2.25679507258287     -0.76722807064810     -1.09472498049055
  C   1.78637091187335      0.00345703449787      0.17582594093294
  H   2.52810460831774     -0.78773658617552      0.05260523884341
  H   2.06011798028072      0.82702016113878     -0.48436926938077
  H   1.84421032218833      0.35788952842633      1.20801210155454
