13
Coordinates from ORCA-job run
  C   -0.88546277972211      0.23944295768037      0.51679137074284
  C   0.58345191705776      0.58147838392248      0.40126471904003
  Br  -1.94406083123844      1.73788316038023      1.12076610583351
  H   0.68455476976962      1.44511176784078     -0.25947152905997
  H   -1.08412290209849     -0.59127097314481      1.19097913456139
  H   0.92933685291927      0.88070304405506      1.39421351692474
  N   -1.39409543409690     -0.20872038236838     -0.82778134345585
  O   -1.83829808133194     -1.35329843684368     -0.88368040719555
  O   -1.27544113390142      0.57281123917283     -1.76311510085002
  C   1.39448505338862     -0.60258693063210     -0.12143129345545
  H   2.45857537198159     -0.35994648025737     -0.10877101724151
  H   1.24522923576335     -1.49398608533592      0.49278730881263
  H   1.12484796150908     -0.84762126446950     -1.15055146465679
