13
Coordinates from ORCA-job run
  C   -0.78130926731940      0.65173032670250      0.27032849320054
  C   0.66544445785736      0.60692708281122     -0.16897613337264
  Br  -1.66200026388815      2.28546830026190     -0.26431692527638
  H   0.70118787648905      0.75437537560122     -1.25046785041805
  H   -0.90979025683262      0.55060166958163      1.34612976098481
  H   1.17603561627097      1.45297210062782      0.29862100659437
  N   -1.51483759163367     -0.51865931629904     -0.32983137541373
  O   -1.50818552431069     -0.62081394309388     -1.55011472008967
  O   -2.01480300841848     -1.30945941486007      0.46703869059002
  C   1.32920829241330     -0.71142769235254      0.22362381264408
  H   1.23784401815759     -0.90366832014175      1.29545506885637
  H   0.89019387282338     -1.55449431744401     -0.31337015786420
  H   2.39201177839136     -0.68155185139499     -0.02311967043552
