13
Coordinates from ORCA-job run
  C   -0.54515619777220     -0.03470442426279     -0.50518086964214
  C   0.90415544222168     -0.45921380219508     -0.27321379242212
  Cl  -1.03523783432804     -0.95524155373267     -2.03540612796404
  H   1.54522551775953     -0.10530185270719     -1.07838825336630
  H   0.96132835329381     -1.54155345746878     -0.17010824525178
  C   -0.66666157245026      1.38522142405562     -0.84581548798815
  N   -0.79561882433455      2.51767271555976     -1.12926336134259
  N   -1.32785681622004     -0.32129406029459      0.62934638312374
  H   -1.26695641165281     -1.29128106969293      0.91219936610568
  H   -2.29255098663916     -0.03537255693393      0.52837344043187
  N   1.39234901231817      0.13217151442635      1.00609034758809
  O   1.45373606552477     -0.61813424730544      1.97643466771615
  O   1.67224425227910      1.32703137055168      0.98493193301159
