13
Coordinates from ORCA-job run
  C   -0.52886589123527     -0.01724943929026     -0.52297833974373
  C   0.91461417089200     -0.44576522500299     -0.26293418509711
  Cl  -0.96811638474168     -0.87986051003153     -2.10120215379536
  H   0.97250647188925     -1.53112509285619     -0.19908055644371
  H   1.57871004699268     -0.05974410630101     -1.03394840943739
  C   -0.64706574295098      1.41422469253601     -0.81233807092560
  N   -0.77477408564924      2.55622893892711     -1.05485078858085
  N   -1.34425738625319     -0.34958065207358      0.57571738834933
  H   -2.30649148284865     -0.06244287811942      0.45674186244078
  H   -1.28785523936050     -1.32955363137813      0.82261963692302
  N   1.36079030013609      0.09809220847856      1.05221022611778
  O   1.63738020543146      1.29348062813652      1.08459401386382
  O   1.39342501769802     -0.68770493302509      1.99544937632901
