13
Coordinates from ORCA-job run
  C   -0.52629617392243     -0.08696047722814     -0.51878102667283
  C   0.93978229219745     -0.40806700034100     -0.23320611462073
  Cl  -0.91032857239471     -1.08697700355155     -2.03007219630055
  H   1.06248274875269     -1.48051178126183     -0.09104651577384
  H   1.58060835628800     -0.04005399328968     -1.03218963093680
  C   -0.73060083110784      1.30965864628634     -0.91195792070380
  N   -0.92862287890223      2.42150333757442     -1.23431935211069
  N   -1.32143545182918     -0.38688439081059      0.60290546344523
  H   -2.29966885120163     -0.16999697498407      0.46737170157241
  H   -1.20291360021357     -1.33848054943554      0.92630135703534
  N   1.35150293621208      0.25633858692425      1.03728750845277
  O   1.55647255209220      1.46511354390113      0.98104758362349
  O   1.42901747402917     -0.45468194378374      2.03565914299000
