13
Coordinates from ORCA-job run
  C   -0.55666488726494      0.08981847476036     -0.48566554893876
  C   0.95462082033327     -0.12386826916142     -0.41989156071352
  Cl  -0.95910832729337     -0.14493327010937     -2.27741102109836
  H   1.48010335047510      0.65142631016712     -0.97404234524447
  H   1.20435269671620     -1.11487575972831     -0.79504679672289
  C   -0.94499987267582      1.46774536688241     -0.17310162954722
  N   -1.29026929739725      2.56374213288587      0.06906641852741
  N   -1.21555251908064     -0.79824267216410      0.38647279308272
  H   -0.96929482387408     -1.76567284405723      0.21883973808532
  H   -2.21996421309850     -0.67861283566457      0.38876048919263
  N   1.40083679984787     -0.06422244578268      1.00174723492511
  O   1.47437011456179      1.05226351597965      1.50615143938758
  O   1.64057015875036     -1.13456770400770      1.55412078906445
