16

C	-0.559213	0.004536	-1.423414
C	0.0	0.0	0.0
Cl	0.261504	1.456868	-2.256762
H	1.094212	0.0	0.0
C	-0.204662	-1.12568	-2.286807
N	-0.02643	-1.968086	-3.085788
N	-1.968683	0.159605	-1.377212
H	-2.346844	0.341432	-2.299737
H	-2.148196	0.948275	-0.761199
N	-0.390249	-1.213739	0.699467
O	-0.266633	-2.284097	0.090572
O	-0.689884	-1.136562	1.905397
N	-0.458536	1.18459	0.690757
H	-0.835599	0.873841	1.579979
H	0.378558	1.728468	0.894725
H	2.486067	0.0	0.0
