16

C	-0.452549	0.0085	-1.464989
C	0.0	0.0	0.0
Cl	0.219608	-1.380999	-2.380621
H	1.099837	0.0	0.0
C	-1.920236	-0.024676	-1.563378
N	-3.094561	0.015869	-1.58903
N	0.04632	1.206589	-2.122327
H	-0.196234	1.966143	-1.488625
H	1.063265	1.12652	-2.073943
N	-0.483916	-1.135158	0.790972
O	-0.358561	-1.039543	2.020407
O	-0.921514	-2.139693	0.215656
N	-0.320484	1.257742	0.624315
H	-1.124767	1.171556	1.232629
H	0.482583	1.519963	1.191099
H	2.532454	0.0	0.0
