16

C	-0.511493	-0.022114	-1.455451
C	0.0	0.0	0.0
Cl	0.423071	-1.136089	-2.520413
H	1.093504	0.0	0.0
C	-1.916525	-0.485879	-1.522448
N	-3.046257	-0.799128	-1.62619
N	-0.352901	1.30506	-1.984232
H	-0.731502	1.954079	-1.30318
H	-0.812388	1.386951	-2.882014
N	-0.421969	-1.226704	0.704862
O	-1.090845	-1.126273	1.747207
O	-0.032749	-2.298312	0.234399
N	-0.440306	1.1877	0.673451
H	0.373457	1.563728	1.153406
H	-1.145349	0.938599	1.360039
H	2.548714	0.0	0.0
