16

C	-0.518	-0.007388	-1.441609
C	0.0	0.0	0.0
Cl	-0.190992	1.594723	-2.179919
H	1.091896	0.0	0.0
C	0.209458	-0.96726	-2.30123
N	0.693509	-1.727448	-3.056095
N	-1.958749	-0.212537	-1.478276
H	-2.114588	-1.170543	-1.176603
H	-2.274373	-0.131733	-2.44095
N	-0.370961	-1.233491	0.657493
O	-0.335988	-1.254359	1.901278
O	-0.549638	-2.257552	-0.041347
N	-0.345222	1.166756	0.737069
H	0.416237	1.34808	1.384368
H	-1.19783	1.025006	1.262053
H	2.429047	0.0	0.0
