16

C	-0.52989	-0.033481	-1.436776
C	0.0	0.0	0.0
Cl	-0.162196	1.542915	-2.216429
H	1.090026	0.0	0.0
C	0.170993	-1.031365	-2.27568
N	0.604765	-1.840203	-3.010489
N	-1.972225	-0.20204	-1.463874
H	-2.29094	-0.140928	-2.425881
H	-2.153785	-1.144778	-1.131494
N	-0.384129	-1.207437	0.694461
O	-0.310513	-1.201227	1.935756
O	-0.634092	-2.237453	0.02701
N	-0.333933	1.189761	0.710268
H	-1.132469	1.039852	1.311314
H	0.468563	1.422389	1.287293
H	2.431745	0.0	0.0
