16

C	-0.561474	-0.00533	-1.426428
C	0.0	0.0	0.0
Cl	0.001519	1.533191	-2.195469
H	1.092795	0.0	0.0
C	-0.01827	-1.079416	-2.266366
N	0.376537	-1.87608	-3.032847
N	-2.009288	-0.016914	-1.501416
H	-2.291243	-0.928817	-1.147195
H	-2.310453	0.687524	-0.829583
N	-0.410039	-1.162269	0.708058
O	-0.704743	-2.195231	0.055879
O	-0.322371	-1.146939	1.95821
N	-0.407546	1.199586	0.707906
H	-0.566168	0.906271	1.665928
H	0.412825	1.80286	0.730189
H	2.39109	0.0	0.0
