16

C	-0.45268	0.061996	-1.431262
C	0.0	0.0	0.0
Cl	-2.506976	0.192441	-1.363921
H	1.09293	0.0	0.0
C	-0.166704	1.382628	-1.987985
N	0.08971	2.429246	-2.455799
N	-0.049429	-0.92755	-2.287512
H	-0.146752	-1.848424	-1.881912
H	-0.373068	-0.827607	-3.237355
N	-0.375111	-1.266326	0.661715
O	-0.389349	-2.301318	-0.029686
O	-0.506882	-1.27535	1.881794
N	-0.341177	1.125322	0.78433
H	0.455813	1.746499	0.849823
H	-1.182354	1.598077	0.488203
H	2.437825	0.0	0.0
