16

C	-0.260066	-0.096532	-1.51488
C	0.0	0.0	0.0
Cl	-2.003325	-0.630248	-1.880565
H	1.092399	0.0	0.0
C	-0.209924	1.272821	-2.066907
N	-0.104203	2.322533	-2.589175
N	0.670863	-0.98058	-2.105286
H	1.562353	-0.911437	-1.588548
H	0.807594	-0.78288	-3.088149
N	-0.470924	-1.25857	0.64586
O	0.151546	-2.285003	0.376521
O	-1.445769	-1.198948	1.395826
N	-0.494838	1.134643	0.684967
H	0.17452	1.888335	0.608344
H	-1.417686	1.425429	0.39235
H	2.663145	0.0	0.0
