16

C	-0.562578	-0.004697	-1.423812
C	0.0	0.0	0.0
Cl	0.319915	1.37728	-2.301173
H	1.088281	0.0	0.0
C	-0.278959	-1.179303	-2.2536
N	-0.151339	-2.044837	-3.037843
N	-1.964563	0.221948	-1.377347
H	-2.098357	1.042349	-0.792432
H	-2.333731	0.39446	-2.305667
N	-0.395039	-1.212092	0.710448
O	-0.782329	-1.118748	1.889583
O	-0.194369	-2.289658	0.136059
N	-0.444353	1.194225	0.675034
H	-0.928572	0.902143	1.517878
H	0.401517	1.68052	0.962244
H	2.497958	0.0	0.0
