16

C	-0.356451	0.059229	-1.502862
C	0.0	0.0	0.0
Cl	-0.342224	-1.647753	-2.261081
H	1.091895	0.0	0.0
C	-1.734598	0.516707	-1.732649
N	-2.840319	0.877488	-1.90088
N	0.590079	0.921741	-2.07609
H	0.567219	0.909235	-3.086167
H	1.526416	0.718717	-1.702808
N	-0.535766	-1.240584	0.652366
O	0.17809	-2.23674	0.687157
O	-1.67322	-1.170286	1.136296
N	-0.451487	1.186171	0.645264
H	-1.356331	1.051196	1.076178
H	0.241704	1.468537	1.327161
H	2.736443	0.0	0.0
