13

C	-0.335418	-0.131779	-1.487798
C	0.0	0.0	0.0
Br	-0.078316	1.598093	-2.397897
H	1.093787	0.0	0.0
H	-1.385362	-0.364802	-1.686626
H	-0.306316	-0.939153	0.48182
C	0.630242	-1.147227	-2.082711
H	0.591272	-1.170011	-3.172973
H	0.37162	-2.14227	-1.699991
H	1.629067	-0.889554	-1.712765
C	-0.641613	1.097698	0.691107
N	-1.175529	1.964704	1.278742
F	2.627498	0.0	0.0
