13

C	-0.530215	-0.002932	-1.42732
C	0.0	0.0	0.0
Br	0.168008	-1.590326	-2.356706
H	1.092669	0.0	0.0
H	-0.089561	0.83647	-1.970458
H	-0.341912	-0.898886	0.527294
C	-2.044794	-0.008966	-1.55493
H	-2.458279	-0.893532	-1.062787
H	-2.360878	-0.018991	-2.601064
H	-2.455196	0.881608	-1.069348
C	-0.508979	1.170293	0.692663
N	-0.933001	2.127579	1.230021
F	2.565523	0.0	0.0
