13

C	-0.496546	0.023982	-1.435238
C	0.0	0.0	0.0
Br	0.125107	-1.576351	-2.398047
H	1.092639	0.0	0.0
H	0.014342	0.844104	-1.94504
H	-0.294801	0.955325	0.45875
C	-2.004388	0.118262	-1.599512
H	-2.488085	-0.750453	-1.147101
H	-2.292966	0.170342	-2.651958
H	-2.364466	1.019693	-1.090601
C	-0.585622	-1.073335	0.779881
N	-1.063549	-1.941293	1.412371
F	2.576007	0.0	0.0
