13

C	-0.432107	0.039355	-1.463178
C	0.0	0.0	0.0
Br	0.087477	-1.660344	-2.304794
H	1.09275	0.0	0.0
H	0.18454	0.781289	-1.974801
H	-0.375392	-0.90244	0.492968
C	-1.91035	0.2666	-1.722618
H	-2.132693	0.271663	-2.792252
H	-2.209138	1.228386	-1.295148
H	-2.50356	-0.520707	-1.250367
C	-0.504654	1.17238	0.691641
N	-0.921101	2.131863	1.230974
F	2.570126	0.0	0.0
