13

C	-0.460043	0.011701	-1.449111
C	0.0	0.0	0.0
Br	0.05647	-1.658837	-2.344713
H	1.092531	0.0	0.0
H	0.129653	0.772645	-1.961139
H	-0.290529	0.968201	0.433394
C	-1.947533	0.220236	-1.659182
H	-2.242896	1.167471	-1.197651
H	-2.206793	0.250676	-2.720213
H	-2.51185	-0.584084	-1.186139
C	-0.62119	-1.046515	0.785191
N	-1.141453	-1.882139	1.42844
F	2.570161	0.0	0.0
