16

C	0.0	0.0	0.0
C	-0.260865	0.056185	-1.566941
Cl	1.787372	0.0	0.0
H	0.528739	-0.568408	-1.994437
N	-0.620618	1.07458	0.669962
H	-0.441727	0.988958	1.666613
H	-1.66349	0.823568	0.488346
C	-0.376741	-1.351377	0.478813
N	-0.600622	-2.437852	0.867917
C	0.023695	1.423287	-2.017036
N	0.220404	2.492232	-2.461107
C	-1.570582	-0.440119	-2.180657
H	-1.762205	-1.460235	-1.844403
H	-1.443621	-0.440034	-3.269395
H	-2.416333	0.147845	-1.845699
F	-2.828457	0.0	0.0
