16

C	0.0	0.0	0.0
C	-0.533234	-0.025368	-1.447751
Cl	1.78652	0.0	0.0
H	-1.627456	-0.131549	-1.246943
N	-0.557042	1.137843	0.660999
H	-1.592062	0.919619	0.556858
H	-0.310076	1.091452	1.645197
C	-0.350199	-1.285053	0.658494
N	-0.57732	-2.290337	1.224011
C	-0.029781	-1.180197	-2.180822
N	0.375455	-2.077426	-2.823564
C	-0.247209	1.273206	-2.197642
H	-0.684297	1.221146	-3.197719
H	-0.699158	2.099284	-1.652624
H	0.825885	1.453791	-2.292961
F	-2.78576	0.0	0.0
