18

C	-0.210338	0.069502	-1.503783
C	0.0	0.0	0.0
F	-1.408153	0.624882	-1.882406
H	1.089546	0.0	0.0
N	0.877511	0.811107	-2.004883
H	1.736	0.558566	-1.470224
H	0.9875	0.707828	-3.003097
N	-0.230008	-1.339939	-2.143793
O	-1.046445	-1.568441	-3.033553
O	0.668888	-2.090913	-1.779788
N	-0.605322	-1.169526	0.65834
O	-1.484566	-1.805637	0.06875
O	-0.240213	-1.401365	1.809309
C	-0.493113	1.257403	0.692389
H	-1.585794	1.317959	0.701971
H	-0.11143	1.266084	1.714368
H	-0.090921	2.120409	0.161901
F	2.620174	0.0	0.0
