18

C	-0.163044	0.28507	-1.506582
C	0.0	0.0	0.0
F	-1.287558	1.030414	-1.775733
H	1.09128	0.0	0.0
N	0.977324	0.945055	-2.029791
H	0.834556	1.941989	-1.933835
H	1.799138	0.656197	-1.458472
N	-0.379586	-1.024081	-2.295327
O	-1.533124	-1.445296	-2.330054
O	0.59882	-1.54693	-2.805256
N	-0.539846	-1.290892	0.469655
O	-0.06627	-2.31428	-0.024336
O	-1.398214	-1.285833	1.358793
C	-0.510532	1.157453	0.826404
H	-0.035453	2.07247	0.466487
H	-0.213175	1.015362	1.865633
H	-1.594446	1.265885	0.777456
F	2.617405	0.0	0.0
