18

C	-0.166281	0.210703	-1.516156
C	0.0	0.0	0.0
F	-1.325537	0.887772	-1.820131
H	1.091284	0.0	0.0
N	0.944145	0.915056	-2.058462
H	0.784769	1.905021	-1.913196
H	1.778529	0.633127	-1.507623
N	-0.272801	-1.123684	-2.275173
O	0.777225	-1.634943	-2.627246
O	-1.402799	-1.566407	-2.463476
N	-0.542127	-1.253837	0.558663
O	-0.209521	-2.313111	0.026866
O	-1.251608	-1.186976	1.567186
C	-0.490669	1.2077	0.766362
H	-0.158554	1.135045	1.800856
H	-1.57658	1.309326	0.746283
H	-0.036053	2.10085	0.334534
F	2.604767	0.0	0.0
