18

C	-0.417325	0.093754	-1.452142
C	0.0	0.0	0.0
F	-0.005165	-1.065148	-2.085982
H	1.087481	0.0	0.0
N	-1.769318	0.399398	-1.724475
H	-2.333248	-0.285511	-1.236292
H	-1.925842	0.327158	-2.724115
N	0.376262	1.195172	-2.172648
O	0.893434	2.089417	-1.521159
O	0.368771	1.110254	-3.398809
N	-0.491751	-1.292925	0.549653
O	0.162394	-1.804545	1.451305
O	-1.567383	-1.760815	0.140551
C	-0.530941	1.087261	0.916504
H	-1.625045	1.114831	0.94885
H	-0.135292	0.903742	1.918197
H	-0.154233	2.049137	0.57804
F	2.540229	0.0	0.0
