18

C	-0.511963	0.062305	-1.420666
C	0.0	0.0	0.0
F	0.002184	-1.008608	-2.13285
H	1.087487	0.0	0.0
N	-1.909805	0.19505	-1.578235
H	-2.336233	-0.594774	-1.1101
H	-2.13173	0.173325	-2.566813
N	0.077649	1.265946	-2.177689
O	0.79699	2.068711	-1.603478
O	-0.246993	1.316832	-3.364322
N	-0.426553	-1.277466	0.629838
O	0.079065	-1.542319	1.717011
O	-1.26984	-2.005466	0.08162
C	-0.476702	1.120294	0.911567
H	0.016098	0.991102	1.87514
H	-1.563705	1.12544	1.04238
H	-0.158015	2.074535	0.500465
F	2.523767	0.0	0.0
