18

C	-0.085581	-0.022394	-1.542226
C	0.0	0.0	0.0
F	-0.043158	1.289373	-1.943249
H	1.092911	0.0	0.0
N	0.949045	-0.727321	-2.188611
H	0.753101	-1.716307	-2.111017
H	1.78555	-0.536604	-1.603067
N	-1.454307	-0.528517	-2.016027
O	-1.541427	-1.702372	-2.367903
O	-2.385345	0.271362	-1.955092
N	-0.443592	-1.303791	0.540516
O	0.068027	-2.328917	0.081963
O	-1.28819	-1.310643	1.443808
C	-0.657243	1.160683	0.696503
H	-0.467479	1.09554	1.768303
H	-1.736576	1.192658	0.533724
H	-0.208626	2.079449	0.322468
F	2.593265	0.0	0.0
