13

C	0.0	0.0	0.0
C	-0.497395	0.249688	-1.44062
Cl	1.776702	0.0	0.0
H	0.371284	0.287968	-2.113777
H	-0.321137	0.835884	0.611781
C	-0.468675	-1.218116	0.656467
N	-0.550478	-2.203684	1.293805
C	-1.196829	1.525377	-1.535923
N	-1.554061	2.630884	-1.709589
N	-1.321185	-0.856698	-2.041035
O	-2.224897	-0.543943	-2.800926
O	-0.901669	-1.990961	-1.84396
F	-2.299365	0.0	0.0
