13

C	0.0	0.0	0.0
C	-0.463984	-0.264417	-1.443915
Cl	1.778091	0.0	0.0
H	-0.22621	0.62364	-2.035172
H	-0.360642	0.978848	0.297062
C	-0.433261	-0.997311	0.978896
N	-0.587338	-1.785627	1.835814
C	-1.87738	-0.65127	-1.660562
N	-2.617221	-1.116046	-2.463873
N	0.374171	-1.354714	-2.068965
O	0.387928	-2.43874	-1.497668
O	0.966883	-1.082481	-3.110703
F	-2.411596	0.0	0.0
