13

C	0.0	0.0	0.0
C	-0.311312	0.063494	-1.509977
Cl	1.780003	0.0	0.0
H	0.201225	0.946675	-1.916242
H	-0.372026	0.904978	0.461783
C	-0.500983	-1.165981	0.716372
N	-0.583639	-2.119115	1.399983
C	-1.682224	0.057203	-2.043609
N	-2.637894	0.2261	-2.703129
N	0.407899	-1.077577	-2.2318
O	1.126315	-0.77142	-3.18083
O	0.189377	-2.2101	-1.824099
F	-2.290924	0.0	0.0
