13

C	0.0	0.0	0.0
C	-0.269068	0.119034	-1.530267
Cl	1.776563	0.0	0.0
H	0.323921	-0.664137	-2.01103
H	-0.372926	0.86545	0.53077
C	-0.511334	-1.235665	0.577141
N	-0.60624	-2.288344	1.095063
C	0.216862	1.40982	-2.025672
N	0.660183	2.413053	-2.442695
N	-1.657996	-0.108276	-2.10133
O	-2.282973	0.866864	-2.489652
O	-1.927706	-1.281694	-2.316899
F	-2.280202	0.0	0.0
