15
Coordinates from ORCA-job run
  C   0.93399558840138     -0.32119499061596      0.04261498981397
  C   -0.28432080000522      0.58170061340671     -0.24698550911827
  H   1.57526626831320     -0.32342402298265     -0.84259577875561
  H   0.07466059544553      1.59546656237492     -0.43843636740385
  C   0.44209909781341     -1.69217206102629      0.25493370267850
  N   -0.01077166923977     -2.75974540979555      0.43838485357320
  N   1.71070804291851      0.10203147253434      1.19056133971343
  H   2.24191946333832      0.93182915919046      0.95688074450943
  H   1.07929840358050      0.32594705194869      1.95156851163358
  N   -1.20260655753101      0.56124710019676      0.82784626305360
  H   -1.66048483537956     -0.34019669065940      0.90094359407558
  H   -1.91222220996078      1.27468435893662      0.73052269841438
  N   -0.86680782771673      0.13394349686861     -1.59503267084742
  O   -1.98763343172720     -0.36448690157627     -1.60092331759682
  O   -0.13510012825059      0.29537026119902     -2.56828305374370
