15
Coordinates from ORCA-job run
  C   0.87502713816595     -0.07495708366779     -0.04349748819255
  C   -0.54850553044392      0.44033944341410     -0.28336349339912
  H   1.47019713534775      0.11923335607263     -0.94129921977529
  H   -0.48840246468965      1.51174959016606     -0.54083077249051
  C   0.85521680447294     -1.52655452387967      0.16572487120639
  N   0.89915925856530     -2.68777481273301      0.32889129659198
  N   1.38206823241191      0.59042566743911      1.16326052038972
  H   1.76726450486852      1.49287858024410      0.90878003575696
  H   2.12776575449084      0.04507916322282      1.57746896866643
  N   -1.37928902107749      0.09760245536517      0.82116902876216
  H   -0.90372381544587      0.37618529390082      1.67101773700620
  H   -2.28720782115832      0.53590979525821      0.75964617915657
  N   -1.11465159759520     -0.17893984885887     -1.54470201396945
  O   -2.33067995301226     -0.31418957741599     -1.59333508570558
  O   -0.32223862490050     -0.42598749852769     -2.45093056400390
