15
Coordinates from ORCA-job run
  C   0.57457751528348     -0.23274050033232      0.48722465668082
  C   -0.46220609089583      0.27875298874074     -0.52594802338810
  H   0.24822913767111      0.11720887403433      1.47200773890275
  H   -0.24603562217514     -0.10674271959690     -1.52383779772858
  C   1.86818806863424      0.40241790763708      0.16808372276343
  N   2.90570994225652      0.86989689690741     -0.12564155885140
  N   0.58048405866428     -1.68210247065633      0.50052393233065
  H   1.06795369840284     -2.03608572047631      1.31332385089347
  H   1.03298584289803     -2.05130669471189     -0.32723714168335
  N   -0.66237221584740      1.69286256480673     -0.57905998052202
  H   -0.68102271601355      2.10523710171383      0.34447591581360
  H   0.03668242200565      2.14629826429414     -1.14981558272401
  N   -1.76732773219446     -0.35500665450758     -0.12330278899831
  O   -2.18700199797266     -0.03146576246726      0.98432684765066
  O   -2.30584431071712     -1.11722407538567     -0.91512379113960
