15
Coordinates from ORCA-job run
  C   0.92475423437400     -0.20070292015062     -0.04829327507170
  C   -0.34800582523055      0.60582292909747     -0.31912853630938
  H   1.49387273275898     -0.26380145087541     -0.97851992660808
  H   -0.04664019897132      1.60412687623419     -0.63987718898082
  C   0.54008372276310     -1.57103619514379      0.35909574674108
  N   0.22983539562800     -2.63946299940674      0.73801463677259
  N   1.70028288302238      0.52749228304997      0.93751809415031
  H   2.56008342190005      0.03601494436088      1.14802015675416
  H   1.15431951980209      0.61521519463476      1.78660947151678
  N   -1.17241178990224      0.66029648855734      0.82978595890366
  H   -1.61232642132040     -0.23586606425143      1.00555180987138
  H   -1.89613083376685      1.35996011730321      0.73757909940900
  N   -1.02085918173393     -0.01593639852481     -1.55326134676996
  O   -0.37561302497844      0.03646185030561     -2.59607068669494
  O   -2.13024463434488     -0.51958465519064     -1.40902401368408
