15
Coordinates from ORCA-job run
  C   0.88308005639661     -0.04720632004572      0.30889207631152
  C   -0.22427041410043      0.74065355484751     -0.41466526457930
  H   1.54385269913516      0.71951342412381      0.72641518544618
  H   0.20780518257352      1.43046992693089     -1.14153137027768
  C   1.69958384679783     -0.87500115274700     -0.58572948350090
  N   2.39929720637619     -1.56787888302537     -1.22416526200624
  N   0.26854708104584     -0.85923634480406      1.36386506737237
  H   0.58802106062917     -1.81578830386180      1.34212273692176
  H   0.46329948777864     -0.46870378257149      2.27436800886522
  N   -0.98904702829673      1.40708621350165      0.56776365596709
  H   -1.65157673422799      2.04244603433115      0.14330700802495
  H   -1.49442678061911      0.70412882670456      1.09763868057414
  N   -1.04018182713231     -0.23245481507352     -1.27373985871969
  O   -0.50735153091094     -0.60063444988277     -2.31915906971723
  O   -2.14463230544544     -0.57639392842783     -0.86438211068219
