14

C	-0.336476	0.11826	-1.481482
C	0.0	0.0	0.0
F	-0.0981	1.376979	-1.905564
H	1.097635	0.0	0.0
N	0.598668	-0.823385	-2.283351
O	1.266984	-0.325898	-3.170659
O	0.524739	-1.998879	-1.959135
C	-1.707796	-0.266995	-1.839423
N	-2.812411	-0.550924	-2.125565
C	-0.484605	-1.220561	0.608299
N	-0.857344	-2.204035	1.136649
C	-0.475495	1.162887	0.716873
N	-0.793233	2.120282	1.323858
H	2.404061	0.0	0.0
