14

C	-0.356723	0.089452	-1.47822
C	0.0	0.0	0.0
F	-0.040715	1.315877	-1.946605
H	1.097678	0.0	0.0
N	0.486293	-0.939685	-2.270809
O	0.336793	-2.09924	-1.912973
O	1.164866	-0.51638	-3.1887
C	-1.763262	-0.20315	-1.788337
N	-2.895265	-0.407048	-2.033857
C	-0.487565	-1.196757	0.651378
N	-0.819613	-2.158397	1.243595
C	-0.462885	1.188068	0.68628
N	-0.759968	2.1727	1.259187
H	2.40771	0.0	0.0
