14

C	-0.381188	0.002657	-1.454105
C	0.0	0.0	0.0
F	-0.119615	-1.209501	-2.016519
H	1.09872	0.0	0.0
N	-1.909249	0.199473	-1.690825
O	-2.654839	-0.28341	-0.850382
O	-2.24134	0.755722	-2.733012
C	0.31345	1.061921	-2.197119
N	0.885054	1.904755	-2.783292
C	-0.430879	-1.192929	0.696887
N	-0.67122	-2.186607	1.278543
C	-0.449463	1.217708	0.639758
N	-0.791596	2.234126	1.124056
H	2.409737	0.0	0.0
