14

C	-0.430106	-0.083407	-1.448212
C	0.0	0.0	0.0
F	-1.776026	-0.260742	-1.605444
H	1.096189	0.0	0.0
N	-0.080122	1.246205	-2.130094
O	-0.973034	2.083564	-2.154418
O	1.065253	1.355296	-2.54354
C	0.265478	-1.154819	-2.168444
N	0.779413	-2.046538	-2.735083
C	-0.417471	-1.196516	0.701522
N	-0.692134	-2.183441	1.28034
C	-0.479392	1.192362	0.663216
N	-0.755802	2.165732	1.264365
H	2.393506	0.0	0.0
