14

C	-0.419417	-0.08623	-1.449637
C	0.0	0.0	0.0
F	-1.772641	-0.187245	-1.619954
H	1.095108	0.0	0.0
N	0.01274	1.212194	-2.143042
O	1.145384	1.233745	-2.605074
O	-0.809084	2.119174	-2.120166
C	0.222986	-1.208573	-2.143063
N	0.681408	-2.110322	-2.739982
C	-0.4224	-1.192154	0.709647
N	-0.687155	-2.176185	1.298628
C	-0.488438	1.194582	0.652395
N	-0.836803	2.150321	1.244232
H	2.402159	0.0	0.0
