14

C	-0.42815	-0.114247	-1.446386
C	0.0	0.0	0.0
F	-1.777022	-0.269444	-1.602556
H	1.096373	0.0	0.0
N	-0.055841	1.190676	-2.161849
O	-0.922001	2.054851	-2.186581
O	1.085262	1.255844	-2.600365
C	0.248777	-1.218195	-2.135499
N	0.703645	-2.138141	-2.705971
C	-0.407142	-1.185991	0.72194
N	-0.700767	-2.173004	1.290201
C	-0.498761	1.202413	0.632692
N	-0.866365	2.184301	1.16899
H	2.401632	0.0	0.0
