17

C	0.0	0.0	0.0
C	-0.514699	0.04947	-1.439392
F	1.391085	0.0	0.0
H	-1.609962	-0.018822	-1.386929
C	-0.388579	1.262965	0.662294
N	-0.548578	2.274114	1.23697
C	-0.475086	-1.190378	0.80474
H	-0.110484	-1.083938	1.828028
H	-0.075373	-2.1099	0.375915
H	-1.567354	-1.214663	0.795359
N	-0.031372	-1.230644	-2.133381
O	0.994974	-1.151122	-2.811709
O	-0.691516	-2.252899	-1.969436
N	-0.066861	1.219838	-2.100862
H	-0.566947	1.356944	-2.967708
H	0.92623	1.162143	-2.284608
Br	-3.804683	0.0	0.0
