16

C	-0.317387	-0.069158	-1.49995
C	0.0	0.0	0.0
F	-0.12675	1.215296	-2.039362
H	1.096741	0.0	0.0
H	-1.371208	-0.313869	-1.700779
C	0.652744	-1.011839	-2.182008
H	1.649174	-0.769003	-1.797586
H	0.596865	-0.901778	-3.267495
H	0.418061	-2.047657	-1.918196
C	-0.496248	-1.213702	0.623629
N	-0.927334	-2.190008	1.119557
C	-0.552189	1.245765	0.683269
H	-0.314251	1.2218	1.749381
H	-1.639193	1.343547	0.56854
H	-0.069976	2.120886	0.246856
F	2.64219	0.0	0.0
