16

C	-0.252394	0.064861	-1.497401
C	0.0	0.0	0.0
F	-1.606721	0.340889	-1.801129
H	1.097102	0.0	0.0
H	-0.047516	-0.92239	-1.923822
C	0.648195	1.096872	-2.142526
H	1.647209	0.929739	-1.725187
H	0.648876	0.993166	-3.229916
H	0.310828	2.105906	-1.893629
C	-0.568391	-1.203696	0.577246
N	-1.038751	-2.170669	1.054681
C	-0.461119	1.25011	0.749985
H	-0.306821	1.117457	1.822377
H	0.151734	2.097335	0.438635
H	-1.515328	1.478213	0.570712
F	2.63321	0.0	0.0
