16

C	-0.255166	0.082976	-1.496507
C	0.0	0.0	0.0
F	-1.608123	0.369063	-1.794829
H	1.097099	0.0	0.0
H	-0.05671	-0.90083	-1.934114
C	0.64907	1.117491	-2.132487
H	0.317897	2.125127	-1.868943
H	1.650693	0.94099	-1.72198
H	0.641711	1.028903	-3.22209
C	-0.567678	-1.21038	0.564228
N	-1.036712	-2.184256	1.028673
C	-0.459167	1.241177	0.765814
H	-0.301728	1.094975	1.836675
H	0.15241	2.093077	0.46282
H	-1.514457	1.47042	0.591638
F	2.634685	0.0	0.0
