16

C	-0.314872	-0.075364	-1.499396
C	0.0	0.0	0.0
F	-0.121583	1.206358	-2.043865
H	1.097009	0.0	0.0
H	-1.369103	-0.318483	-1.69977
C	0.65351	-1.022908	-2.176664
H	0.416039	-2.057084	-1.909891
H	0.598732	-0.916159	-3.263481
H	1.649974	-0.779872	-1.790655
C	-0.49683	-1.210845	0.628638
N	-0.926239	-2.184794	1.130801
C	-0.552513	1.249386	0.676756
H	-0.323417	1.227858	1.744707
H	-0.06559	2.121849	0.241561
H	-1.637979	1.349972	0.553569
F	2.641103	0.0	0.0
