16

C	-0.260628	0.061941	-1.49545
C	0.0	0.0	0.0
F	-1.620563	0.315507	-1.793048
H	1.097162	0.0	0.0
H	-0.041362	-0.921541	-1.923713
C	0.617959	1.110079	-2.145459
H	1.623088	0.960717	-1.735418
H	0.262467	2.112217	-1.894095
H	0.613882	1.007363	-3.233321
C	-0.56513	-1.203018	0.582324
N	-1.032945	-2.168629	1.064625
C	-0.458957	1.250052	0.751584
H	-1.514981	1.476753	0.578202
H	0.151653	2.098485	0.43775
H	-0.298599	1.116512	1.823743
F	2.629828	0.0	0.0
