16

C	-0.417469	0.065359	-1.458488
C	0.0	0.0	0.0
F	-0.082215	-1.14087	-2.085488
H	1.095924	0.0	0.0
H	0.199491	0.839121	-1.930027
C	-1.892865	0.29507	-1.722091
H	-2.481104	-0.484923	-1.231819
H	-2.213557	1.269456	-1.345939
H	-2.089879	0.255539	-2.796912
C	-0.586463	-1.151201	0.65557
N	-1.094943	-2.068378	1.189845
C	-0.340152	1.292208	0.74736
H	-1.412856	1.476155	0.872973
H	0.129086	1.259308	1.73267
H	0.11015	2.131793	0.20991
F	2.578354	0.0	0.0
