13

C	-0.390508	0.034087	-1.457145
C	0.0	0.0	0.0
Br	-2.335635	0.022343	-1.745742
H	1.103757	0.0	0.0
H	0.000298	-0.825365	-2.002664
H	-0.027378	0.957583	-1.900481
N	-0.523192	-1.210553	0.657069
H	-0.273976	-2.018275	0.091935
H	0.004742	-1.314512	1.519667
N	-0.444911	1.200217	0.680375
H	-1.368026	1.023166	1.061152
H	0.191466	1.397778	1.442242
Cl	3.487246	0.0	0.0
