13

C	-0.354189	0.07124	-1.471078
C	0.0	0.0	0.0
Br	-2.306507	-0.005788	-1.783799
H	1.09839	0.0	0.0
H	0.06034	-0.771342	-2.022475
H	-0.027542	1.01658	-1.897391
N	-0.408653	-1.239571	0.663401
H	0.305219	-1.942648	0.515857
H	-1.284008	-1.578472	0.278861
N	-0.471353	1.198836	0.672769
H	0.029413	1.251323	1.552525
H	-1.452512	1.070514	0.902711
Cl	3.463572	0.0	0.0
