13

C	-0.350477	-0.00326	-1.475629
C	0.0	0.0	0.0
Br	-2.300055	0.070771	-1.79247
H	1.09839	0.0	0.0
H	0.060143	0.870121	-1.979135
H	-0.005217	-0.921287	-1.945468
N	-0.473118	-1.230225	0.607398
H	-0.063899	-1.270937	1.534332
H	-1.480186	-1.167091	0.729702
N	-0.419463	1.197142	0.727748
H	0.205214	1.961512	0.497054
H	-1.361685	1.45957	0.455575
Cl	3.478142	0.0	0.0
