13

C	-0.624777	-0.0631	-1.570068
C	0.122872	0.109855	-0.219702
Br	0.035918	-1.650064	-2.510535
H	1.195137	0.154802	-0.423028
H	-0.191195	1.091713	0.163933
C	-2.057017	-0.241557	-1.333591
N	-3.206586	-0.342196	-1.110866
C	-0.417641	1.092732	-2.44246
N	-0.24064	2.047338	-3.105076
N	-0.166384	-0.999902	0.647337
H	0.724321	-1.274278	1.07103
H	-0.792851	-0.716979	1.388389
Cl	2.928659	-0.878563	1.509226
