14

C	0.0	0.0	0.0
C	-0.481949	0.56524	-1.383881
Cl	1.773299	0.0	0.0
H	0.280066	0.243291	-2.096314
H	-0.402926	1.652756	-1.281063
C	-0.477642	0.746432	1.151818
N	-0.798948	1.443657	2.041532
N	-0.406479	-1.467725	0.126529
O	-0.868905	-1.842108	1.194078
O	-0.195706	-2.151743	-0.866688
N	-1.7662	0.198315	-1.873149
H	-2.550435	0.365097	-1.233591
H	-1.784131	-0.781681	-2.115757
Cl	-4.306596	0.0	0.0
