14

C	0.0	0.0	0.0
C	-0.496435	0.129179	-1.469608
Cl	1.772991	0.0	0.0
H	-0.268681	1.161585	-1.756057
H	0.156282	-0.529306	-2.047701
C	-0.484123	1.054145	0.876105
N	-0.797464	1.987044	1.518586
N	-0.413416	-1.363804	0.560384
O	-0.260674	-2.30863	-0.202637
O	-0.818335	-1.405647	1.712716
N	-1.854925	-0.186241	-1.746363
H	-2.566872	0.303315	-1.201151
H	-2.044318	-1.170761	-1.623481
Cl	-4.499419	0.0	0.0
