14

C	0.0	0.0	0.0
C	-0.493554	-0.125891	-1.471588
Cl	1.77186	0.0	0.0
H	0.165405	-0.868522	-1.927456
H	-0.268287	0.843668	-1.929597
C	-0.478962	1.191803	0.681763
N	-0.790008	2.220902	1.156452
N	-0.414104	-1.243705	0.78836
O	-0.805929	-1.084187	1.93542
O	-0.274296	-2.306785	0.197738
N	-1.848807	-0.492409	-1.695026
H	-2.563144	0.072699	-1.231486
H	-2.027887	-1.445346	-1.411346
Cl	-4.475732	0.0	0.0
