14

C	0.0	0.0	0.0
C	-0.571551	0.151833	-1.408954
Cl	1.755069	0.0	0.0
H	-1.659368	0.088451	-1.276254
H	-0.317906	1.170413	-1.713785
C	-0.439138	1.100413	0.859509
N	-0.656274	2.062935	1.496688
N	-0.435102	-1.316563	0.65587
O	-0.735031	-2.234192	-0.093768
O	-0.384765	-1.35677	1.876135
N	0.010544	-0.785872	-2.360018
H	-0.089714	-0.392753	-3.286152
H	-0.523686	-1.642577	-2.329735
Cl	-3.620955	0.0	0.0
