14

C	0.0	0.0	0.0
C	-0.482385	-0.096668	-1.471225
Cl	1.788512	0.0	0.0
H	-0.174419	0.849427	-1.929037
H	0.117447	-0.891521	-1.920343
C	-0.462176	1.19401	0.690681
N	-0.758761	2.224875	1.170177
N	-0.409832	-1.241173	0.79209
O	-0.6206	-1.096412	1.988248
O	-0.426927	-2.290363	0.162718
N	-1.863107	-0.346474	-1.706909
H	-2.523674	0.287964	-1.26135
H	-2.138662	-1.268023	-1.398864
Cl	-4.514324	0.0	0.0
