15

C	0.0	0.0	0.0
C	-0.318992	0.013406	-1.500329
F	1.407726	0.0	0.0
H	-0.055291	-1.000123	-1.8479
H	0.407133	0.704606	-1.947059
N	-0.492391	1.164685	0.650682
H	-0.39582	1.054276	1.6555
H	-1.491925	1.221881	0.44749
N	-0.426992	-1.236912	0.598957
H	-0.618544	-1.128643	1.585338
H	0.273296	-1.951938	0.450877
N	-1.669794	0.435676	-1.820049
H	-2.37313	0.153235	-1.101086
H	-1.9661	-0.015526	-2.676333
H	-3.64502	0.0	0.0
