15

C	0.0	0.0	0.0
C	-0.41643	0.030985	-1.482908
F	1.410384	0.0	0.0
H	0.417612	0.472023	-2.041816
H	-0.515159	-1.017209	-1.816136
N	-0.472029	1.089151	0.796335
H	-1.46293	0.882092	0.953768
H	-0.48124	1.914836	0.206981
N	-0.433823	-1.205608	0.628568
H	0.019675	-1.995945	0.189819
H	-0.16974	-1.164608	1.605667
N	-1.607754	0.847792	-1.659103
H	-2.383813	0.489261	-1.052304
H	-1.934418	0.744739	-2.61449
H	-3.676703	0.0	0.0
