15

C	0.0	0.0	0.0
C	-0.418355	-0.124144	-1.477581
F	1.410397	0.0	0.0
H	0.414316	-0.601126	-2.009311
H	-0.516146	0.900933	-1.875876
N	-0.42464	1.249241	0.548771
H	0.043003	2.001968	0.06096
H	-0.15541	1.269516	1.525257
N	-0.483305	-1.031627	0.862702
H	-0.545248	-1.88112	0.311015
H	-1.462208	-0.782131	1.030884
N	-1.611213	-0.949071	-1.599512
H	-2.387078	-0.552623	-1.015461
H	-1.939159	-0.908301	-2.559283
H	-3.679444	0.0	0.0
