15

C	0.0	0.0	0.0
C	-0.335564	0.006698	-1.500612
F	1.408121	0.0	0.0
H	-0.196061	1.047057	-1.849389
H	0.448818	-0.589626	-1.987064
N	-0.4672	1.181821	0.639542
H	-0.361942	1.08029	1.640982
H	0.060153	1.978702	0.311106
N	-0.487942	-1.117713	0.74597
H	-1.501523	-0.973017	0.809629
H	-0.365503	-1.950795	0.18149
N	-1.636165	-0.577463	-1.776522
H	-1.968326	-0.231872	-2.669985
H	-2.358768	-0.279243	-1.080028
H	-3.644284	0.0	0.0
