16
Coordinates from ORCA-job run
  C   -0.53883240260983      0.52508980765061      0.14011951585741
  C   0.74505517231813     -0.19644609958538     -0.23317773105386
  H   -0.56163092513687      0.75474911379649      1.20694843879368
  H   0.77909342633303     -0.35423217650208     -1.31670105775001
  N   -1.71959239063264     -0.38405483558384     -0.10637755462411
  O   -1.91336926287061     -0.72683808228242     -1.26663373095029
  O   -2.33744383386941     -0.73447762672828      0.89070689337420
  N   -0.77228283423866      1.76353436748148     -0.64756666435207
  O   -0.17947790021087      1.85774079434824     -1.71765982597872
  O   -1.56713969796955      2.56292007772987     -0.16151825702750
  C   0.84502199229953     -1.53070677805297      0.51460505762589
  H   0.78443441242641     -1.37671706531052      1.59292404204561
  H   0.04033760126941     -2.19160394564355      0.19965579322008
  H   1.78770697812254     -2.02772797489993      0.29976169995862
  C   1.86356438483473      0.67974593469278      0.13370879078997
  N   2.74555527993465      1.37802448888951      0.47120459007110
