16
Coordinates from ORCA-job run
  C   -0.54877567780840      0.58143411706001     -0.45609460694060
  C   0.75547216598812     -0.21942005430604     -0.44455244684246
  H   -0.49525488857550      1.48658196468399     -1.06006641407548
  H   0.75218350815521     -0.81939807366904     -1.36045785525311
  N   -0.88849849099640      1.00949600882095      0.94676334801463
  O   -1.70909167166407      0.34359284935437      1.56364097846614
  O   -0.22018908549304      1.94780253843678      1.36247227006345
  N   -1.71786247485226     -0.20812139846811     -0.97313663546132
  O   -2.73001424594039      0.45502080069176     -1.16642614372462
  O   -1.57671706540854     -1.41230976352134     -1.15885934725240
  C   0.89388525847274     -1.15688599825846      0.76013825206537
  H   0.99350170557671     -0.58793445763465      1.68552969949757
  H   0.02874062574778     -1.81376463866841      0.82958694207344
  H   1.78927110978519     -1.76723951844190      0.63997791186378
  C   1.88271442910156      0.71126241724302     -0.53241945339912
  N   2.79063479791130      1.44888320667709     -0.63609649909526
