12

C	-0.252229	-0.000614	-1.497861
C	0.0	0.0	0.0
Br	-2.170971	0.28881	-1.936519
H	1.09579	0.0	0.0
H	-0.033597	-0.987181	-1.908796
H	-0.332755	0.942691	0.445427
N	0.550713	0.975925	-2.189427
H	0.355939	1.886764	-1.781218
H	1.516911	0.754647	-1.909154
C	-0.565777	-1.126232	0.714829
N	-1.013032	-2.048603	1.290012
H	2.770894	0.0	0.0
