12

C	-0.529341	-0.051155	-1.424546
C	0.0	0.0	0.0
Br	0.005258	-1.743811	-2.267432
H	1.091207	0.0	0.0
H	-0.00917	0.700842	-2.026422
H	-0.354108	-0.870302	0.55943
N	-1.978814	0.015911	-1.47552
H	-2.277232	0.097833	-2.43958
H	-2.277444	0.848894	-0.977331
C	-0.485902	1.216241	0.637997
N	-0.892438	2.215188	1.105826
H	2.808684	0.0	0.0
