12

C	-0.242479	0.025048	-1.500235
C	0.0	0.0	0.0
Br	-2.151218	0.360606	-1.948614
H	1.096064	0.0	0.0
H	-0.042086	-0.960249	-1.923119
H	-0.331716	0.935695	0.460008
N	0.585296	0.994541	-2.173842
H	0.3896	1.907281	-1.771962
H	1.543419	0.765478	-1.871611
C	-0.571867	-1.137955	0.690375
N	-1.02401	-2.072099	1.242368
H	2.770213	0.0	0.0
