12

C	-0.22377	-0.032746	-1.501451
C	0.0	0.0	0.0
Br	-2.152703	-0.097277	-1.985808
H	1.097426	0.0	0.0
H	0.175573	-0.976011	-1.876682
H	-0.376606	-0.890461	0.509005
N	0.419906	1.042456	-2.207588
H	0.104214	1.924603	-1.814564
H	1.411692	0.951062	-1.959224
C	-0.507702	1.207397	0.620951
N	-0.896674	2.201703	1.113344
H	2.755779	0.0	0.0
