14
Coordinates from ORCA-job run
  C   -0.64551948766733     -0.39065265309915     -0.03022722696159
  C   0.69513869056661     -0.57269562200773     -0.75002067462260
  Cl  -1.83114319622874     -1.33173489162200     -1.00214947942557
  H   0.62258286175163     -0.16978617876721     -1.75901548883862
  H   0.99099284688790     -1.62031049857413     -0.75779833071597
  C   -0.60162970533941     -0.97261722457277      1.31158636499940
  N   -0.58053136393913     -1.40416804331890      2.40416602952943
  C   -1.09719656352497      1.06277314573135      0.03210758211853
  H   -1.11364019340936      1.48678842462924     -0.97301246915725
  H   -2.09841566094780      1.11728204244212      0.46029747223994
  H   -0.41497721421983      1.64638555375252      0.65207220308081
  N   1.76569546254252      0.18972347674737     -0.04416778792382
  O   1.95151833046065      1.35102823733368     -0.40558519425736
  O   2.35812519306726     -0.39401576867440      0.86074699993466
