14
Coordinates from ORCA-job run
  C   -0.56585561533797     -0.34814723949970      0.13097906631449
  C   0.95941338076584     -0.50136125958773      0.19920696449215
  Cl  -1.18903093602989     -1.33755037932373     -1.22968851290661
  H   1.23318413260600     -1.55213762138586      0.27113360257774
  H   1.34481292337667      0.06921670544565      1.04565615963904
  C   -1.08444914389803     -0.91501580743927      1.37874555505574
  N   -1.47800757896574     -1.33811137619832      2.40189240085064
  C   -1.05417755989963      1.08719236846328     -0.02936672027857
  H   -2.14346490733723      1.10278665324392      0.01230433070519
  H   -0.65399275250759      1.70810523170899      0.77510508748659
  H   -0.72696438364491      1.49530735303663     -0.98373532758163
  N   1.62191466788033      0.03905968665406     -1.02194031250241
  O   2.03285814734267     -0.77308705537982     -1.84576873072287
  O   1.70475962564947      1.26374274026190     -1.10552356312947
