14
Coordinates from ORCA-job run
  C   -0.57551773389546     -0.33121650111571      0.13903474239947
  C   0.94469427863701     -0.53560526400561      0.18243237103161
  Cl  -1.25463483218754     -1.29599313312786     -1.21239480374887
  H   1.36142240613457      0.01559270852644      1.02680720007977
  H   1.18451888477690     -1.59538532657292      0.24269628717105
  C   -1.09281526209119     -0.88215742276150      1.39434923406863
  N   -1.48232768603788     -1.29387524258571      2.42365434245325
  C   -1.01653899822476      1.12043906679226     -0.01159561700802
  H   -0.58262032614847      1.72569416504219      0.78728134339128
  H   -2.10384613694589      1.17354170382859      0.04712156583198
  H   -0.69066970755868      1.51901006352121     -0.97051027387389
  N   1.60518505895624     -0.00774050992509     -1.04508864887097
  O   1.73710177735399      1.21346596667492     -1.11589842619373
  O   1.96504827723116     -0.82577027429115     -1.88688931673152
