14
Coordinates from ORCA-job run
  C   -0.65103382835998     -0.38103498748917     -0.02500637676566
  C   0.69676687062966     -0.60984833290527     -0.71811452781603
  Cl  -1.83686652328545     -1.34113457670205     -0.97766358782101
  H   0.97585194257383     -1.66150692610845     -0.68228998490110
  H   0.64518087286641     -0.24396481619903     -1.74243521377376
  C   -0.63319375003516     -0.91353526518177      1.33780212997072
  N   -0.63276864054760     -1.30708042796761      2.44487434825534
  C   -1.08228990156865      1.07971136928549     -0.02354099791760
  H   -1.08425595055920      1.46403888551958     -1.04458690511337
  H   -0.39689784890424      1.67786376954883      0.57877327023355
  H   -2.08623405567451      1.16468977232645      0.39298296076970
  N   1.76900519099742      0.16190127111652     -0.02478115034389
  O   1.97599684129757      1.30693999089028     -0.42424562545383
  O   2.33973878056989     -0.39703972613381      0.90923166067696
