14
Coordinates from ORCA-job run
  C   -0.64047627476912     -0.39667370062179     -0.04104398269452
  C   0.70735990384059     -0.54713128250872     -0.75534758319847
  Cl  -1.80497342536881     -1.34195061419573     -1.03404924282110
  H   1.01581690882052     -1.59077656868936     -0.78139012867223
  H   0.63685023153293     -0.12517969587266     -1.75678870723706
  C   -0.59157490403088     -1.00063393458464      1.29093830019763
  N   -0.55750990415940     -1.46022468356648      2.37173498644492
  C   -1.11774945539613      1.04727121217099      0.04194910671503
  H   -2.12022558316743      1.07711475878216      0.46949488418272
  H   -1.14114352590972      1.48529702817209     -0.95695341266861
  H   -0.44638836013622      1.63425033086366      0.67035088404806
  N   1.76432058303977      0.21327277361095     -0.02692624469453
  O   2.37174345999503     -0.38731247714875      0.85672490152888
  O   1.92395034570886      1.38967685358830     -0.34969376113074
