14
Coordinates from ORCA-job run
  C   -0.66312306080349     -0.35956150286550     -0.03000495750217
  C   0.66865728305709     -0.60754580738646     -0.74726851727587
  Cl  -1.89026933275512     -1.24871372299676     -0.99888319609391
  H   0.61662382859614     -0.20707886443132     -1.75858137667721
  H   0.91510863905456     -1.66789583312398     -0.74833590848114
  C   -0.64557207875352     -0.93854125179138      1.31376849089803
  N   -0.64141644473936     -1.37028113569562      2.40648470469165
  C   -1.04732397959318      1.11323688484184      0.02683696240148
  H   -2.04549787341377      1.21431304322091      0.45352601648981
  H   -0.33975555521230      1.66705860581226      0.64580177871704
  H   -1.04285655783932      1.53474188526807     -0.97947831824210
  N   1.77198853668730      0.10834522474614     -0.04321881583864
  O   2.33874108148003     -0.49844606919277      0.86296723644006
  O   2.00669551423493      1.26036854359455     -0.40561409952704
