14
Coordinates from ORCA-job run
  C   -0.47638533045044     -0.11062029855097      0.23552965819983
  C   0.80493982188935      0.00293048211536     -0.58378577170700
  Cl  -1.03458531973889     -1.81447462270132      0.17818818867336
  H   1.22519204804545      1.00658800078135     -0.48323048138100
  H   0.59920655005856     -0.23076066760712     -1.62678798560413
  C   -0.28919660367490      0.27523230808643      1.63493802491512
  N   -0.22454525363276      0.66205308656190      2.74233881663739
  C   -1.55020552768083      0.77845569910942     -0.38983891155187
  H   -2.47945870400875      0.68877779896030      0.17267725034772
  H   -1.22638035294111      1.82202098853492     -0.37065712907950
  H   -1.73072005216800      0.47060089998229     -1.42106816439186
  N   1.86275997008729     -0.95189344004722     -0.13848312574728
  O   2.17820078206411     -0.91135272286963      1.04615052694739
  O   2.34217775662838     -1.68655798158862     -0.99697057701852
