16

C	-0.216344	0.294898	-1.480545
C	0.0	0.0	0.0
F	-1.506827	0.717016	-1.777653
H	1.109822	0.0	0.0
N	0.713834	1.337416	-1.778964
H	1.601013	1.107798	-1.304726
H	0.858525	1.402797	-2.778325
C	0.020219	-0.9115	-2.315878
N	0.29085	-1.751312	-3.091903
N	-0.61637	-1.230126	0.520922
O	-1.249114	-1.959335	-0.242861
O	-0.433376	-1.44379	1.717907
N	-0.537876	1.128445	0.806238
O	0.231887	2.04256	1.079623
O	-1.726258	1.069775	1.125779
F	2.520353	0.0	0.0
