16

C	-0.476812	0.070308	-1.448829
C	0.0	0.0	0.0
F	-0.103247	-1.16366	-2.017269
H	1.087697	0.0	0.0
N	-1.863686	0.327173	-1.585232
H	-2.1215	0.39044	-2.561824
H	-2.373649	-0.415054	-1.124562
C	0.272606	1.088091	-2.214291
N	0.782436	1.83703	-2.960436
N	-0.507704	-1.206993	0.697224
O	0.146201	-1.587439	1.661109
O	-1.546108	-1.748148	0.299215
N	-0.483664	1.177808	0.7462
O	-1.118813	1.011931	1.787177
O	-0.183201	2.264541	0.262434
F	2.445315	0.0	0.0
