16

C	-0.441878	-0.091043	-1.459111
C	0.0	0.0	0.0
F	-0.095182	-1.352764	-1.906213
H	1.089686	0.0	0.0
N	-1.857639	0.02956	-1.650002
H	-2.058985	0.029561	-2.64376
H	-2.163088	0.910753	-1.256729
C	0.355044	0.855838	-2.285556
N	0.867103	1.58521	-3.050861
N	-0.592572	-1.128219	0.758966
O	-1.672595	-0.943142	1.322815
O	0.03047	-2.184965	0.740959
N	-0.405881	1.256949	0.645147
O	-0.846593	2.171563	-0.064889
O	-0.196751	1.348913	1.849323
F	2.44065	0.0	0.0
