16

C	-0.265561	0.08411	-1.515703
C	0.0	0.0	0.0
F	-1.433446	0.804701	-1.797439
H	1.090843	0.0	0.0
N	0.868281	0.707837	-2.085551
H	1.706979	0.552061	-1.494859
H	1.015236	0.430194	-3.045031
C	-0.509838	-1.265667	-2.093984
N	-0.612661	-2.294912	-2.652632
N	-0.635229	-1.164171	0.650656
O	-1.78609	-1.44519	0.306065
O	0.015458	-1.743695	1.517588
N	-0.482512	1.218181	0.698524
O	-0.09653	2.286455	0.244506
O	-1.18571	1.071954	1.698745
F	2.548983	0.0	0.0
