16

C	-0.478575	-0.138046	-1.443054
C	0.0	0.0	0.0
F	-0.207176	-1.494127	-1.763315
H	1.108372	0.0	0.0
N	-1.835013	0.188791	-1.652221
H	-2.411738	-0.365217	-1.031228
H	-2.095388	0.050052	-2.620423
C	0.357778	0.648417	-2.37203
N	0.931171	1.215248	-3.225226
N	-0.557766	-1.107616	0.824132
O	-1.768728	-1.34657	0.731241
O	0.214052	-1.710536	1.560746
N	-0.440085	1.269004	0.59358
O	-0.289416	2.267626	-0.104939
O	-0.847088	1.263793	1.756218
F	2.444407	0.0	0.0
