16

C	-0.533519	0.000297	-1.444865
C	0.0	0.0	0.0
F	0.24259	-0.874844	-2.164494
H	1.090104	0.0	0.0
N	-1.904994	-0.364642	-1.695216
H	-2.494763	0.22598	-1.121504
H	-2.010803	-1.322134	-1.381093
C	-0.311439	1.361114	-1.996005
N	-0.168918	2.432812	-2.452698
N	-0.458902	-1.162878	0.769524
O	-0.544687	-1.039921	1.990068
O	-0.655137	-2.212832	0.152867
N	-0.52608	1.199129	0.713154
O	0.273949	1.952874	1.254203
O	-1.754266	1.36264	0.699108
F	2.439108	0.0	0.0
