16

C	-0.20792	-0.106167	-1.52026
C	0.0	0.0	0.0
F	-0.219207	1.255636	-1.962623
H	1.102274	0.0	0.0
N	0.872337	-0.830274	-2.019375
H	0.935235	-0.804851	-3.026305
H	1.741033	-0.574262	-1.514914
C	-1.505344	-0.637127	-1.990282
N	-2.51756	-1.039662	-2.428276
N	-0.511258	-1.151645	0.768322
O	-0.631422	-2.22569	0.185148
O	-0.716822	-0.961198	1.96553
N	-0.654856	1.212102	0.538067
O	0.051097	2.073554	1.050654
O	-1.880375	1.259354	0.42066
F	2.549053	0.0	0.0
