14
Coordinates from ORCA-job run
  C   -0.78677180028507     -0.33045463342683      0.03117003713857
  C   0.39871172663850      0.57271585101235     -0.34414508967892
  H   -0.84557207621970     -1.14777715647943     -0.69767992120891
  H   0.16641528684487      1.01954658434651     -1.31759341263650
  H   0.44712218104443      1.39278741085425      0.38110946667430
  N   -2.09710483957145      0.31548154092742      0.05834856502548
  H   -2.31600806175844      0.65845997431898     -0.86990558493313
  H   -2.07065606737407      1.11361065410648      0.68341817418221
  C   -0.54079064583439     -0.94922713607121      1.34346361249226
  N   -0.30466820698044     -1.40650665881047      2.39819260081615
  C   1.73044831390289     -0.16772879944242     -0.40375429240342
  H   1.68715714703666     -0.99468039018363     -1.11783863632104
  H   1.99789210710169     -0.57788460179925      0.57223668223966
  H   2.53382493545452      0.50165736064726     -0.71802220138671
