14
Coordinates from ORCA-job run
  C   -0.84075102442022     -0.30886913320682     -0.06745377032326
  C   0.68896867890896     -0.47317445745839     -0.11175544837724
  H   -1.19595658125350     -0.09140107109204     -1.08214772944775
  H   0.93006587576345     -1.32420265071682     -0.75734880861504
  H   1.03594655371550     -0.73214125134256      0.89505657550744
  N   -1.35798468536607      0.74592468764311      0.79861408321427
  H   -1.09079029059227      1.65171020252410      0.43563201763780
  H   -0.97237197462876      0.65092791297288      1.73128987324902
  C   -1.45004276435334     -1.58724719638803      0.33404192969030
  N   -1.88599492891935     -2.62340993772016      0.67093370201753
  C   1.39403645473996      0.78161096247086     -0.61360091311937
  H   2.47131824911494      0.61854784911866     -0.68234521514401
  H   1.23606901789872      1.62834776544245      0.05757238559863
  H   1.03648741939200      1.06237631775278     -1.60848868188831
