14
Coordinates from ORCA-job run
  C   -0.88353414578567     -0.28582478150031     -0.08941543431985
  C   0.36113613680989      0.07485040721190     -0.91057234738995
  H   -1.69685626891533     -0.53195698043953     -0.79028198672046
  H   0.54317406223297     -0.73128337608270     -1.62833215559529
  H   0.11389780118354      0.96730726305667     -1.49853176867361
  N   -1.21741145031500      0.80885889029449      0.82327025533921
  H   -2.02882525834424      0.56699318780400      1.38006126488866
  H   -1.45373641660576      1.62777127692478      0.27423157660119
  C   -0.63543559867167     -1.49989953147418      0.70234366999021
  N   -0.44122736403861     -2.47925364094542      1.31971487176289
  C   1.59824065976308      0.32539743967175     -0.05681951200962
  H   2.44205662350592      0.61688631787239     -0.68623722196091
  H   1.88290625902353     -0.57649092442004      0.49001494348455
  H   1.41461496015734      1.11664445202621      0.66955384460297
