13

C	-0.334421	0.011692	-1.479812
C	0.0	0.0	0.0
Br	-2.256459	0.111427	-1.868993
H	1.098637	0.0	0.0
H	0.118498	0.885021	-1.947357
H	0.026216	-0.890817	-1.97004
C	-0.491755	-1.213343	0.645266
N	-0.913725	-2.174676	1.17258
C	-0.462514	1.248119	0.748956
H	-1.551463	1.32367	0.782474
H	-0.07247	1.228862	1.76795
H	-0.056083	2.132669	0.252596
Cl	3.323787	0.0	0.0
