14

C	-0.518336	-0.004722	-1.411451
C	0.0	0.0	0.0
Cl	-2.5004	-0.290093	-1.284439
H	1.092977	0.0	0.0
H	-0.371669	-0.891705	0.514066
N	-0.253372	1.179381	-2.06934
H	-0.732984	1.294418	-2.94848
H	-0.381122	1.943432	-1.413205
C	-0.138034	-1.181998	-2.187676
N	0.154847	-2.12333	-2.826414
N	-0.386773	1.263956	0.631231
H	0.405456	1.558398	1.189096
H	-1.198061	1.15697	1.225982
F	2.612437	0.0	0.0
