14

C	-0.542698	-0.031361	-1.418798
C	0.0	0.0	0.0
Cl	-0.03537	-1.52688	-2.274982
H	1.092507	0.0	0.0
H	-0.336282	0.96559	0.420715
N	-1.998735	0.002543	-1.445949
H	-2.322953	0.086978	-2.403206
H	-2.29091	0.833126	-0.941735
C	0.023711	1.097002	-2.188582
N	0.340326	2.049706	-2.79959
N	-0.454267	-1.156769	0.757187
H	-1.226365	-0.938815	1.369831
H	0.33376	-1.462839	1.312764
F	2.64331	0.0	0.0
