14

C	-0.516893	-0.010549	-1.412005
C	0.0	0.0	0.0
Cl	-2.499202	-0.301151	-1.286521
H	1.092952	0.0	0.0
H	-0.371714	-0.889968	0.517003
N	-0.254772	1.172323	-2.072519
H	-0.732654	1.283255	-2.953294
H	-0.385855	1.93811	-1.418798
C	-0.131717	-1.188936	-2.184416
N	0.165862	-2.131218	-2.819766
N	-0.387831	1.266131	0.625887
H	-1.198016	1.160641	1.222266
H	0.404709	1.564511	1.181179
F	2.612198	0.0	0.0
