14

C	-0.152689	-0.072794	-1.530839
C	0.0	0.0	0.0
Cl	-0.036992	1.624048	-2.176032
H	1.09333	0.0	0.0
H	-0.476583	0.885422	0.430811
N	0.919053	-0.851143	-2.113513
H	0.72083	-1.816349	-1.86177
H	1.759453	-0.58529	-1.559022
C	-1.468222	-0.580112	-1.947022
N	-2.54473	-0.967882	-2.214387
N	-0.422273	-1.283915	0.554476
H	-1.333986	-1.229315	0.988134
H	0.256846	-1.568506	1.24767
F	2.700708	0.0	0.0
