16

C	0.0	0.0	0.0
C	-0.282239	0.024724	-1.504654
F	1.352369	0.0	0.0
H	-1.314847	-0.241756	-1.708565
N	-0.260861	1.438559	0.711998
O	-1.322703	1.723704	1.244123
O	0.751853	2.152391	0.695449
C	-0.754387	-1.000186	0.760488
N	-0.861376	-1.745624	1.698335
N	0.5467	-1.21732	-2.0223
O	1.588977	-1.022264	-2.661294
O	0.083143	-2.323809	-1.755618
N	0.130487	1.223159	-2.120376
H	1.06695	1.462627	-1.823626
H	0.129774	1.114112	-3.125441
H	-2.087818	0.0	0.0
