15

C	-0.56444	-0.015317	-1.422122
C	0.0	0.0	0.0
Cl	0.021001	1.447441	-2.302969
H	1.098056	0.0	0.0
H	-0.341881	-0.926993	0.474746
C	-0.08062	-1.193297	-2.144759
N	0.261754	-2.180847	-2.680604
C	-2.088463	0.003769	-1.436997
H	-2.466189	0.03512	-2.460092
H	-2.426428	0.875738	-0.879545
H	-2.461516	-0.899672	-0.946918
N	-0.556372	1.142995	0.739961
H	-0.440092	0.943274	1.727028
H	0.050172	1.935065	0.552605
Br	3.634555	0.0	0.0
