15

C	-0.449705	0.060145	-1.467135
C	0.0	0.0	0.0
Cl	-0.119152	-1.540366	-2.230083
H	1.093335	0.0	0.0
H	-0.366641	-0.928559	0.451646
C	-1.89765	0.276493	-1.542054
N	-3.057115	0.464321	-1.575463
C	0.31553	1.136637	-2.220053
H	0.10444	2.09733	-1.747786
H	0.022653	1.165098	-3.271207
H	1.382779	0.921801	-2.128399
N	-0.453215	1.213161	0.674696
H	0.288956	1.554896	1.271236
H	-1.272626	1.037115	1.239765
Br	3.624501	0.0	0.0
