15

C	-0.387336	0.067193	-1.49855
C	0.0	0.0	0.0
Cl	-0.070774	-1.544404	-2.238495
H	1.094017	0.0	0.0
H	-0.384323	-0.930652	0.423978
C	-1.820656	0.333838	-1.645213
N	-2.966595	0.590431	-1.704759
C	0.445063	1.111519	-2.2309
H	1.501012	0.88404	-2.06304
H	0.220369	1.115584	-3.298998
H	0.22725	2.100434	-1.820374
N	-0.442634	1.135165	0.786842
H	0.167979	1.926848	0.643407
H	-1.401749	1.397839	0.59835
Br	3.639002	0.0	0.0
