15

C	-0.504586	-0.025664	-1.461757
C	0.0	0.0	0.0
Cl	0.145981	1.398935	-2.351572
H	1.092773	0.0	0.0
H	-0.3437	-0.935519	0.459088
C	-0.027986	-1.236012	-2.133275
N	0.262883	-2.238991	-2.672773
C	-2.02672	0.016627	-1.569821
H	-2.403143	0.951514	-1.152956
H	-2.340828	-0.041881	-2.612712
H	-2.455779	-0.825054	-1.019238
N	-0.434113	1.126256	0.800606
H	-1.417142	1.336527	0.689801
H	0.110489	1.942931	0.554418
Br	3.625776	0.0	0.0
