15

C	-0.389254	0.047701	-1.498181
C	0.0	0.0	0.0
Cl	-0.070511	-1.57297	-2.218182
H	1.09402	0.0	0.0
H	-0.384714	-0.924355	0.437205
C	-1.823137	0.309502	-1.648457
N	-2.965214	0.575716	-1.731916
C	0.43887	1.084997	-2.244915
H	0.219315	2.079075	-1.846757
H	0.211543	1.073798	-3.312136
H	1.495883	0.862273	-2.076293
N	-0.440753	1.147583	0.769993
H	-1.393748	1.41915	0.566499
H	0.18064	1.93051	0.627315
Br	3.637425	0.0	0.0
