15

C	-0.48487	0.007339	-1.442412
C	0.0	0.0	0.0
Cl	0.129694	-1.364427	-2.360342
H	1.094163	0.0	0.0
H	-0.347451	0.936459	0.445394
C	-1.946554	0.021165	-1.534831
N	-3.121034	-0.000295	-1.575124
N	-0.012883	1.331514	-2.099979
O	0.802729	1.295073	-3.0011
O	-0.533716	2.326971	-1.608142
C	-0.515118	-1.195619	0.788866
H	-1.608072	-1.230088	0.832993
H	-0.147188	-2.130417	0.364211
H	-0.129818	-1.12835	1.808058
Br	3.551725	0.0	0.0
