15

C	-0.484319	0.002755	-1.438737
C	0.0	0.0	0.0
Cl	-2.275209	0.07128	-1.541003
H	1.093517	0.0	0.0
H	-0.323418	0.957347	0.420396
C	0.031207	1.143192	-2.191515
N	0.368406	2.111013	-2.766351
N	-0.038753	-1.282326	-2.155139
O	-0.647836	-2.30495	-1.873406
O	0.916183	-1.178168	-2.912462
C	-0.488851	-1.159331	0.858877
H	-1.574617	-1.271785	0.845388
H	-0.167472	-0.968717	1.884676
H	-0.034789	-2.098845	0.546048
Br	3.519033	0.0	0.0
