15

C	-0.484021	-0.061437	-1.439979
C	0.0	0.0	0.0
Cl	0.144283	-1.46959	-2.293398
H	1.092899	0.0	0.0
H	-0.348466	0.956059	0.401421
C	-1.945653	-0.06835	-1.533953
N	-3.118905	-0.115122	-1.575508
N	-0.02471	1.235245	-2.159864
O	0.802982	1.167711	-3.047435
O	-0.568297	2.245531	-1.727881
C	-0.514029	-1.158531	0.84285
H	-1.606912	-1.191169	0.88942
H	-0.145498	-2.110892	0.460305
H	-0.128153	-1.045027	1.857196
Br	3.549511	0.0	0.0
