13
Coordinates from ORCA-job run
  C   1.10438936436391     -0.41561858715960      0.08069265376512
  C   -0.27546203956009     -0.25160068553347     -0.53400160211540
  Br  1.38878599221911     -2.28990298969290      0.51104856353693
  H   -0.36268611923177     -0.81544227915515     -1.46222507927838
  H   1.83034462122534     -0.17035790455441     -0.69657655169738
  C   1.34267014757716      0.44162969143649      1.23255652005302
  N   1.57317803663276      1.18384911685261      2.11364933739804
  N   -0.48600164639803      1.20841896317327     -0.88275477740878
  O   0.37791296186023      1.66742249221081     -1.61990070259954
  O   -1.46407991110453      1.77926042514237     -0.42567239188494
  N   -1.39728637725214     -0.68241355229408      0.35373514510814
  O   -2.36234613766966     -1.16927955533810     -0.22689874695714
  O   -1.26841889266227     -0.48596513508784      1.55534763208030
