13
Coordinates from ORCA-job run
  C   0.86806914391878     -0.40212024551716      0.59245890041726
  C   -0.21970324857972     -0.09639590477055     -0.43324275409282
  Br  0.41889444851069      0.21640977184892      2.37782955752068
  H   0.16424559820260     -0.18271269973773     -1.45115810829840
  H   0.95830886679689     -1.48772643477614      0.66893116404211
  C   2.14056935301637      0.16853937665432      0.17332825832899
  N   3.17911921054652      0.59186756043778     -0.17685739649892
  N   -0.72760515900458      1.31584464673841     -0.28957402996424
  O   0.05891771931626      2.16554799345198     -0.68772266321347
  O   -1.81897016220170      1.48332017899466      0.23235033993775
  N   -1.38973852874617     -1.03377448318880     -0.34340189560763
  O   -2.20687644842905     -0.90341478600460     -1.24678651058791
  O   -1.42523079334690     -1.83538497413109      0.58284513801660
