13
Coordinates from ORCA-job run
  C   0.94087034366709     -0.53451618194652      0.35140157334197
  C   -0.28441906355105     -0.06851908826002     -0.42259828474386
  Br  0.65800263741651     -0.62274357328845      2.26947457459412
  H   -0.14175439680417     -0.22963661359223     -1.49269925516668
  H   1.12848586114405     -1.56461120023387      0.03836606103211
  C   2.09387004486397      0.28828145509349      0.01789157478815
  N   3.02999588057919      0.92507468897292     -0.29621741603372
  N   -0.63732497724722      1.37757368452765     -0.25761544690258
  O   -1.42607096654161      1.79774163847238     -1.09709946350829
  O   -0.13419772041753      1.99642610939730      0.67178238191496
  N   -1.47347033969998     -0.90856655843166     -0.02325229462198
  O   -2.40401534384798     -0.36439506686657      0.54965003620165
  O   -1.35197195956129     -2.09310929384443     -0.30908404089583
