13
Coordinates from ORCA-job run
  C   0.95853574097814     -0.53589597782760      0.21665373387405
  C   -0.39675565409898      0.14059440522757      0.25646158246819
  Br  1.00704674430322     -1.90443998948925      1.59876249701723
  H   -0.62840377103404      0.62072475858327      1.20496502705398
  H   1.08558411186575     -1.03552414398561     -0.74374757196915
  C   2.01204545616633      0.44132254089342      0.44097369395908
  N   2.84773837739427      1.24446205050911      0.63372983492732
  N   -1.48761274809513     -0.85219135323069     -0.03727341273826
  O   -1.30617574563652     -1.56878119768647     -1.01606967185760
  O   -2.45552020579710     -0.83703933920878      0.71334882893341
  N   -0.50696640381292      1.18471888400177     -0.82788554720947
  O   0.21533011323895      1.04653675551360     -1.80938911401172
  O   -1.34584601547197      2.05651260669968     -0.63152988044706
