13
Coordinates from ORCA-job run
  C   0.97714744180547     -0.48714407120366      0.24962044297813
  C   -0.39933100783188      0.14577812379801      0.24999349440765
  Br  1.08358173318944     -1.73554898280995      1.73788970512723
  H   -0.64109415667209      0.68854695998542      1.16133643531036
  H   1.11242173701811     -1.05899414799951     -0.66848199252811
  C   1.99897303629572      0.53952140550660      0.38133544238542
  N   2.80734657642310      1.38415341184595      0.49803799663268
  N   -1.45973013095289     -0.90118354244050      0.04134016680314
  O   -1.25295245306597     -1.69715472196761     -0.86826830355441
  O   -2.43326730858025     -0.84464398715288      0.78267043111701
  N   -0.54986501728593      1.09964662344902     -0.90960786738084
  O   -1.39111200297230      1.97867108045397     -0.76123132401825
  O   0.14688155262949      0.88735184853513     -1.89663462728000
