13
Coordinates from ORCA-job run
  C   0.96913791813371     -0.52692922501773      0.19610448868308
  C   -0.39445444476953      0.12892286279558      0.26702307459467
  Br  1.06368634682951     -1.90542599332301      1.56542765659736
  H   -0.61914262565062      0.59051187390197      1.22618215884102
  H   1.08566020971068     -1.01631738558916     -0.77095709744367
  C   2.01185175007178      0.46461936770510      0.40834180390986
  N   2.83744909543827      1.28076508059262      0.58982839888542
  N   -1.47726254749263     -0.87361591924055     -0.02786931351425
  O   -1.28740914643042     -1.59649504579530     -0.99989676180969
  O   -2.45117140981459     -0.85529073236084      0.71511014866255
  N   -0.53384051850409      1.18797633131082     -0.79868848885437
  O   -1.33838085747874      2.07967158091349     -0.55345958465572
  O   0.13387622995667      1.03960720410700     -1.81714648389626
