13
Coordinates from ORCA-job run
  C   0.96127706216490     -0.54474722229036      0.18468513998392
  C   -0.39099959619209      0.13307504979203      0.26925246306443
  Br  1.03569906157183     -1.94488155522724      1.53339782871317
  H   -0.60352854209588      0.58694088765211      1.23492394410808
  H   1.06662432463691     -1.02176404939917     -0.78972553584838
  C   2.02108742964565      0.42561433542764      0.40935035445589
  N   2.86125843139404      1.22410667977654      0.60223774591134
  N   -1.49125488135988     -0.84786317012506     -0.03238277577424
  O   -2.45436528190957     -0.83479854881296      0.72449937440134
  O   -1.32352515549159     -1.55045107414732     -1.02341733478500
  N   -0.51814636454509      1.20703455058473     -0.78324525417107
  O   -1.32650235985824      2.09404088876379     -0.53365757522074
  O   0.16137587203901      1.07469322800529     -1.79591837483874
