13
Coordinates from ORCA-job run
  C   0.95357642293650     -0.53088088452371      0.32294741021327
  C   -0.28980128287546     -0.06175694958992     -0.41972225782988
  Br  0.70181951868432     -0.67335616500794      2.24222574388846
  H   -0.16210834386959     -0.19415025644836     -1.49566554125976
  H   1.15001069073008     -1.54958614663245     -0.02018288217962
  C   2.08948991589146      0.31708516273974     -0.00559621790017
  N   3.01175821253329      0.97523519822314     -0.31637281724070
  N   -0.65826742597840      1.37477208371091     -0.21346252215792
  O   -0.15600835830920      1.97392763043499      0.72931058569551
  O   -1.45735338736823      1.80873000629184     -1.03618415558243
  N   -1.46198393801922     -0.92728596040614     -0.02342071089793
  O   -2.39365682643905     -0.40800814149805      0.57041746656379
  O   -1.32747519791651     -2.10372557729404     -0.33529410131262
