13
Coordinates from ORCA-job run
  C   0.75087694795032     -0.48697370081612      0.76845950219895
  C   -0.60970474980423     -0.10701009136089      0.20945044373358
  Br  0.95101099953202      0.28640701141115      2.54014083712099
  H   -1.41497746527216     -0.49643743869741      0.83129087602098
  H   0.74398125673183     -1.56942026517077      0.91000492196082
  C   1.86532441018056     -0.13493747533520     -0.09915827224045
  N   2.78344220923871      0.06608406720998     -0.80421293764806
  N   -0.76537911826331     -0.73837398716880     -1.15971909620960
  O   -0.96570920003317     -0.00795534632905     -2.11781386594323
  O   -0.66738319069754     -1.95943726129901     -1.15046672470390
  N   -0.82842740093757      1.36401308578990      0.06780587235496
  O   0.14647778943526      2.05498121382987     -0.19948637294665
  O   -1.99153248806071      1.73006018793635      0.20470481630161
