13
Coordinates from ORCA-job run
  C   0.80923196631283     -0.56119151328732      0.65125397076735
  C   -0.58364304516414     -0.07667485413758      0.25988992446450
  Br  1.12029792727202     -0.26552689571456      2.55067843222907
  H   -1.31499370944770     -0.25732624364396      1.04755260738487
  H   0.82414953342854     -1.64675831004315      0.52620505756165
  C   1.88368132830206      0.01774655350540     -0.14137811368342
  N   2.77766159711329      0.45311760825727     -0.76687679629185
  N   -1.06385104691832     -0.80184735128769     -0.96092341166631
  O   -2.21521629577341     -1.22084561521862     -0.92870479851039
  O   -0.25487298331584     -0.90527958002515     -1.87776501522185
  N   -0.63512556231158      1.40262731396262     -0.05938092688557
  O   -1.48054712582415      1.74850969751977     -0.87271408358776
  O   0.13322741632640      2.11344919011297      0.57216315343971
