13
Coordinates from ORCA-job run
  C   0.58994043036321     -0.47002055960911      0.90671303548792
  C   -0.63604894771640      0.00751139925932      0.14700557006889
  Br  0.73499865375850      0.52889388488833      2.56782849197278
  H   -1.54765463157216     -0.17475175665344      0.71526364118663
  H   0.40426894943624     -1.50720684117275      1.19155344660598
  C   1.82393532053433     -0.41142428692174      0.13665235167916
  N   2.82619421258858     -0.45132769853125     -0.47503632508822
  N   -0.75338868083521     -0.78240003557271     -1.14177799303427
  O   -0.77565690827875     -1.99573445999305     -0.97491419210054
  O   -0.82434240931144     -0.16800183666992     -2.19477183707667
  N   -0.61189901691857      1.46003382230280     -0.20070762746242
  O   -1.70463270373596      2.01794470059262     -0.18808767592865
  O   0.47328573168763      1.94748366808089     -0.49072088631060
