13
Coordinates from ORCA-job run
  C   0.90917344067265     -0.52257293886571      0.53965904328290
  C   -0.54639150673020     -0.14278776708036      0.32671913702146
  Br  1.48631163283677      0.13618706520666      2.27524678948304
  H   -1.18782766689075     -0.60266827119712      1.07800073005716
  H   0.94983735333212     -1.61154261371033      0.59928329614940
  C   1.79953641662843     -0.07947591707462     -0.52320664881745
  N   2.53906387291585      0.19741652992162     -1.39318273736472
  N   -1.00076851373759     -0.66703121409577     -1.02153061032628
  O   -1.51277576723334      0.11649167218332     -1.80590010356336
  O   -0.81014848098624     -1.86750635144313     -1.17295033940212
  N   -0.80389140908236      1.32806516940485      0.36271270498766
  O   -1.87527446999480      1.65948009086493      0.86044198725318
  O   0.05015509826945      2.05594454588566     -0.12729324876087
