13
Coordinates from ORCA-job run
  C   0.89696168686339     -0.57534344257779      0.39890599170322
  C   -0.23562518734421     -0.02408691565403     -0.45602714287290
  Br  0.40397399305573     -0.84745658071131      2.25622895182982
  H   0.02500651944715     -0.08161467802129     -1.51443365031304
  H   1.11888207718655     -1.57161171947023      0.00845631992026
  C   2.07896542536676      0.26471948723425      0.27749336740242
  N   3.04317262938924      0.92038778588180      0.13327257816486
  N   -0.60664147592052      1.40218807730279     -0.19022322204353
  O   -0.21007029103708      1.92289692426652      0.84492801515584
  O   -1.29810638313963      1.90977044020224     -1.06636998421944
  N   -1.46055344282184     -0.88804432809942     -0.27465743967066
  O   -2.44953074529267     -0.39381971188124      0.24290196336766
  O   -1.30643480575289     -2.03998533847229     -0.66047574842450
