13
Coordinates from ORCA-job run
  C   1.11776550156751     -0.33099197693175      0.18074080147079
  C   -0.19056599907027     -0.22057435972434     -0.58372854820071
  Br  1.51181866715006     -2.20903936858255      0.49112608832660
  H   -0.11968696645554     -0.70264943488568     -1.55836027566712
  H   1.90465292119009      0.03983716641496     -0.47837673508150
  C   1.14730742291352      0.43299471524480      1.41944199909313
  N   1.23707767780611      1.09206468611715      2.38794051786657
  N   -0.49149987509241      1.24389399448135     -0.83658576720843
  O   0.41885060000218      1.84477100386100     -1.39392416115330
  O   -1.57852333700253      1.68056964307450     -0.49160494718558
  N   -1.36239647802835     -0.81891905829995      0.12357182815313
  O   -1.40265949186146     -0.69332380291681      1.34092933015174
  O   -2.19214064311889     -1.35763320785269     -0.60217013056533
