13
Coordinates from ORCA-job run
  C   0.94308004330960     -0.53016088560001      0.29147273900434
  C   -0.41948974838408      0.12892659833775      0.22475827328569
  Br  0.89112632323646     -1.91970610931089      1.65182935178755
  H   -0.74065494195890      0.58541221153105      1.15863629840949
  H   1.15887347499155     -1.01200072903216     -0.66217659227770
  C   1.95945045977872      0.45699810508953      0.62014282594075
  N   2.76370007071117      1.26837611746673      0.89482294056863
  N   -1.46759849440164     -0.86953079819238     -0.18576268839012
  O   -1.18491627356928     -1.57585446295635     -1.14748002013144
  O   -2.50663325503870     -0.86533114434403      0.46301500153906
  N   -0.44674173359735      1.19449068630020     -0.84337519703022
  O   0.33828741925458      1.06456556336347     -1.77694481843488
  O   -1.28748334433211      2.07281484734707     -0.68793811427115
