13
Coordinates from ORCA-job run
  C   0.89276468924673     -0.40925972377295      0.54761999057261
  C   -0.23569907166641     -0.08618456070992     -0.42678336369624
  Br  0.50767496145242      0.15843692980163      2.36502245047541
  H   0.10885367049508     -0.14328938336316     -1.46074362525450
  H   0.99356110824127     -1.49574329393455      0.59222104687282
  C   2.14507526359786      0.18162505952573      0.09715741531569
  N   3.17077215642924      0.61879569552515     -0.27374895654924
  N   -0.74883133653161      1.31742524631374     -0.22843630880305
  O   -1.81892255517307      1.46228933261704      0.34220747808741
  O   0.01186201646562      2.18381632960504     -0.64124134160249
  N   -1.39438182175221     -1.03602396632612     -0.31619102687962
  O   -2.24692977890694     -0.88894844345106     -1.18322714475306
  O   -1.38579930189799     -1.86393922183057      0.58714338621426
