13
Coordinates from ORCA-job run
  C   0.90993994616833     -0.42411733149286      0.50864843227397
  C   -0.24914941669303     -0.07699126781552     -0.42077618745829
  Br  0.58444432124127      0.09794321091068      2.35104408677712
  H   0.06193240721726     -0.10970617314485     -1.46634809379102
  H   1.01219495275035     -1.51125786221034      0.52255650267455
  C   2.14615936828149      0.17990118120720      0.03192637162922
  N   3.15510335659569      0.63203159630701     -0.36570397728722
  N   -0.75275270892349      1.32207802971462     -0.17215656603812
  O   -0.00488016022435      2.19715889489397     -0.58985086383741
  O   -1.80184549915863      1.45455611607889      0.43904397819585
  N   -1.40557437087721     -1.02756420357199     -0.29547097716502
  O   -1.36908927360798     -1.87787351384600      0.58622627268988
  O   -2.28748292276969     -0.85615867703082     -1.12813897866350
