13
Coordinates from ORCA-job run
  C   0.78138825723026     -0.48919337341157      0.73602247033925
  C   -0.58791515798927     -0.01138878255543      0.28309437137239
  Br  1.27660525320750      0.45774181344058      2.35975155804169
  H   -1.34931309192576     -0.23143621233623      1.03080984037596
  H   0.67611360730211     -1.53864987407846      1.01631794393604
  C   1.81512586623859     -0.37871120536468     -0.28281726597220
  N   2.66037268129868     -0.37221711516294     -1.09885619525634
  N   -0.97827644320245     -0.75906510090772     -0.97701484285568
  O   -1.30515343946851     -0.11044964202054     -1.95874508207969
  O   -0.93395386905182     -1.97763467451818     -0.86022963785636
  N   -0.65834327944403      1.45239794372200     -0.00575306980070
  O   -1.72099550037593      1.99217046690403      0.28512537836585
  O   0.32434511618063      1.96643575628915     -0.52470546861019
