13
Coordinates from ORCA-job run
  C   0.89244021908149     -0.40666074004025      0.55196510307715
  C   -0.23654899534957     -0.09209113724118     -0.42498177338743
  Br  0.51179104062960      0.18387226817923      2.36289085667320
  H   0.10661490307309     -0.16559725588051     -1.45839110821397
  H   0.99100066209424     -1.49278781881783      0.60912703212399
  C   2.14444651889698      0.17704116245745      0.09112417500467
  N   3.16634389219727      0.61195374357132     -0.29242910122368
  N   -0.74224645213134      1.31633864859386     -0.24474207610203
  O   -1.80928769411867      1.47441078412849      0.32821425185583
  O   0.02169108124015      2.17340000113031     -0.67087804566758
  N   -1.39945721490913     -1.03476703598537     -0.29982857732968
  O   -2.25474767986657     -0.89280867856191     -1.16507640894475
  O   -1.39204028083754     -1.85230394153363      0.61300567213427
