13
Coordinates from ORCA-job run
  C   0.90867784081034     -0.43535136631047      0.50197992552514
  C   -0.25168960050147     -0.07287586279502     -0.41963962803658
  Br  0.59663711946219      0.08044277752858      2.34883227935753
  H   0.05311842069051     -0.10476952206955     -1.46709054652480
  H   1.00061626887110     -1.52350425545913      0.51043993846122
  C   2.14782962470108      0.15974886170800      0.02162444355660
  N   3.15873277934352      0.60454474696676     -0.37943026813403
  N   -0.74032528791321      1.32998493810639     -0.16253217126604
  O   0.01415350212609      2.19979283220914     -0.57960145472974
  O   -1.78503956148960      1.47003500778068      0.45447265403162
  N   -1.41707758275630     -1.01233560234877     -0.29239368555983
  O   -2.30155120170281     -0.82837558508904     -1.11961089778599
  O   -1.38408232164144     -1.86733697022758      0.58494941110490
