13
Coordinates from ORCA-job run
  C   1.06574253809989     -0.50104232215949      0.07143547883234
  C   -0.31030423192319     -0.24423290661307     -0.51956649599420
  Br  1.20085141897172     -2.37485371372608      0.57054911666341
  H   -0.46709729404632     -0.83160751430107     -1.42381154468756
  H   1.79106472481441     -0.34724086341580     -0.72936802518186
  C   1.40507203795815      0.37368400064870      1.18439542810263
  N   1.74527579978559      1.10607575754534      2.03781127883849
  N   -0.41118741117411      1.21522215776090     -0.91749238332576
  O   -1.34877795154144      1.86971520964955     -0.48868820588345
  O   0.48496251203433      1.58467975337432     -1.66640204860637
  N   -1.43930742302699     -0.55041162934778      0.40957702068044
  O   -2.44510490971186     -1.00856477802422     -0.12323359977472
  O   -1.27218981024018     -0.29242315139130      1.59479398033660
