13
Coordinates from ORCA-job run
  C   0.86121662015009     -0.36136081611438      0.72032772659062
  C   -0.57274129913316     -0.08570209751684      0.30086521748998
  Br  1.26594842409155      0.67997868357099      2.31119901684108
  H   -1.27577057692030     -0.39030082887277      1.07566703916897
  H   0.90960061988533     -1.40883887668822      1.02271114658662
  C   1.84097953513983     -0.13257094257555     -0.33158816101584
  N   2.65432470080060     -0.02885658825729     -1.17308500338830
  N   -0.89178801669126     -0.90724082179824     -0.93290511039838
  O   -0.67734018454889     -2.10544170927012     -0.79566218295463
  O   -1.33279833839062     -0.33136361871067     -1.91529245587948
  N   -0.85112391643883      1.34839163888892     -0.01235785060826
  O   -1.96918889304988      1.74444511662841      0.30145130360056
  O   0.03668132510554      1.97986086071575     -0.57133068603294
