13
Coordinates from ORCA-job run
  C   0.91196010924769     -0.44337197807425      0.49269793025723
  C   -0.24773377006143     -0.06879865629870     -0.42463439331135
  Br  0.56137837373648     -0.04139680347096      2.36021721487787
  H   0.06522102436717     -0.07489474077974     -1.47039183902303
  H   1.04029520393706     -1.52649826037505      0.43995755975169
  C   2.13421913799047      0.22125604263815      0.06301799852071
  N   3.13229703386612      0.72769408234160     -0.29493596530303
  N   -0.74991383703710      1.32196834491984     -0.14003954228884
  O   -0.04185769014260      2.20957704065252     -0.60133302199294
  O   -1.75720472584130      1.43879216891844      0.54125230777833
  N   -1.40442544764525     -1.02549741111544     -0.32819624448486
  O   -2.32651293767828     -0.77673516329925     -1.09445351846417
  O   -1.31972247473903     -1.96309466605717      0.45584151368240
