13
Coordinates from ORCA-job run
  C   0.87197648712026     -0.39480704263903      0.59246016443401
  C   -0.22792719334429     -0.10856110081249     -0.42556328722457
  Br  0.45953432961988      0.28698791999087      2.36365251725127
  H   0.13822031856271     -0.23679916024705     -1.44565684936980
  H   0.94980136395108     -1.47853382305803      0.70267536860349
  C   2.14462666974329      0.14521359757309      0.13480544071017
  N   3.18244166479036      0.54453325719541     -0.24475904667093
  N   -0.71256986196188      1.31548583453088     -0.32499876309216
  O   0.07456840072685      2.13796652749759     -0.77639982640560
  O   -1.78791510290121      1.51896066065090      0.21728344638289
  N   -1.41018426771948     -1.02420947345166     -0.28383484489732
  O   -1.43729417519355     -1.79980841458313      0.66449547902178
  O   -2.24427863339402     -0.90642878264735     -1.17315979874322
