13
Coordinates from ORCA-job run
  C   0.92296826763144     -0.56297854329811      0.35448749279494
  C   -0.23963573609608     -0.00551650615494     -0.45447713070670
  Br  0.46200064451321     -0.96557153458506      2.19662869735635
  H   0.01015656291873      0.01172194667336     -1.51692126050211
  H   1.17775310896686     -1.52548944718137     -0.09600045569703
  C   2.07077242634269      0.32763770553365      0.27268824292905
  N   3.00661732546994      1.02897104279711      0.15960373307005
  N   -0.66178474124762      1.38658293175487     -0.09890992584470
  O   -0.27479016947833      1.85795433415440      0.96314271728843
  O   -1.38066405590351      1.91969918191466     -0.93701258796448
  N   -1.42853953909369     -0.92560191418293     -0.31431269155665
  O   -2.42929253523802     -0.50206787731066      0.24188318516471
  O   -1.23556155878563     -2.04534132011500     -0.77080001633186
