13
Coordinates from ORCA-job run
  C   0.91852055639880     -0.60144097133713      0.22412134407592
  C   -0.40220901503235      0.14050428198014      0.24665805696209
  Br  0.82832727300913     -2.06207727397271      1.50616158998967
  H   -0.66088448479343      0.56184621044468      1.21577600791739
  H   1.07126362513795     -1.03960321165543     -0.76217181010233
  C   2.00411750147769      0.30283305084489      0.56966023730569
  N   2.86404115445558      1.04771480302644      0.86321981484510
  N   -1.52454868176397     -0.76775471399210     -0.17625604344826
  O   -2.54048603508303     -0.73128773940860      0.50724345021888
  O   -1.31798266184041     -1.44083108132252     -1.18034186581877
  N   -0.40110316023735      1.26494408333062     -0.75981971576916
  O   0.34121831745804      1.14169090823726     -1.72857556396128
  O   -1.18027438918663      2.18146165382447     -0.52467550221495
