13
Coordinates from ORCA-job run
  C   0.91429814937751     -0.42217686883893      0.50183572158386
  C   -0.24671866210401     -0.07064270344335     -0.42352523763396
  Br  0.57220246920981      0.04796554459218      2.35527551987696
  H   0.06836678406333     -0.07383016248214     -1.46845511442590
  H   1.03460816145926     -1.50755817430133      0.48863000396386
  C   2.14242203552546      0.21353040236858      0.04565475746695
  N   3.14552383743857      0.69115719832077     -0.33671867561584
  N   -0.77184714724115      1.31420698177508     -0.14346063778164
  O   -0.03390245410331      2.21004649433857     -0.53446387300125
  O   -1.82571158575143      1.41679631624151      0.46545482609484
  N   -1.38866044583183     -1.04205074097250     -0.32591398392596
  O   -2.27004233157506     -0.86406720180695     -1.15763068314365
  O   -1.34053881046716     -1.91437708579148      0.53331737654174
