13
Coordinates from ORCA-job run
  C   0.92082641183703     -0.59483022603242      0.23115837473568
  C   -0.39919767333602      0.14865255416193      0.24779239467390
  Br  0.84673978805489     -2.01606955342078      1.55739160893282
  H   -0.64605152780709      0.59850002611920      1.20714533050412
  H   1.06049277248030     -1.06269709899882     -0.74334309269704
  C   2.01145908206880      0.31831613693259      0.53429149887813
  N   2.87599033003436      1.07164596794965      0.79043131303542
  N   -1.52656553817703     -0.77152464300374     -0.13406441770605
  O   -2.53106364821845     -0.72040091609740      0.56528321278716
  O   -1.33548025571118     -1.46797015322434     -1.12517509275072
  N   -0.41007752541486      1.24245216000781     -0.79135240729022
  O   -1.18620899739839      2.16600156227130     -0.57432139030558
  O   0.32013678158765      1.08992418333500     -1.76523733279763
