13
Coordinates from ORCA-job run
  C   1.09397896753309     -0.43887173722830      0.06330926580371
  C   -0.28425736691449     -0.22795341829899     -0.54028710294979
  Br  1.33088941028816     -2.32982202370044      0.44847374652297
  H   -0.38790072653487     -0.76462584031697     -1.48304344801013
  H   1.82343089374455     -0.19236464133656     -0.70997653378207
  C   1.36044499573650      0.38173120186835      1.23565956867012
  N   1.63513370293999      1.08123554419534      2.13879389907272
  N   -0.47073869830267      1.24525593362971     -0.84810451382464
  O   0.43048873117195      1.72673015315425     -1.52360975741302
  O   -1.47552426616189      1.80075253822557     -0.43219886624513
  N   -1.40743058514672     -0.66247599739592      0.34344111243071
  O   -1.28720244293963     -0.44628816345204      1.54263499082348
  O   -2.36131261541397     -1.17430354934399     -0.23409236109893
