13
Coordinates from ORCA-job run
  C   0.90747775036295     -0.56214238437460      0.39320751206994
  C   -0.23046680751173     -0.01769995296021     -0.45889010076505
  Br  0.40251728521292     -0.89561417714604      2.23761203215927
  H   0.04245303561074     -0.03961967426225     -1.51555399508761
  H   1.15877591924036     -1.54212994946761     -0.01997696810015
  C   2.06844990982278      0.31080451193921      0.30657641377598
  N   3.01709180752319      0.99414806623993      0.19008737415370
  N   -0.64117895705023      1.39095493865511     -0.15941586234472
  O   -0.26721988461914      1.89449166363568      0.89254054428233
  O   -1.33807300527143      1.90314446362730     -1.02863074037240
  N   -1.43403601511607     -0.91763448934543     -0.31385300370325
  O   -2.44092088853301     -0.46329361673877      0.20569646956436
  O   -1.24587014967131     -2.05440939980232     -0.72839967563240
