15

C	-0.10856	-0.129483	-1.504749
C	0.0	0.0	0.0
Br	-0.422757	1.923055	-2.185618
H	1.090171	0.0	0.0
H	-0.475915	0.866664	0.434935
N	0.997725	-0.699057	-2.004924
H	1.080886	-0.798568	-3.00288
H	1.850295	-0.489724	-1.4228
N	-1.396739	-0.707787	-2.051645
O	-1.339236	-1.267285	-3.141656
O	-2.401851	-0.560098	-1.368337
N	-0.472609	-1.200804	0.710692
O	-0.529003	-2.270279	0.106149
O	-0.737914	-1.055911	1.9027
F	2.630645	0.0	0.0
