15

C	-0.069104	-0.257371	-1.492926
C	0.0	0.0	0.0
Br	-0.563981	1.761498	-2.346837
H	1.089142	0.0	0.0
H	-0.498066	0.889228	0.356558
N	1.079967	-0.756127	-1.940625
H	1.931383	-0.510823	-1.337732
H	1.148399	-1.027493	-2.908834
N	-1.29711	-0.957127	-2.036998
O	-1.161204	-1.575813	-3.087785
O	-2.328552	-0.850924	-1.387169
N	-0.455601	-1.162416	0.78529
O	-0.363763	-2.282972	0.285676
O	-0.846156	-0.934638	1.930855
F	2.652566	0.0	0.0
