15

C	-0.544552	-0.003708	-1.396866
C	0.0	0.0	0.0
Br	-0.007702	1.559024	-2.431607
H	1.086832	0.0	0.0
H	-0.283569	-0.938671	0.481152
N	-0.087632	-1.160948	-2.067412
H	0.002391	-1.952016	-1.448287
H	-0.603705	-1.374578	-2.908005
N	-2.118554	-0.034843	-1.366773
O	-2.581607	-0.818053	-0.537967
O	-2.772524	0.570146	-2.206094
N	-0.566699	1.037605	0.863276
O	-1.309891	1.897295	0.374853
O	-0.261681	0.983506	2.053209
F	2.500613	0.0	0.0
