15

C	-0.561821	-0.017446	-1.399826
C	0.0	0.0	0.0
Br	0.460842	-1.179609	-2.604794
H	1.085198	0.0	0.0
H	-0.404659	0.876103	0.513938
N	-1.921786	-0.369471	-1.463832
H	-2.44144	0.081111	-0.719796
H	-2.312867	-0.146369	-2.36921
N	-0.30941	1.416452	-1.983912
O	-1.175859	1.842473	-2.748713
O	0.703284	2.011186	-1.650673
N	-0.543583	-1.171476	0.716695
O	0.009282	-2.257947	0.557843
O	-1.534198	-0.993477	1.44271
F	2.529037	0.0	0.0
