15

C	-0.205623	0.149737	-1.500033
C	0.0	0.0	0.0
Br	-1.956521	0.919113	-1.943897
H	1.091885	0.0	0.0
H	-0.337855	0.909409	0.493717
N	0.841691	0.973651	-2.042064
H	1.695667	0.706431	-1.50976
H	0.631525	1.939895	-1.825274
N	-0.07091	-1.208742	-2.220405
O	-1.048237	-1.746288	-2.721058
O	1.074193	-1.635157	-2.225103
N	-0.625673	-1.122945	0.694836
O	-1.012664	-0.918198	1.848375
O	-0.687714	-2.213958	0.1264
F	2.571315	0.0	0.0
