15

C	-0.530613	-0.085896	-1.42708
C	0.0	0.0	0.0
Br	0.037922	-1.744827	-2.244863
H	1.086624	0.0	0.0
H	-0.417308	0.913376	0.432554
N	-1.940923	0.080716	-1.678374
H	-2.425011	-0.624432	-1.133776
H	-2.197083	0.981378	-1.284608
N	0.135706	1.102826	-2.14226
O	1.006204	0.930962	-2.976116
O	-0.3143	2.19024	-1.776464
N	-0.574236	-1.114121	0.788917
O	-1.788271	-1.063383	1.048188
O	0.160068	-2.027787	1.148506
F	2.538416	0.0	0.0
