14

C	0.0	0.0	0.0
C	-0.598704	-0.209634	-1.399036
F	1.420401	0.0	0.0
H	0.207234	-0.03962	-2.119746
H	-1.380277	0.546077	-1.531936
C	-0.28425	1.377239	0.485506
N	-0.408088	2.480484	0.865477
N	-0.48987	-0.943386	0.904955
H	-0.502731	-1.864142	0.488722
H	-0.040597	-0.896829	1.806116
N	-1.138262	-1.562326	-1.52234
H	-2.086574	-1.501545	-1.140271
H	-1.226069	-1.789833	-2.505061
Br	-3.948491	0.0	0.0
