14

C	0.0	0.0	0.0
C	-0.474634	-0.194236	-1.435661
F	1.400891	0.0	0.0
H	-1.501711	-0.566278	-1.390464
H	0.19431	-0.955748	-1.853232
C	-0.361623	1.321498	0.558325
N	-0.56752	2.364482	1.052565
N	-0.495984	-1.022451	0.832384
H	-0.12656	-0.967791	1.769906
H	-0.351816	-1.93774	0.431191
N	-0.321962	1.044581	-2.197369
H	-1.178623	1.57648	-2.079135
H	-0.251283	0.822931	-3.182588
Br	-3.941981	0.0	0.0
