14

C	0.0	0.0	0.0
C	-0.444715	-0.304251	-1.42685
F	1.374427	0.0	0.0
H	-1.519106	-0.119554	-1.491685
H	0.088511	0.402029	-2.071869
C	-0.343464	1.413205	0.346823
N	-0.512721	2.546671	0.603694
N	-0.511618	-0.969673	0.9114
H	-1.534851	-0.907122	0.846725
H	-0.23261	-0.73604	1.858577
N	-0.048814	-1.678999	-1.770161
H	-0.222983	-2.241591	-0.945012
H	-0.687222	-2.008526	-2.484763
Br	-3.729094	0.0	0.0
