14

C	0.0	0.0	0.0
C	-0.425115	0.187866	-1.453127
F	1.417934	0.0	0.0
H	0.032258	1.107267	-1.842059
H	-1.511617	0.300838	-1.435313
C	-0.360491	1.186848	0.808591
N	-0.537703	2.139201	1.470657
N	-0.4731	-1.188514	0.619913
H	-0.433889	-1.902741	-0.103886
H	-1.464419	-1.035131	0.820965
N	-0.062124	-1.015271	-2.198418
H	-0.739559	-1.185579	-2.92887
H	0.854375	-0.915591	-2.615452
Br	-3.753735	0.0	0.0
