14

C	0.0	0.0	0.0
C	-0.533245	-0.169684	-1.413096
F	1.400661	0.0	0.0
H	0.09415	-0.951307	-1.857093
H	-1.575723	-0.520031	-1.354225
C	-0.334993	1.336289	0.578845
N	-0.514284	2.40901	1.020623
N	-0.470291	-1.016566	0.905902
H	-1.223397	-1.557954	0.509074
H	0.273419	-1.577763	1.292587
N	-0.4127	1.078415	-2.159646
H	-0.53624	0.872828	-3.144104
H	-1.204033	1.65432	-1.887721
Br	-3.836217	0.0	0.0
