14

C	0.0	0.0	0.0
C	-0.430737	0.099564	-1.459907
F	1.416862	0.0	0.0
H	-1.516918	0.218338	-1.44084
H	0.02729	0.991949	-1.906369
C	-0.359725	1.235807	0.731202
N	-0.53486	2.237924	1.315585
N	-0.471769	-1.147852	0.692421
H	-0.433523	-1.90557	0.014288
H	-1.461763	-0.984408	0.889999
N	-0.074311	-1.147469	-2.133661
H	-0.775483	-1.376916	-2.822722
H	0.821405	-1.063405	-2.593059
Br	-3.752068	0.0	0.0
