14

C	0.0	0.0	0.0
C	-0.372351	-0.063928	-1.460842
F	1.420633	0.0	0.0
H	0.101862	0.814389	-1.924375
H	-1.455901	0.014077	-1.554029
C	-0.348615	1.306051	0.606212
N	-0.480643	2.310124	1.200951
N	-0.519943	-1.032827	0.762626
H	-0.433072	-1.908826	0.264221
H	-0.145425	-1.045128	1.69382
N	0.108581	-1.34625	-1.990586
H	-0.47987	-1.635555	-2.756046
H	1.065955	-1.256089	-2.291178
Br	-3.516003	0.0	0.0
