14

C	0.0	0.0	0.0
C	-0.294515	-0.089104	-1.523341
F	1.381908	0.0	0.0
H	0.30829	0.694117	-1.995527
H	0.150184	-1.049278	-1.821507
C	-0.41065	1.317441	0.530903
N	-0.621458	2.418784	0.877844
N	-0.534149	-1.040709	0.812572
H	-1.496163	-0.812346	1.058297
H	-0.557507	-1.902711	0.278717
N	-1.643516	-0.007718	-2.007369
H	-2.254738	-0.669847	-1.542936
H	-2.056515	0.886533	-1.771683
Br	-4.235715	0.0	0.0
