14

C	0.0	0.0	0.0
C	-0.586703	-0.213507	-1.403327
F	1.420593	0.0	0.0
H	0.222591	-0.035269	-2.118343
H	-1.37558	0.53314	-1.541176
C	-0.286752	1.374735	0.488035
N	-0.379794	2.481066	0.869498
N	-0.49289	-0.948037	0.897452
H	-0.495085	-1.868101	0.480111
H	-0.059709	-0.898736	1.806
N	-1.11199	-1.57215	-1.532912
H	-2.06454	-1.521395	-1.164649
H	-1.181903	-1.800654	-2.514909
Br	-3.941814	0.0	0.0
