14

C	0.0	0.0	0.0
C	-0.317618	0.382921	-1.471315
F	1.386066	0.0	0.0
H	0.071343	1.397409	-1.601398
H	0.333789	-0.288411	-2.038812
C	-0.365842	1.07925	0.953475
N	-0.590655	1.943451	1.717075
N	-0.528074	-1.279438	0.333904
H	-1.533161	-1.245745	0.148475
H	-0.425837	-1.449826	1.328443
N	-1.650729	0.298605	-1.991617
H	-1.97844	-0.657969	-1.990502
H	-2.329635	0.794269	-1.421837
Br	-4.232991	0.0	0.0
