14

C	-0.429351	0.054285	-1.441118
C	0.0	0.0	0.0
F	-1.835734	0.007261	-1.54019
H	1.097569	0.0	0.0
H	-0.038231	-0.794891	-2.007841
H	-0.105571	0.993187	-1.890916
C	-0.474319	-1.285376	0.677818
H	-0.079091	-2.169091	0.168156
H	-0.117913	-1.311534	1.710497
H	-1.567783	-1.344718	0.679623
N	-0.44878	1.221825	0.67627
H	-1.407264	1.102382	0.986404
H	0.12909	1.364646	1.495954
Cl	3.559728	0.0	0.0
