18

C	0.0	0.0	0.0
C	-0.415898	-0.130524	-1.523331
Br	1.946457	0.0	0.0
H	0.446383	0.294549	-2.061044
C	-0.548552	1.240322	0.648324
H	-0.158819	1.351403	1.661142
H	-1.639659	1.095672	0.645759
H	-0.283009	2.103493	0.038977
N	-0.361288	-1.222365	0.85642
O	0.097171	-2.310512	0.521538
O	-1.041269	-1.027373	1.855022
N	-1.544822	0.701596	-1.813451
H	-1.772429	0.591818	-2.79673
H	-2.355074	0.388718	-1.182279
N	-0.617535	-1.537378	-1.89569
H	0.241151	-2.06512	-1.780296
H	-0.865034	-1.537345	-2.878728
F	-3.124658	0.0	0.0
