14

C	-0.134551	-0.181328	-1.518326
C	0.0	0.0	0.0
Cl	-0.391828	1.685478	-2.153278
H	1.088783	0.0	0.0
H	-0.472919	0.88982	0.394287
N	1.014271	-0.755469	-1.989036
H	1.105166	-0.844006	-2.988524
H	1.863162	-0.49983	-1.422195
C	-1.361272	-0.789134	-2.035363
N	-2.3325	-1.295376	-2.461884
N	-0.489455	-1.15916	0.763443
O	-0.840724	-0.941705	1.92493
O	-0.482163	-2.269377	0.232387
F	2.631234	0.0	0.0
