14

C	-0.533266	0.03151	-1.423321
C	0.0	0.0	0.0
Cl	-0.069477	-1.57329	-2.116944
H	1.09037	0.0	0.0
H	-0.342182	-0.898596	0.515636
N	-1.96795	0.169349	-1.615727
H	-2.423139	-0.528817	-1.035866
H	-2.222368	1.087988	-1.265422
C	0.127947	1.057221	-2.243726
N	0.572687	1.877775	-2.955631
N	-0.478309	1.135328	0.78137
O	-0.461823	1.030431	2.007535
O	-0.836776	2.162739	0.184577
F	2.490381	0.0	0.0
