14

C	-0.173524	-0.078765	-1.523154
C	0.0	0.0	0.0
Cl	0.132963	1.539282	-2.368732
H	1.100639	0.0	0.0
H	-0.358539	-0.940008	0.414373
N	0.784893	-1.059131	-1.897076
H	1.675616	-0.815592	-1.420088
H	0.896524	-1.099051	-2.901438
C	-1.525999	-0.454512	-1.962758
N	-2.605387	-0.783575	-2.291187
N	-0.646254	1.061112	0.774907
O	-0.652869	2.218548	0.36383
O	-1.111881	0.714777	1.866951
F	2.587676	0.0	0.0
