14

C	-0.535719	-0.213411	-1.418246
C	0.0	0.0	0.0
Cl	-0.124677	-1.892059	-1.936914
H	1.102592	0.0	0.0
H	-0.400807	0.959532	0.343341
N	-1.957948	-0.023652	-1.655723
H	-2.149948	0.971132	-1.591169
H	-2.448394	-0.474208	-0.888375
C	0.187885	0.71341	-2.300446
N	0.661525	1.51048	-3.020799
N	-0.593594	-1.0164	0.900204
O	0.126003	-1.897079	1.358915
O	-1.809345	-0.924765	1.145661
F	2.539523	0.0	0.0
