14

C	-0.179463	-0.102562	-1.524215
C	0.0	0.0	0.0
Cl	-0.051266	1.5644	-2.229422
H	1.100934	0.0	0.0
H	-0.388503	-0.914324	0.457821
N	0.912882	-0.887382	-2.054701
H	0.704236	-1.871147	-1.921805
H	1.749373	-0.644031	-1.479243
C	-1.466947	-0.654975	-1.962682
N	-2.469395	-1.174823	-2.287732
N	-0.706771	1.123633	0.641333
O	-1.891799	1.285934	0.336134
O	-0.09777	1.805732	1.461755
F	2.629273	0.0	0.0
