17

C	-0.538953	0.109896	-1.435229
C	0.0	0.0	0.0
Cl	-2.319648	0.165051	-1.377325
H	1.093294	0.0	0.0
N	-0.045821	1.272424	-2.101612
H	0.96612	1.164853	-2.154442
H	-0.234064	2.046766	-1.472962
N	-0.106842	-1.088783	-2.297767
O	1.0593	-1.03894	-2.663331
O	-0.913422	-1.969874	-2.553606
N	-0.436673	-1.303505	0.638232
O	-0.041004	-2.332151	0.099189
O	-1.140414	-1.252683	1.647142
N	-0.413181	1.149047	0.735904
H	-1.310844	0.993179	1.175792
H	0.279554	1.34052	1.448347
Cl	3.22689	0.0	0.0
