17

C	-0.582056	-0.355874	-1.38833
C	0.0	0.0	0.0
Cl	0.411734	-1.513963	-2.27916
H	1.092004	0.0	0.0
N	-1.904414	-0.824455	-1.311218
H	-2.348838	-0.842632	-2.218579
H	-2.462421	-0.299943	-0.650836
N	-0.485577	0.987338	-2.196802
O	-1.55668	1.556705	-2.412178
O	0.619699	1.398304	-2.503771
N	-0.485367	-1.104592	0.915081
O	0.151439	-2.150497	0.918251
O	-1.516969	-0.891073	1.553327
N	-0.405667	1.260938	0.5232
H	-1.309897	1.596347	0.228639
H	0.319657	1.944124	0.359008
Cl	3.280444	0.0	0.0
