17

C	-0.519196	0.02879	-1.440948
C	0.0	0.0	0.0
Cl	0.114249	-1.434207	-2.297748
H	1.095045	0.0	0.0
N	-1.913091	0.224639	-1.549013
H	-2.185297	0.246543	-2.52378
H	-2.388482	-0.512286	-1.042575
N	0.09051	1.222893	-2.188228
O	0.861692	1.958075	-1.591063
O	-0.301087	1.362639	-3.343624
N	-0.451879	-1.30515	0.63501
O	0.362571	-1.928451	1.297317
O	-1.643013	-1.616967	0.51211
N	-0.503927	1.053552	0.823851
H	0.222858	1.745436	0.940134
H	-1.335595	1.469013	0.426297
Cl	3.331503	0.0	0.0
