17

C	-0.281684	0.137345	-1.517058
C	0.0	0.0	0.0
Cl	-0.157318	1.937331	-1.94983
H	1.103954	0.0	0.0
N	0.565095	-0.689149	-2.2207
H	1.516314	-0.661944	-1.852195
H	0.515922	-0.583576	-3.222826
N	-1.738722	-0.160043	-1.890898
O	-1.94233	-0.827598	-2.898726
O	-2.599295	0.315656	-1.157949
N	-0.461694	-1.39226	0.391119
O	0.283603	-2.332715	0.135999
O	-1.56139	-1.479749	0.937914
N	-0.51582	0.939599	0.917384
H	0.124804	1.714254	1.001439
H	-1.445318	1.248306	0.674423
Cl	3.277882	0.0	0.0
