15

C	-0.419836	-0.131533	-1.432294
C	0.0	0.0	0.0
Br	0.487384	1.177733	-2.526853
H	1.095681	0.0	0.0
N	-0.088025	-1.504984	-1.990885
O	-0.536279	-1.747596	-3.10554
O	0.644107	-2.215282	-1.312502
N	-1.941922	0.001481	-1.596358
O	-2.564513	-1.008607	-1.276166
O	-2.411205	1.082383	-1.922265
C	-0.482069	-1.060294	0.862115
N	-0.812378	-1.900331	1.61781
C	-0.403866	1.292836	0.523205
N	-0.65561	2.346852	0.982667
H	2.349675	0.0	0.0
