15

C	-0.470314	0.00161	-1.450966
C	0.0	0.0	0.0
Br	-2.351948	0.168211	-1.767704
H	1.095943	0.0	0.0
N	0.227303	1.125119	-2.222079
O	0.147998	1.030097	-3.453293
O	0.970631	1.852282	-1.577267
N	0.056903	-1.283473	-2.13742
O	1.281148	-1.355465	-2.115441
O	-0.7462	-2.113116	-2.543142
C	-0.473532	-1.217229	0.643641
N	-0.840748	-2.216186	1.145256
C	-0.472081	1.176553	0.711302
N	-0.852779	2.111204	1.315469
H	2.384213	0.0	0.0
