15

C	-0.433204	0.014614	-1.462012
C	0.0	0.0	0.0
Br	-0.172278	-1.679466	-2.285088
H	1.099012	0.0	0.0
N	-1.912246	0.391702	-1.690545
O	-2.696698	0.0292	-0.8233
O	-2.168478	0.976924	-2.735915
N	0.352581	1.10488	-2.216327
O	0.834213	0.841457	-3.30306
O	0.316251	2.195338	-1.656643
C	-0.435968	-1.204654	0.692976
N	-0.729586	-2.163283	1.308442
C	-0.457646	1.166128	0.745617
N	-0.777259	2.092198	1.396668
H	2.340135	0.0	0.0
