17

C	0.0	0.0	0.0
C	-0.327469	0.156826	-1.510618
Cl	1.770915	0.0	0.0
H	0.210339	1.04372	-1.840082
N	-0.42094	1.303488	0.688258
O	-0.495105	1.273338	1.907059
O	-0.570592	2.288465	-0.024736
C	-0.523138	-1.190641	0.750769
H	-0.156458	-1.146167	1.775103
H	-0.171936	-2.102132	0.272083
H	-1.614746	-1.144151	0.733702
C	-1.676906	0.255225	-2.079252
N	-2.373864	0.411012	-3.019984
N	0.334744	-0.970876	-2.287584
O	1.183821	-0.634421	-3.108968
O	-0.045474	-2.115929	-2.075075
Cl	-3.496145	0.0	0.0
