14

C	-0.458796	0.108509	-1.442557
C	0.0	0.0	0.0
F	-1.836316	0.318618	-1.517408
H	1.100983	0.0	0.0
H	0.023284	0.963599	-1.927601
C	-0.149402	-1.108072	-2.206727
N	0.077886	-2.068963	-2.83952
N	-0.486474	-1.227515	0.591295
H	-1.350327	-1.024838	1.078344
H	0.196941	-1.574619	1.250017
N	-0.503292	1.179889	0.736249
H	0.131007	1.306359	1.519636
H	-0.387698	2.01015	0.163128
Cl	3.41434	0.0	0.0
