14

C	-0.535044	-0.003819	-1.431257
C	0.0	0.0	0.0
F	-0.094219	-1.121463	-2.121274
H	1.101361	0.0	0.0
H	-1.629225	-0.051799	-1.377986
C	-0.177139	1.207137	-2.187124
N	0.050252	2.196519	-2.775966
N	-0.429747	-1.17651	0.728613
H	-1.392677	-1.408856	0.502137
H	0.165747	-1.954475	0.472564
N	-0.586916	1.179306	0.643772
H	-0.474574	1.018257	1.639004
H	-0.006117	1.982532	0.418981
Cl	3.477894	0.0	0.0
