12
Coordinates from ORCA-job run
  C   0.49406294809921      0.50543724435918     -0.17725018970711
  C   -0.48608078254506     -0.57909979584840      0.20747543064859
  Br  0.46224976455097      0.85004563571069     -2.07139687442304
  H   -0.36373594746145     -1.47798985471333     -0.38915273971487
  H   0.29659225923354      1.44236663501934      0.33662141534349
  H   -0.38962316794295     -0.80747489424843      1.27215890070856
  N   1.88205062637020      0.07744010433199      0.21278138420545
  O   2.15278031780666     -1.11297775432765      0.08676869235786
  O   2.62763886913994      0.96180670683979      0.61824582400793
  N   -1.87910187832972     -0.07633614471983      0.00771993155240
  O   -2.66068369300110     -0.81495899318787     -0.58087684216269
  O   -2.13414931592024      1.02974111078451      0.47690506718341
