12
Coordinates from ORCA-job run
  C   0.61168645224319      0.65710513100161      0.15631175896174
  C   -0.83293737196662      0.41756239421858     -0.19234057150421
  Br  1.21298895181895      2.28237519882404     -0.69144486167813
  H   -1.45729856553130      1.24064614298020      0.15790388727144
  H   0.79703066236734      0.73960009862836      1.22325015747547
  H   -0.97403116055500      0.27433735450498     -1.26085736343872
  N   1.47606587643890     -0.48001694790777     -0.32850712212736
  O   1.07138101248291     -1.11406457446537     -1.29677629528369
  O   2.52031739958780     -0.65642658205232      0.28383615008886
  N   -1.34303750595865     -0.82208189625757      0.47996729898305
  O   -0.64740378036999     -1.31459423266600      1.36545996891469
  O   -2.43476197055753     -1.22544208680874      0.10319699233688
