12
Coordinates from ORCA-job run
  C   0.53244939778388      0.36901927268670     -0.33612803694136
  C   -0.53027259310229     -0.42454772330928      0.38963019343278
  Br  0.51412431319236      0.01405171712828     -2.22813244668460
  H   -0.48463671650045     -1.48419827894864      0.15726565736031
  H   0.41875241170886      1.44028428360559     -0.19426962518838
  H   -0.44477447166657     -0.26133775123340      1.46722438858710
  N   1.88201962315356     -0.00234703278993      0.21380387149166
  O   2.69120939284340      0.91159913968833      0.32731045869658
  O   2.06117940323398     -1.18277150583124      0.49746732572688
  N   -1.87887976967645      0.08063581505137     -0.00866570057432
  O   -2.72173298096105     -0.75618150457230     -0.31247412281626
  O   -2.03943801000922      1.29779356852452      0.02696803690959
