12
Coordinates from ORCA-job run
  C   0.49673053018487      0.34386057285846     -0.46351658715922
  C   -0.46214079575481     -0.39633237905576      0.44579096165754
  Br  0.34626206892892     -0.23232102145966     -2.28092487143104
  H   -0.37838618173736     -1.47678394111726      0.34262003942840
  H   0.32579915947033      1.41677715212248     -0.42049102346655
  H   -0.30319674677977     -0.08072798901757      1.47935502095993
  N   1.88792922482561      0.12061350075463      0.10452530378725
  O   2.10653608796062      0.78862171812136      1.11184347085042
  O   2.63474242557921     -0.69331393477314     -0.41462889454388
  N   -1.86978032547971     -0.02493153904443      0.10490592652449
  O   -2.68388089420447     -0.93796308378441      0.02715645318072
  O   -2.09961455299343      1.17250094439532     -0.03563579978808
