12
Coordinates from ORCA-job run
  C   0.45420166802796      0.78870324348144     -0.04502344247256
  C   -0.79917426939806      0.09511260906567     -0.50703066010881
  Br  1.03811292833665      2.02730699117109     -1.40401151863533
  H   -1.59851504571367      0.81619937624522     -0.68321619486497
  H   0.33553871723232      1.33426808989938      0.88652906620884
  H   -0.62907445574665     -0.49535921165515     -1.40401890286405
  N   1.56084831971868     -0.20826150541728      0.19603248945539
  O   1.52011980938335     -1.25191264839353     -0.44609646382269
  O   2.41452330843312      0.12627096962911      1.00581511231604
  N   -1.30091531629448     -0.85077028862628      0.54322251247823
  O   -0.80577501560385     -0.76819559557572      1.66502799283197
  O   -2.19089064837538     -1.61436202982396      0.19477000947794
