12
Coordinates from ORCA-job run
  C   0.58709489342062      0.74502683211377      0.16534695847700
  C   -0.64726498063628      0.05509865464583      0.71690203705296
  Br  0.24013600779554      2.13795677974409     -1.10802193073423
  H   -1.31210956899764      0.79578358454208      1.16031979391516
  H   1.14173273454948      1.18504155516964      0.99194179767042
  H   -0.33409047301974     -0.68371151004033      1.45606196952745
  N   1.51604054199663     -0.28603429374927     -0.43115838060798
  O   1.16527718013220     -0.82149744611191     -1.47360886487199
  O   2.52968858354631     -0.52191442511123      0.22072483491353
  N   -1.43401049863659     -0.68534616634275     -0.31540144819415
  O   -1.30467220659852     -1.90663889294164     -0.33176024814985
  O   -2.14882221355200     -0.01376467191829     -1.05134651899833
