12
Coordinates from ORCA-job run
  C   0.60149037721086      0.67787484967714      0.09771793857433
  C   -0.84790089515310      0.38857570922573     -0.18726481002636
  Br  1.13678532224602      2.26348781139468     -0.86214963516327
  H   -1.02169812534601      0.18192751083651     -1.24045480261494
  H   0.82031199931900      0.82620748504534      1.15108423149342
  H   -1.47898808146901      1.21694304584288      0.13762412872794
  N   1.47494278462073     -0.46733229765018     -0.35066523104234
  O   2.54092483511608     -0.58889489688167      0.23715358269408
  O   1.05451336495716     -1.16230888410476     -1.26914098738352
  N   -1.30745063191474     -0.82107820857000      0.57109387265606
  O   -2.40173055180720     -1.26755942472214      0.25526828976135
  O   -0.57220039777980     -1.24784270009354      1.45873342232323
