12
Coordinates from ORCA-job run
  C   0.59557767624703      0.71681459696478      0.01530404394419
  C   -0.62892976566984      0.16460295182511      0.70793678578926
  Br  0.14797520856624      1.82836033376205     -1.47800374561987
  H   -0.32374709586945     -0.52076771560953      1.50009916274282
  H   1.15821428115301      1.32590678670860      0.72432481168507
  H   -1.24483285626030      0.96669061082380      1.10912901772483
  N   1.56121414238780     -0.40764500354199     -0.35329484644957
  O   2.00976892424249     -0.48067319505650     -1.48150959442007
  O   1.83363363024974     -1.12770214803919      0.60150121380995
  N   -1.49179735811003     -0.61857612224494     -0.22655130486855
  O   -0.91169219920920     -1.35978855736618     -1.01400365787659
  O   -2.70438458772749     -0.48722253822599     -0.10393188646145
