12
Coordinates from ORCA-job run
  C   0.50278969275032      0.44135717339510     -0.35976304418539
  C   -0.46928021105002     -0.49328068390449      0.33011574661287
  Br  0.38548603811112      0.31451949506503     -2.26400282231266
  H   -0.32885036567197     -0.43314392308861      1.41138441919347
  H   0.32531250261101      1.47335164876347     -0.06607026412294
  H   -0.38097918200505     -1.51794415658163     -0.02661577892103
  N   1.88730577771753      0.09392167560414      0.16452794484088
  O   2.05875277214042      0.44913374300666      1.32770498136449
  O   2.67669729417157     -0.50972773771949     -0.54351320477075
  N   -1.87168580017965     -0.04928972701780      0.06276966850772
  O   -2.68194538060767     -0.91627218451021     -0.24420841347533
  O   -2.10260313798762      1.14737467698783      0.20767076726866
