12
Coordinates from ORCA-job run
  C   0.58927763017553      0.72196151255603     -0.01565912378531
  C   -0.59810485011666      0.16362850252378      0.73434483426036
  Br  0.06544983513264      1.82060894470337     -1.49367397857112
  H   -0.25215615357656     -0.51443123274680      1.51599463721032
  H   1.17768796339602      1.34002485126775      0.66403806338475
  H   -1.20222448476326      0.96288554663810      1.15846032583065
  N   1.54695436541401     -0.39629375115349     -0.42081606421159
  O   1.94567463599038     -0.47254173530708     -1.56743074159359
  O   1.86910270386191     -1.10755545868647      0.52514299640265
  N   -1.49496175147984     -0.63311533538616     -0.15586677513067
  O   -2.70195201376704     -0.51192899158159      0.02036705982935
  O   -0.94374788026713     -1.37424285282745     -0.96390123362580
