12
Coordinates from ORCA-job run
  C   0.44029705931257      0.79813804938238     -0.00914841640752
  C   -0.86499005909459      0.14095558341753     -0.36972958252396
  Br  0.81432164205500      2.21037251189716     -1.26933349310809
  H   -1.68399386860925      0.86061456577961     -0.33336099415250
  H   0.45759959148693      1.21996881837111      0.99148187621475
  H   -0.82703944528688     -0.32672987506836     -1.35053900586091
  N   1.57328183423167     -0.19660949617463     -0.06003360749399
  O   2.53467334886184      0.05083096514395      0.65484230078966
  O   1.44330831300389     -1.15068921656247     -0.81909161418474
  N   -1.20363054951181     -0.94151421098657      0.61150696844307
  O   -2.13131974905712     -1.67560357488875      0.29987347448498
  O   -0.55050811739225     -0.98973412031095      1.65153209379925
