12
Coordinates from ORCA-job run
  C   0.57484456046488      0.73387249153745      0.00922228991704
  C   -0.59854540305876      0.12470096252701      0.74164234696216
  Br  0.02398830281865      1.87481404782348     -1.42614545537567
  H   -1.21727250960542      0.89572750750809      1.19587691292059
  H   1.15313397758896      1.33845781302065      0.70945808957725
  H   -0.23627310412740     -0.57413149498679      1.49712828463986
  N   1.55357560035332     -0.34980963933822     -0.43909379914017
  O   1.89138698628256     -1.08982051392582      0.47879170506019
  O   1.95009712511129     -0.37508531737082     -1.58866682052909
  N   -1.48241207597154     -0.65665664305093     -0.17484020321040
  O   -2.69087664529871     -0.56688334285987      0.00990199464355
  O   -0.91964681455785     -1.35518587088424     -1.01227534546531
