12
Coordinates from ORCA-job run
  C   0.59530128835118      0.71698843209635      0.00583156051610
  C   -0.60434462230837      0.15250774457817      0.73162341792478
  Br  0.09500737530855      1.85110811370975     -1.45351165716510
  H   -1.20596492804444      0.94787809421021      1.16648765461511
  H   1.18071964333811      1.31630643995577      0.70464679596851
  H   -0.27181498917628     -0.54450738392364      1.50232248029966
  N   1.54845079169154     -0.40012885192456     -0.41313967688843
  O   1.95853986402841     -0.45425111134187     -1.55694838734208
  O   1.85369550548864     -1.13509388464703      0.52003202326820
  N   -1.49838973902709     -0.61703202311399     -0.18452178804460
  O   -0.94511111232986     -1.34468442230679     -1.00326774238230
  O   -2.70608907732040     -0.49009114729239     -0.01755468076985
