17

C	-0.412829	-0.000726	-1.461033
C	0.0	0.0	0.0
Br	-2.353455	0.01392	-1.699955
H	1.095803	0.0	0.0
N	0.126001	1.115508	-2.148128
H	-0.175236	1.170918	-3.11325
H	1.139339	1.129019	-2.071247
N	0.120064	-1.328026	-2.117447
O	1.287695	-1.574338	-1.844256
O	-0.572065	-1.965196	-2.900438
C	-0.487827	-1.204204	0.796377
H	-0.092993	-1.141944	1.813546
H	-0.118792	-2.133527	0.355579
H	-1.578538	-1.239819	0.851156
C	-0.430799	1.24347	0.611611
N	-0.724591	2.237627	1.174268
Br	2.749734	0.0	0.0
