13

C	-0.513673	-0.030269	-1.417297
C	0.0	0.0	0.0
Cl	0.300173	1.229121	-2.377174
H	1.091359	0.0	0.0
H	-0.294511	0.962805	0.430884
N	-0.184081	-1.372306	-2.102804
O	0.753724	-2.007162	-1.647629
O	-0.876163	-1.660615	-3.075286
C	-1.958183	0.159742	-1.545207
N	-3.115428	0.363312	-1.56956
C	-0.574393	-1.077972	0.778936
N	-1.018261	-1.965066	1.41046
F	2.486716	0.0	0.0
