13

C	-0.488439	0.000932	-1.425839
C	0.0	0.0	0.0
Cl	0.351913	1.269188	-2.343815
H	1.091342	0.0	0.0
H	-0.296557	0.957143	0.445358
N	-0.161427	-1.339129	-2.128058
O	0.679766	-2.053226	-1.609361
O	-0.76787	-1.546539	-3.173767
C	-1.932097	0.199665	-1.571208
N	-3.089557	0.407034	-1.61183
C	-0.597667	-1.082462	0.757493
N	-1.09048	-1.944137	1.388759
F	2.495521	0.0	0.0
