13

C	-0.375909	0.043962	-1.463195
C	0.0	0.0	0.0
Cl	0.180556	-1.391751	-2.32021
H	1.092837	0.0	0.0
H	-0.328772	0.93395	0.466214
N	-1.918871	0.152384	-1.602693
O	-2.369847	1.264389	-1.346105
O	-2.563643	-0.852595	-1.856712
C	0.178438	1.235143	-2.104855
N	0.594806	2.19537	-2.638214
C	-0.583884	-1.134663	0.678713
N	-1.038554	-2.049499	1.261512
F	2.478783	0.0	0.0
