13

C	-0.242747	0.013874	-1.479079
C	0.0	0.0	0.0
Cl	-1.964043	0.281032	-1.973602
H	1.09461	0.0	0.0
H	-0.356603	0.935423	0.43264
N	0.527944	1.21279	-2.064031
O	0.38207	2.271335	-1.474543
O	1.172712	1.023377	-3.084767
C	0.223028	-1.202647	-2.134333
N	0.534622	-2.213449	-2.645596
C	-0.593492	-1.146842	0.640324
N	-1.064134	-2.076118	1.186591
F	2.470748	0.0	0.0
