13

C	-0.460304	-0.017843	-1.439212
C	0.0	0.0	0.0
Cl	0.326385	1.268622	-2.372473
H	1.091209	0.0	0.0
H	-0.343394	-0.913109	0.495502
N	-0.073551	-1.362408	-2.103171
O	-0.492427	-1.529567	-3.244478
O	0.603133	-2.137713	-1.447387
C	-1.909447	0.091794	-1.620209
N	-3.078864	0.1913	-1.690223
C	-0.524499	1.164224	0.686197
N	-0.925307	2.105907	1.264453
F	2.492225	0.0	0.0
