17

C	-0.409745	0.210245	-1.470761
C	0.0	0.0	0.0
Cl	-0.084265	-1.468227	-2.262556
H	1.089073	0.0	0.0
C	-1.886047	0.463912	-1.70161
H	-2.154757	1.432118	-1.281996
H	-2.097114	0.464281	-2.773678
H	-2.481874	-0.325943	-1.240778
N	0.423766	1.20278	-2.012894
H	0.282266	1.311205	-3.008792
H	1.403931	1.014404	-1.807348
C	-0.547783	-1.210217	0.594086
N	-1.020858	-2.174201	1.070671
N	-0.388042	1.145257	0.91995
O	-0.72412	2.22168	0.440613
O	-0.286984	0.903181	2.118404
Cl	3.178855	0.0	0.0
