17

C	-0.475471	0.063852	-1.455805
C	0.0	0.0	0.0
Cl	0.293705	1.562588	-2.19888
H	1.092533	0.0	0.0
C	0.130453	-1.119554	-2.193361
H	-0.317632	-2.045121	-1.825552
H	1.210261	-1.138031	-2.036299
H	-0.07453	-1.023151	-3.262437
N	-1.89469	0.065844	-1.564068
H	-2.164842	0.016345	-2.538771
H	-2.269149	0.913719	-1.157285
C	-0.485005	-1.218465	0.640719
N	-0.873684	-2.208829	1.140418
N	-0.445044	1.144459	0.877592
O	0.012095	1.143877	2.014076
O	-1.226549	1.981406	0.423802
Cl	3.193477	0.0	0.0
