17

C	-0.428241	0.057148	-1.479006
C	0.0	0.0	0.0
Cl	-2.235097	0.582413	-1.515021
H	1.09264	0.0	0.0
C	0.358507	1.067661	-2.287808
H	0.084097	0.970636	-3.342331
H	1.420356	0.84975	-2.147147
H	0.154785	2.081575	-1.960358
N	-0.257211	-1.23297	-2.023848
H	-0.407739	-1.231021	-3.023174
H	-0.840102	-1.931289	-1.581761
C	-0.521967	-1.189521	0.655513
N	-0.916067	-2.192448	1.12345
N	-0.418273	1.214638	0.775718
O	-0.023328	2.29328	0.350257
O	-1.096343	1.053725	1.786898
Cl	3.196832	0.0	0.0
