17

C	-0.367965	0.040525	-1.499898
C	0.0	0.0	0.0
Cl	-0.16678	-1.753214	-2.058458
H	1.108709	0.0	0.0
C	-1.813239	0.373964	-1.808401
H	-2.007626	1.407153	-1.522286
H	-2.483948	-0.301264	-1.275771
H	-1.994743	0.257764	-2.879768
N	0.54453	0.88132	-2.150453
H	0.451496	0.839716	-3.155813
H	1.504222	0.695888	-1.862939
C	-0.574445	-1.115362	0.731627
N	-1.074532	-1.998571	1.32215
N	-0.36683	1.264368	0.753333
O	-0.393667	1.163049	1.976236
O	-0.544543	2.302415	0.125075
Cl	3.177761	0.0	0.0
