12
Coordinates from ORCA-job run
  C   1.05778546189443     -0.53979247201730     -0.32884707443829
  C   -0.15283542049651     -0.05375326843904      0.00146213196163
  H   1.14851398542449     -1.61201820557221     -0.47808734554574
  C   2.25570052990138      0.21778930881442     -0.47721686737489
  N   3.29299417336979      0.75713195892256     -0.61263237674488
  N   -0.31500135528351      1.39114757607488      0.24643194356175
  O   -1.10057753499927      1.69528194783604      1.14338329325948
  O   0.32658395294459      2.17194483959425     -0.45134305833366
  C   -1.38892194749947     -0.85907809802127      0.20076959960515
  H   -1.20850726965067     -1.90127095708376     -0.06326201644997
  H   -1.71520383195060     -0.79860395781128      1.23996289146215
  H   -2.19953074365466     -0.46877867229730     -0.41962112096275
