12
Coordinates from ORCA-job run
  C   1.12258725548963     -0.38786529431697      0.32840790810443
  C   -0.14607896548531     -0.02386471619633      0.06589870408813
  H   1.28123906851154     -1.18009940349510      1.05460970233343
  C   2.29408901199010      0.14967138477632     -0.27951976411763
  N   3.31379152515154      0.52516698522752     -0.73164842867311
  N   -0.40991560016482      1.02386426078924     -0.93744582267195
  O   0.37012336220045      1.96999307177878     -1.00489851278990
  O   -1.41352956502962      0.85867495383542     -1.62999047650782
  C   -1.36647358174640     -0.62410178599986      0.67130967741447
  H   -1.99486110373850      0.15548479689912      1.10912565800830
  H   -1.95808372138530     -1.12875612069410     -0.09377937636088
  H   -1.09188768579332     -1.33816813260405      1.44793073117252
