12
Coordinates from ORCA-job run
  C   1.07963301251353     -0.57428590609845     -0.14971104362506
  C   -0.14550873028545     -0.05344271156654      0.04750131198576
  H   1.16802346999848     -1.65611151116779     -0.19376484549406
  C   2.28539075938868      0.16155807254339     -0.33938448702390
  N   3.32426316536997      0.68229909029384     -0.52552734827115
  N   -0.31837209410151      1.41017807349665      0.08135879004694
  O   0.56845187210648      2.08601304436782      0.59617838782302
  O   -1.36116329059290      1.83600938499632     -0.41414696982990
  C   -1.40654224404573     -0.83095316522681      0.19521474554327
  H   -2.07866269399646     -0.62181494840497     -0.63819739975987
  H   -1.19064108549888     -1.89898627013233      0.22853298042829
  H   -1.92487214085619     -0.54246315310111      1.11294587817665
