12
Coordinates from ORCA-job run
  C   1.13893518219275      0.12985490173325     -0.56418940946716
  C   -0.10715581409897      0.24095086609348     -0.06689136694930
  H   1.56938975089094      0.94417543015203     -1.13702790074683
  C   1.91586095395143     -1.04449138446366     -0.35505517185958
  N   2.56176155199715     -2.01389014861816     -0.18504869515486
  N   -0.81664865671717      1.51341617259299     -0.35057093504158
  O   -1.95118304186539      1.61203162092359      0.11656938340654
  O   -0.24312091283105      2.37009171280357     -1.01636188269015
  C   -0.86676545136673     -0.75279595209300      0.73613088240183
  H   -1.13768835768364     -0.33005100231627      1.70531337352003
  H   -0.26617686829523     -1.64978136577542      0.88737716884725
  H   -1.79620833617410     -1.01951085103242      0.22975455373381
