12
Coordinates from ORCA-job run
  C   1.15440076551784      0.16549864354262     -0.52074340048693
  C   -0.09966823664505      0.25002222288827     -0.03854394487438
  H   1.61735132742695      1.03017759091903     -0.98385838379438
  C   1.89850806125556     -1.04530561557951     -0.43786190364649
  N   2.51808808484642     -2.04420191149155     -0.37289969094207
  N   -0.77201273173937      1.56528097208012     -0.18487554519119
  O   -1.92015207611983      1.63394924494830      0.25356348411871
  O   -0.15765505715520      2.48293416471412     -0.72008408694413
  C   -0.90201368248828     -0.81147869252052      0.62382984757462
  H   -0.32495168774891     -1.73436266972243      0.68413074090777
  H   -1.82233850395239     -0.99510169766317      0.06649134058207
  H   -1.19055626319774     -0.49841225211529      1.62885154269640
