12
Coordinates from ORCA-job run
  C   1.22902340743640      0.21716293357268     -0.27191653545777
  C   -0.09810829065254      0.24876063704173     -0.04844350613591
  H   1.74547590325704      1.11244432451948     -0.60098944564253
  C   1.98219490498803     -0.97624629054601     -0.08473284486086
  N   2.60993883411942     -1.96027645134832      0.06845391530721
  N   -0.77205786856943      1.55131503400227     -0.27914661961932
  O   -1.98720028544793      1.56976745376860     -0.08391935908298
  O   -0.09399712606333      2.50735649526826     -0.64246913220630
  C   -0.98002816944772     -0.86020593105033      0.40068165810336
  H   -1.76303674234053     -1.04501855231668     -0.33707427955233
  H   -0.39563628942295     -1.76922586786571      0.54391562893333
  H   -1.47556827785646     -0.59583378504598      1.33664052021411
