12
Coordinates from ORCA-job run
  C   1.09098102946072     -0.57150339272301     -0.03258086816579
  C   -0.15174236486891     -0.05538221900118     -0.01389378639689
  H   1.19247895752320     -1.64874255509228      0.06413323983625
  C   2.30605994880885      0.16598981710929     -0.13642279376462
  N   3.35894572482644      0.68835356608810     -0.19589129662756
  N   -0.33575774418185      1.40451177273651     -0.10792853730722
  O   0.42703662646773      2.03900022400056     -0.83151474834457
  O   -1.26120881021483      1.86923569639484      0.55675099212864
  C   -1.41277966594886     -0.83059480142120      0.14476575029490
  H   -1.20265995323768     -1.90027259587551      0.13708335371047
  H   -2.10651464850811     -0.59692104330263     -0.66658762758908
  H   -1.90483910012671     -0.56367446891351      1.08108632222545
