12
Coordinates from ORCA-job run
  C   1.23697869305808      0.22790078162309     -0.22347112956123
  C   -0.09372077137392      0.25507146092376     -0.02101420236638
  H   1.77248843255444      1.14622752452768     -0.43886904304087
  C   1.97028916830384     -0.99035786877780     -0.15228398629743
  N   2.58182585129630     -1.99427360859726     -0.08891075307380
  N   -0.74663979935106      1.58394650157311     -0.12127987275720
  O   -0.04334867585056      2.57077194920324     -0.31521493594357
  O   -1.97138050886278      1.59203848184913      0.00206310159048
  C   -0.99877931253273     -0.88427360826964      0.28200331706328
  H   -0.42706765466176     -1.80975096905092      0.35140766651430
  H   -1.75615386393757     -0.98450724289354     -0.49774970751101
  H   -1.52549155864227     -0.71079340211083      1.22231954538344
