12
Coordinates from ORCA-job run
  C   1.10330229112652     -0.53430453532269     -0.12309393709110
  C   -0.13629764934852     -0.04854686103025      0.07309402792501
  H   1.26974491487433     -1.58958690014464      0.07410444637619
  C   2.22818265165889      0.19985318620758     -0.59919936197876
  N   3.20432760211347      0.71713804270791     -1.00489246553604
  N   -0.41665103625230      1.37015883773796     -0.21376099262788
  O   -1.52722908161490      1.60942417611286     -0.68662541025748
  O   0.45678277006470      2.19554752921802      0.03921570716144
  C   -1.31691860737527     -0.83550892737466      0.52388043949298
  H   -2.07284607133408     -0.86616694248577     -0.26204307368918
  H   -1.01834864337276     -1.85200515203385      0.78082943446875
  H   -1.77404914054010     -0.36600245359247      1.39849118575607
