12
Coordinates from ORCA-job run
  C   1.11349825855211      0.10753463953448     -0.61717438936693
  C   -0.10440341405371      0.24352252108995     -0.05985615773356
  H   1.53128793574229      0.91379242668144     -1.21048814799491
  C   1.87512788498867     -1.08326046169133     -0.44781841981274
  N   2.50886520892006     -2.06599293991377     -0.31131585785735
  N   -0.80120573482020      1.53042240475456     -0.30997360963331
  O   -0.24426426453764      2.37463438759843     -1.00495875488012
  O   -1.90935690391078      1.65183854003850      0.21190357340587
  C   -0.84565486575903     -0.73572422923523      0.77732469654168
  H   -1.06785463816040     -0.30723776002053      1.75628186343561
  H   -1.80081592941395     -0.98533655541865      0.31163426212572
  H   -0.25522353754742     -1.64319297341784      0.90344094177005
