12
Coordinates from ORCA-job run
  C   1.15160579636989      0.14448361942484     -0.53424358130404
  C   -0.09904308072387      0.24940299984342     -0.04698635203008
  H   1.61247262140512      0.98939136758561     -1.03466353532969
  C   1.89714353350465     -1.06100200304523     -0.40181114417691
  N   2.51694779367849     -2.05606168261524     -0.29335432909402
  N   -0.77510397464365      1.55511157199660     -0.24822771823122
  O   -1.94324070286021      1.62008348088027      0.13435910099306
  O   -0.14428317413171      2.46872867478442     -0.77090872272886
  C   -0.89688856998823     -0.78450777714265      0.66298625964738
  H   -0.31315566263464     -1.69853396832912      0.77249712499271
  H   -1.81274072324007     -1.00275558850109      0.11085447283769
  H   -1.19371385673576     -0.42334069488183      1.64949842442397
