12
Coordinates from ORCA-job run
  C   1.10355156627732     -0.51855630241947     -0.03934018524454
  C   -0.15010496034104     -0.02871883572251      0.03426140727391
  H   1.24457009348197     -1.54988884666051      0.27247787081029
  C   2.28366115014591      0.15036892784108     -0.47447353518289
  N   3.32798860550909      0.58172946423978     -0.80445662531835
  N   -0.44055702178461      1.36523400317983     -0.36500181409267
  O   0.47846172293188      2.05306298606155     -0.79902594980223
  O   -1.60834084307223      1.73136132945861     -0.22638699386739
  C   -1.33057257424682     -0.80292953806861      0.51013886479901
  H   -1.77886842403654     -0.31948857297276      1.37973105341488
  H   -1.03145640392481     -1.81689426535913      0.77553787507857
  H   -2.09833291094012     -0.84428034957788     -0.26446196786858
