12
Coordinates from ORCA-job run
  C   1.11935335967713     -0.51216141052524     -0.05421497363884
  C   -0.13970221479449     -0.05163043629501      0.06384932823260
  H   1.40553864881213     -1.36370886931502      0.55654626064771
  C   2.13806490021951      0.03119562082512     -0.88979303451160
  N   3.04532333681357      0.42174177243196     -1.52960443082232
  N   -0.56290447088518      1.12253972833682     -0.72092212173978
  O   -0.12222937880961      1.24639346103757     -1.86051075964606
  O   -1.34207405999447      1.88934167435048     -0.15607358799460
  C   -1.18229189559193     -0.59626961244485      0.97648917244649
  H   -2.08940642372679     -0.83534936744715      0.41592025818081
  H   -0.82000954805246     -1.49860949913083      1.46932076033297
  H   -1.45066225366741      0.14651693817614      1.72899312851261
