12
Coordinates from ORCA-job run
  C   1.10223357165023     -0.46078855015147     -0.30068377602517
  C   -0.14307803172980     -0.07065067614962      0.02830809439444
  H   1.23560086981610     -1.47809972237052     -0.65759723024645
  C   2.27541130982395      0.34717173778566     -0.25637019171794
  N   3.29122072414806      0.94119811154070     -0.27263514757074
  N   -0.37676171910928      1.31114534119212      0.48610337999328
  O   -1.43774737749591      1.82021028298518      0.12643162253564
  O   0.48244916793273      1.84277666686612      1.18417820467624
  C   -1.37020221924714     -0.90811737345129     -0.06863440687433
  H   -1.10999427644131     -1.92994470529555     -0.34528270063822
  H   -1.89723988793232     -0.92070669617495      0.88862519897414
  H   -2.05289213141531     -0.49319441677638     -0.81144304750088
