12
Coordinates from ORCA-job run
  C   1.21202721737285      0.22902029311089     -0.33134937557371
  C   -0.10657626382775      0.24394484309212     -0.06037685957802
  H   1.69420592180856      1.11078946734482     -0.73823294730974
  C   2.00502445499285     -0.92633371169725     -0.07861794306091
  N   2.66248735906567     -1.88107258805731      0.12645743312846
  N   -0.82597066662779      1.50502353417235     -0.36972021081492
  O   -0.17602659930325      2.47536555919429     -0.74585213018954
  O   -2.04781022403456      1.47608228596034     -0.22351362743455
  C   -0.93967047524803     -0.85251972587632      0.49912258968429
  H   -1.43089258308403     -0.52700617946439      1.41816112748609
  H   -0.31907077502488     -1.72392510277268      0.70843712793488
  H   -1.72672736608965     -1.12736867500686     -0.20551518427233
