12
Coordinates from ORCA-job run
  C   1.06332995382430     -0.44998447585163     -0.42985676484201
  C   -0.15093314536159     -0.05920217954979     -0.00079484959965
  H   1.19026757870381     -1.49257636212513     -0.70721887018019
  C   2.22393877400139      0.37108119319282     -0.52893495906917
  N   3.23572005936530      0.96484367020586     -0.62321477824652
  N   -0.36016036198311      1.33831741198192      0.41937760860252
  O   0.22567099507893      2.22273228885642     -0.19925834151648
  O   -1.12399784936118      1.50085012783095      1.37032665914761
  C   -1.34469692454395     -0.93682328304922      0.14580248685371
  H   -2.19492670248982     -0.51339789617771     -0.39463011622166
  H   -1.63089632758535     -1.01300341438899      1.19573892882779
  H   -1.13331604964873     -1.93183708092551     -0.24633700375594
