17

C	-0.513263	-0.017186	-1.426185
C	0.0	0.0	0.0
F	-1.885446	-0.147768	-1.45446
H	1.092695	0.0	0.0
N	-0.216591	1.333192	-2.064335
O	0.919138	1.760681	-1.923238
O	-1.111825	1.854021	-2.724031
C	0.125362	-1.083439	-2.276232
H	1.212009	-0.988477	-2.201212
H	-0.178296	-2.060869	-1.896187
H	-0.212261	-0.985088	-3.310851
C	-0.441139	-1.226881	0.656457
N	-0.799536	-2.204527	1.204195
N	-0.419032	1.215018	0.692429
H	0.393005	1.558078	1.197164
H	-1.168534	1.037244	1.347115
H	2.685658	0.0	0.0
