17

C	-0.390313	0.2003	-1.443528
C	0.0	0.0	0.0
F	-0.247866	-0.981124	-2.138373
H	1.105792	0.0	0.0
N	-1.89412	0.50521	-1.586324
O	-2.272164	0.934878	-2.674646
O	-2.630918	0.26183	-0.632196
C	0.418035	1.280493	-2.097353
H	1.469394	1.042238	-1.904352
H	0.201766	1.314891	-3.164391
H	0.187714	2.238143	-1.632506
C	-0.478998	-1.260704	0.555237
N	-0.832521	-2.257854	1.069425
N	-0.345026	1.185331	0.776183
H	0.421004	1.355151	1.421345
H	-1.204903	1.048442	1.290293
H	2.675556	0.0	0.0
