17

C	-0.383466	-0.162114	-1.448962
C	0.0	0.0	0.0
F	-0.17167	-1.464274	-1.842886
H	1.106515	0.0	0.0
N	-1.896922	0.025455	-1.670572
O	-2.627433	0.131329	-0.687021
O	-2.284459	0.02317	-2.837361
C	0.37844	0.77227	-2.341251
H	0.165617	0.543203	-3.385069
H	1.438439	0.629761	-2.105429
H	0.104139	1.800865	-2.111597
C	-0.477598	-1.094975	0.837254
N	-0.832567	-1.948574	1.564329
N	-0.343648	1.334831	0.472447
H	0.415528	1.646433	1.070797
H	-1.2123	1.328103	0.989486
H	2.670543	0.0	0.0
