17

C	-0.521842	0.176891	-1.423708
C	0.0	0.0	0.0
F	-0.055258	1.359353	-1.905494
H	1.097699	0.0	0.0
N	0.036737	-0.906084	-2.336194
O	-0.07871	-2.060779	-1.932836
O	0.474135	-0.565165	-3.426753
C	-2.024218	0.149708	-1.56568
H	-2.42287	0.924956	-0.9104
H	-2.419621	-0.823031	-1.272813
H	-2.298072	0.370348	-2.600429
C	-0.519428	-1.187684	0.654403
N	-0.958983	-2.07679	1.288256
N	-0.373069	1.210683	0.756404
H	0.513205	1.637845	1.026165
H	-0.861735	0.956597	1.606046
H	2.653648	0.0	0.0
