17

C	-0.309336	0.071299	-1.495628
C	0.0	0.0	0.0
F	0.032757	-1.117436	-2.069055
H	1.096487	0.0	0.0
N	-1.814027	0.210408	-1.719353
O	-2.450086	-0.760518	-2.113344
O	-2.297987	1.311911	-1.438729
C	0.423048	1.190403	-2.184537
H	1.48151	1.057597	-1.937262
H	0.265265	1.123268	-3.263689
H	0.081587	2.158385	-1.824516
C	-0.554996	-1.220053	0.575454
N	-0.988398	-2.205506	1.048191
N	-0.339442	1.16872	0.790331
H	0.478803	1.768322	0.810983
H	-1.13803	1.668436	0.42327
H	2.653778	0.0	0.0
