17

C	-0.48276	-0.209291	-1.423346
C	0.0	0.0	0.0
F	-1.811495	-0.575925	-1.461515
H	1.107386	0.0	0.0
N	-0.401956	1.126248	-2.1464
O	-1.427656	1.569574	-2.652903
O	0.707524	1.636988	-2.194105
C	0.358308	-1.208424	-2.171691
H	0.203927	-2.193067	-1.72578
H	0.061783	-1.242293	-3.22306
H	1.409817	-0.930288	-2.057108
C	-0.376367	-1.166174	0.794529
N	-0.646693	-2.087314	1.474869
N	-0.438266	1.265571	0.567143
H	0.347727	1.64808	1.083927
H	-1.225954	1.149923	1.189778
H	2.665584	0.0	0.0
