17

C	-0.505138	-0.048066	-1.440551
C	0.0	0.0	0.0
F	-0.037824	1.050807	-2.091048
H	1.109588	0.0	0.0
N	0.087807	-1.25375	-2.159738
O	0.688671	-1.069262	-3.209722
O	-0.149063	-2.343213	-1.644336
C	-2.004446	-0.111352	-1.601278
H	-2.419867	0.756164	-1.087035
H	-2.398134	-1.028753	-1.164524
H	-2.262381	-0.063651	-2.662782
C	-0.51041	-1.081888	0.819211
N	-0.92744	-1.887356	1.569956
N	-0.382018	1.309776	0.560406
H	0.500852	1.786446	0.740947
H	-0.845581	1.183252	1.450814
H	2.638758	0.0	0.0
