17
Coordinates from ORCA-job run
  C   0.70810943453137      0.26307888417934      0.40953946112888
  C   -0.54728526519716     -0.05747879951697     -0.41453138931177
  Cl  1.21165970407945     -1.14227667327064      1.44328371143941
  H   -0.53458789249889      0.61645375408779     -1.27072719911420
  N   0.60234878216887      1.48921452576270      1.08616664396685
  H   -0.07217560604299      1.42514000153870      1.83764075852946
  H   1.50649564822799      1.76839420539501      1.44818093767497
  N   1.89199853935116      0.43390314755917     -0.56316771200450
  O   2.88245280038451      0.98128678593016     -0.10066976940094
  O   1.76632990323405      0.00210692225827     -1.70231206163681
  N   -1.77736535664900      0.33866899636426      0.35115202238136
  O   -2.70178930961537      0.79238498177760     -0.31489075454974
  O   -1.80467630974122      0.11710634619562      1.56112772188025
  C   -0.74331579988332     -1.49686472949720     -0.85635810330059
  H   -0.94263779635521     -2.13782864068959      0.00183088050591
  H   -1.59102482244907     -1.53956890486323     -1.54252320640576
  H   0.14546334645483     -1.85272080321099     -1.37274194178277
