17
Coordinates from ORCA-job run
  C   0.63654117147453      0.50451746289769      0.33100890006333
  C   -0.67271893051543     -0.27376803967438      0.28815374197402
  Cl  0.33528851248887      1.92906398113806      1.45876770536575
  H   -1.01634403701562     -0.44687727053912      1.30777030362433
  N   1.12969748693442      0.85727122782131     -0.92397370218467
  H   2.10914369070949      1.10937781904762     -0.87805822490568
  H   0.58522248605273      1.59146031947174     -1.35437302226304
  N   1.70858874164680     -0.29114213745953      1.08364120313505
  O   2.86779038921508     -0.11654316693271      0.73774946040294
  O   1.31241200180892     -0.98522140394661      2.00671122986263
  N   -0.45568399308447     -1.66149003233738     -0.27746280136820
  O   0.67447621183834     -2.00548850601774     -0.60413405403542
  O   -1.46791294810708     -2.35055965100403     -0.35301710200234
  C   -1.73644775176377      0.41332928160362     -0.55128275112181
  H   -1.43883504382623      0.43103884452915     -1.60148393849944
  H   -2.67140001617488     -0.13782628345567     -0.47113930429684
  H   -1.89981797168169      1.43185755485798     -0.19887764375062
