17
Coordinates from ORCA-job run
  C   0.47878760462824      0.62029694012034      0.46216579277416
  C   -0.73330966411304     -0.25654320460195      0.14703773193953
  Cl  -0.07394660861790      1.96560327673569      1.49113933661812
  H   -1.26142445159804     -0.46841261155657      1.07442707471107
  N   1.13818687989624      1.13500680443206     -0.66109276110975
  H   1.49044593856147      0.36956721783887     -1.22423156662853
  H   1.90216837349250      1.73913001610938     -0.38550572857801
  N   1.42186609939033     -0.19995668080203      1.40822345731909
  O   0.88984651587298     -1.00256078302289      2.16451839732298
  O   2.61484918672119      0.05564269950946      1.32802334472073
  N   -0.29262354314761     -1.60576177102792     -0.34784062402072
  O   0.78989194049464     -1.68277466451087     -0.93113419616248
  O   -1.07839543360700     -2.52792983810730     -0.17592513110523
  C   -1.65066318008038      0.35081177334008     -0.89938951812668
  H   -1.12642759527568      0.47141252963445     -1.84691798736374
  H   -2.51904353512081     -0.29545401990997     -1.03520870726181
  H   -1.98920852749714      1.33192231581916     -0.56728891504873
