17
Coordinates from ORCA-job run
  C   0.74841723997468      0.14756537313173      0.44171233028866
  C   -0.63742529998084     -0.08314886688380     -0.17890205003372
  Cl  1.65793701647687     -1.33047199320386      0.70523241859956
  H   -1.04007031743542      0.90594849609280     -0.40703979827283
  N   0.64794283268011      0.86561566626988      1.64413734144836
  H   1.54845228777366      1.03055361767687      2.07392611842091
  H   0.13288973072308      1.72882428161265      1.52860941753293
  N   1.49242942140740      0.97579725298954     -0.68505700731199
  O   2.31718541745141      0.43765729592165     -1.40659955332162
  O   1.11696669369871      2.14394829974971     -0.74474571636288
  N   -1.54143600555237     -0.60852874773382      0.89877195636618
  O   -1.50666298223950     -1.81264926315804      1.12956717876190
  O   -2.24719902503464      0.22065698672255      1.46865355161308
  C   -0.66182078538001     -0.98925409647536     -1.38907083101724
  H   -0.31903199011498     -1.98843068022782     -1.12927172220375
  H   -1.68180449202413     -1.05639396091773     -1.77167572851247
  H   -0.02576974242404     -0.58768966156694     -2.17924790599509
