17
Coordinates from ORCA-job run
  C   0.59078851041258      0.57218523718385      0.51392125102218
  C   -0.68970897577936     -0.22817255520146      0.20557454463359
  Cl  0.09826688175811      1.90751366662403      1.58385198748490
  H   -1.21754279719951     -0.43566935262519      1.13385114282736
  N   1.36749306060795      1.10045198300165     -0.53332639257050
  H   0.92726364285323      1.89318974259826     -0.97634396579860
  H   1.62698323170406      0.38272663201050     -1.19632649457833
  N   1.48953433027775     -0.36108690190723      1.37207920373304
  O   0.89441780501293     -1.00440625492437      2.22967309547705
  O   2.68431406816674     -0.38461092186714      1.13280744938053
  N   -0.33240270478095     -1.58233591321187     -0.33674342137590
  O   0.71924276541758     -1.68502653341077     -0.97120250465646
  O   -1.14590682638736     -2.47805493912066     -0.14894044639829
  C   -1.58312366089665      0.45192687624621     -0.81514530246468
  H   -1.86645993419915      1.44521964926638     -0.46584105752405
  H   -1.07219943003604      0.54096229620458     -1.77550199707297
  H   -2.49095996693192     -0.13681271086677     -0.95338709211887
