14
Coordinates from ORCA-job run
  C   0.78521556109465     -0.38086555464809      0.11813343900980
  C   -0.34400399496590      0.59295485248885      0.46672818861497
  F   1.70229902941344     -0.41066400108032      1.11572302347566
  H   0.14760016145227      1.55970014895610      0.61188317908069
  C   0.28252300160761     -1.72341355238973     -0.16934293944387
  N   -0.19546211912545     -2.78299634589508     -0.34067005244353
  N   1.48568752156497      0.18623297518146     -1.12048181966088
  O   1.96972671077933      1.29690731909087     -0.95488014188729
  O   1.50932613019374     -0.50132100961871     -2.12976570777928
  C   -0.96855213446335      0.18041790417037      1.73447018638919
  N   -1.52350349219939     -0.15124108053242      2.71554189439108
  N   -1.22566589415870      0.67222011495113     -0.67701380084250
  H   -1.72805941698085      1.54939857769449     -0.68812590692390
  H   -1.89613106421240     -0.08733034836893     -0.68419954198014
