14
Coordinates from ORCA-job run
  C   0.76925582246368     -0.04479850516147     -0.13028441248918
  C   -0.70281352364457      0.02320329890067      0.29301473436525
  F   1.27424450359039      1.20394230697777     -0.22396188506850
  H   -1.06492251617537     -1.00596283729811      0.36154240759544
  C   1.56138843580273     -0.85557319677489      0.79313753278199
  N   2.20769147599508     -1.51479279755146      1.51927824145419
  N   0.83875296148465     -0.69976457231087     -1.51580870943076
  O   1.28753800690648     -0.03269061968087     -2.43084468614847
  O   0.39903174619412     -1.84188601405649     -1.54542915592922
  C   -1.47015519665702      0.72121849799049     -0.75810775943340
  N   -2.10378859042795      1.31297790931596     -1.55111462016986
  N   -0.74930538365245      0.63792966861975      1.60031364946794
  H   -0.61397806657978      1.63898056559137      1.53501449757803
  H   -1.63493967530000      0.45621629543816      2.05325016542655
