14
Coordinates from ORCA-job run
  C   0.77474999669091     -0.40749869931962     -0.08774911143267
  C   -0.21521908916503      0.54589927428457      0.58701755514162
  F   1.87517362463711     -0.56563318011376      0.68786605848088
  H   0.33735131225761      1.48031426579937      0.72472037420680
  C   0.16762943022207     -1.70014349589823     -0.40078871066212
  N   -0.37503034379594     -2.72704804305717     -0.57868957150667
  N   1.23062303900222      0.27680327608141     -1.38044278903617
  O   1.02004747276273     -0.29827059480564     -2.43734932730617
  O   1.78398228447197      1.35333404785941     -1.20648276822240
  C   -0.58372998677303      0.01048819572503      1.90798202204215
  N   -0.94165799079965     -0.41652360981885      2.94236160143808
  N   -1.30843270387145      0.76894582868467     -0.33326739361166
  H   -1.99835214493245      0.02885606994459     -0.27797200513991
  H   -1.76513490070707      1.65147666463422     -0.14720593439176
