14
Coordinates from ORCA-job run
  C   0.72950617200967     -0.31873799440139      0.13797306522656
  C   -0.41974740308363      0.62871749174215      0.53020493240623
  F   1.69242529803140     -0.32688278192908      1.09700773537231
  H   0.04232181419126      1.60766028450826      0.68806180725661
  C   0.24741137956538     -1.67209919526874     -0.13445368658770
  N   -0.22681488381906     -2.73005836476819     -0.32616916019245
  N   1.42213384579813      0.21493066764250     -1.12423663023515
  O   1.99644025661418     -0.61248581139602     -1.81965798039543
  O   1.40292984279112      1.43091470366155     -1.27983961514801
  C   -0.96337860014674      0.15486803606944      1.80868165902572
  N   -1.39844895263578     -0.24494011192609      2.82289400385274
  N   -1.46516650674005      0.75838869795549     -0.44890843898728
  H   -1.91387819919388     -0.12073266213333     -0.67011133267743
  H   -1.14673406338199      1.22945704024345     -1.28344635891672
