14
Coordinates from ORCA-job run
  C   0.76986781120485     -0.42722129140641     -0.00683565630962
  C   -0.30179018797725      0.47695188721604      0.60863368031098
  F   1.71488955084540     -0.73001444450961      0.91643284924312
  H   0.23815819933273      1.36125925835483      0.96029245697854
  C   0.19674890189110     -1.64192693517869     -0.58476806955681
  N   -0.33306468244042     -2.61150089931990     -0.98456999362842
  N   1.45784150325394      0.39327178447714     -1.10263873190141
  O   1.99607776439593      1.41375837539097     -0.69741840488641
  O   1.42128361320043     -0.03441644841507     -2.24614890822947
  C   -0.90862254185777     -0.20325371038501      1.76469233158130
  N   -1.44939377162228     -0.74012599704573      2.65894488434116
  N   -1.21110733292858      0.86159346456043     -0.44847478363826
  H   -1.91410426097032      0.15015445209587     -0.61128399237010
  H   -1.67678456632775      1.73147050416513     -0.22785766193460
