14
Coordinates from ORCA-job run
  C   0.76956070204692     -0.41963905082691     -0.07864158450679
  C   -0.25416091873223      0.46415603634850      0.63940319023945
  F   1.79214255653114     -0.72572744102011      0.75676588577323
  H   0.30666757881940      1.34802253711524      0.95803721874564
  C   0.16258618425390     -1.63189115578366     -0.62608318405368
  N   -0.38649778686155     -2.60182654047877     -0.99802606285025
  N   1.35463372113327      0.42447951399117     -1.21589389603582
  O   1.22382781073117      0.01436179211239     -2.35889368764527
  O   1.91549113762693      1.44461934806841     -0.84187149204107
  C   -0.75351177475431     -0.23906244080698      1.83250861188815
  N   -1.20800449500966     -0.79304750058226      2.76361834965474
  N   -1.25359175810183      0.85574855871301     -0.32997635933429
  H   -1.70358128836916      1.71942658772237     -0.05833157362892
  H   -1.96356166931399      0.14137975542760     -0.44161541620514
