14
Coordinates from ORCA-job run
  C   0.77722402581023     -0.28493074155758      0.16746710863516
  C   -0.62280366794801      0.16767461382380      0.67292899927213
  F   1.70221341861634      0.42070302113822      0.86339400644995
  H   -0.62632963920108     -0.11378541285034      1.73341855826139
  C   1.00970622691975     -1.71778379986274      0.31262341001837
  N   1.17855660261835     -2.86532937267973      0.50303612306351
  N   0.90702268834720      0.09718180227798     -1.30271974608595
  O   1.39146845118122      1.19550257852576     -1.53394607055189
  O   0.44250254596213     -0.70876133405896     -2.09892602549285
  C   -1.67571176932677     -0.59203630298324     -0.00657379410488
  N   -2.53354210252989     -1.18265788366320     -0.54831597423622
  N   -0.86822573923751      1.58174419167279      0.57538129543979
  H   -0.14256433505828      2.10661843859605      1.04669460406871
  H   -0.93951670615367      1.89486020162119     -0.38446249473724
