14
Coordinates from ORCA-job run
  C   0.82604664072338     -0.40600271716946      0.07029054830900
  C   -0.39750362427429      0.26218563131714      0.72871903435486
  F   1.94152465192684      0.00173909676373      0.70654043251881
  H   -0.20631846014251      0.15463639364408      1.80225036450055
  C   0.75852186847986     -1.86852861648442      0.05011366029926
  N   0.70681257367789     -3.04273246424909      0.05630096852265
  N   0.91571039920105      0.07607101703216     -1.38253440291026
  O   1.99413627093357      0.48460987693963     -1.76982988990194
  O   -0.13461745823804     -0.01160733239824     -2.00600570100756
  C   -1.65041859615149     -0.44564044670534      0.42296735279444
  N   -2.68925475585666     -0.95252627411869      0.21326122828546
  N   -0.38443025118040      1.66933657686699      0.39002711718918
  H   -0.73779749275026      2.22914341895870      1.15321980789195
  H   -0.94241176634894      1.84931583960281     -0.43532052084638
