14
Coordinates from ORCA-job run
  C   0.75715859109887     -0.10357932122696     -0.16432807464673
  C   -0.68214464145605      0.09596214722148      0.32533994414153
  F   1.32440221171512      1.09599646821688     -0.41253553430098
  H   -1.09527195695779     -0.89730439325404      0.51980054206314
  C   1.55329197424463     -0.86570148311311      0.79656692684994
  N   2.19574860942857     -1.48906090400617      1.55690045229299
  N   0.71098473121092     -0.89720011491278     -1.47634905096560
  O   0.20934405188549     -2.00838598926945     -1.36497951278721
  O   1.14259383502846     -0.35382462347478     -2.47755162535394
  C   -1.46923948812771      0.72840159490460     -0.75222255702239
  N   -2.11243622695990      1.26956337229834     -1.57322780345557
  N   -0.61875663580244      0.84141512624722      1.56215437245853
  H   -0.43043175009871      1.82025827457087      1.38559435122335
  H   -1.48624330520946      0.76245984579791      2.07583756950293
