14
Coordinates from ORCA-job run
  C   0.77289787116962     -0.03244695356338     -0.09994619104866
  C   -0.71585823080599      0.00714604857054      0.26489313642304
  F   1.26307506958044      1.22464232728811     -0.15074200213346
  H   -1.06485069174130     -1.02809703625876      0.29986019517048
  C   1.53949321322790     -0.84895499085740      0.84012165380472
  N   2.16612584289337     -1.50742681353070      1.58401183340380
  N   0.90809810984394     -0.66068828320473     -1.49308927738504
  O   0.48296155647050     -1.80664313806827     -1.56210326669879
  O   1.38967118826515      0.02711677529916     -2.37562563802320
  C   -1.44820423802921      0.71530094453169     -0.80406767817067
  N   -2.04775795245748      1.31731822873013     -1.61556455555035
  N   -0.82324534995505      0.59630095082329      1.58046678881668
  H   -0.69596657068338      1.59975642029730      1.53887143983631
  H   -1.72543981777853      0.39767551994300      1.99191356155514
