14
Coordinates from ORCA-job run
  C   0.69968173078250     -0.09794649119443     -0.12870929216143
  C   -0.78986503051839      0.14334366749989      0.22277327366916
  F   1.35614682613183      1.08091681115619     -0.17512718014877
  H   -1.28157494912463     -0.83401796816660      0.21031345661813
  C   1.32248748163323     -0.99349527171412      0.84597450821887
  N   1.77694678265316     -1.69084199338836      1.67534774136052
  N   0.77692340865986     -0.75794042003753     -1.50613667320203
  O   0.25552220198016     -1.86545198158239     -1.55038190691338
  O   1.29818236372821     -0.12400679752203     -2.40626142121255
  C   -1.37009694539895      0.97066682289138     -0.84455584965011
  N   -1.81407099158526      1.63540623077358     -1.70409816237129
  N   -0.99503242306115      0.76496945325083      1.50484893502939
  H   -0.76099147088450      0.14000525468582      2.26540622838718
  H   -0.47425898499606      1.62839268334777      1.59060634237630
