14
Coordinates from ORCA-job run
  C   0.76394021602955     -0.07367569682693     -0.14810987766166
  C   -0.69304289509546      0.05929600692481      0.31103680721261
  F   1.30157126234052      1.15305927533163     -0.31898003452739
  H   -1.08036790302596     -0.95409313150187      0.44506002938661
  C   1.55807583025674     -0.86037892637525      0.79440771577646
  N   2.20408540835824     -1.50050973652929      1.53771112370439
  N   0.77571567085701     -0.79932956207340     -1.49947875954565
  O   0.30252401084467     -1.92766345437176     -1.45895040914804
  O   1.21735270711110     -0.19293825218603     -2.45923081689644
  C   -1.47116547096543      0.72103303454719     -0.75525274726874
  N   -2.10866995194800      1.28541230490237     -1.56500225025591
  N   -0.68460126077438      0.74387478087189      1.58390653639106
  H   -0.52648742905454      1.73602281757701      1.46082347348016
  H   -1.55993019493408      0.60989053970965      2.07205920935253
