14
Coordinates from ORCA-job run
  C   0.74527559457449     -0.10937209456136     -0.20587171537953
  C   -0.66191663757281      0.10643595550516      0.36307261063638
  F   1.29260263486126      1.08122749394062     -0.53127848110010
  H   -1.05963661416119     -0.87963303629626      0.61676529580554
  C   1.60370434049123     -0.83503853396716      0.72926431591398
  N   2.30524934709272     -1.42611599271315      1.46278137821995
  N   0.62084567443995     -0.94971172614137     -1.48353439723853
  O   0.13030063231636     -2.05651465071710     -1.30175428375525
  O   0.98724735563296     -0.44161671444886     -2.52828574943498
  C   -1.51445044407671      0.70104665633217     -0.68566111435825
  N   -2.20860819928602      1.21628027701812     -1.48134912196585
  N   -0.52572734837233      0.89461478071939      1.56723383248556
  H   -0.35264511185775      1.86710054152035      1.34570504027092
  H   -1.36024122408216      0.83229704380944      2.13491238990017
