14
Coordinates from ORCA-job run
  C   0.72278391107180     -0.36374711460941     -0.01579817426495
  C   -0.30379402690240      0.55676302698789      0.67083251803576
  F   1.80583683610371     -0.55210730670586      0.78240494489478
  H   0.23357849496341      1.48088498111616      0.90357227546769
  C   0.12730367838256     -1.64078328023497     -0.40675940284044
  N   -0.43254528382301     -2.63836599236156     -0.67561770150556
  N   1.26405829458885      0.32773049585229     -1.27520519557631
  O   1.30401103542272      1.55275619875705     -1.24483259576972
  O   1.68000339227988     -0.40588059127924     -2.16245638458535
  C   -0.69800709511003     -0.08655627550465      1.93027498128265
  N   -1.01927309170592     -0.62209635371441      2.92412044944535
  N   -1.46252825018015      0.87621603166143     -0.11905238638863
  H   -1.98858621452013      0.05933855974225     -0.40093835390462
  H   -1.23184168057128      1.45684762029298     -0.91254497429061
