14
Coordinates from ORCA-job run
  C   0.78080569969063     -0.28497091614448      0.14962926535601
  C   -0.60794990848413      0.16607140459829      0.68641309508746
  F   1.72066316915907      0.41910539690571      0.82692597918578
  H   -0.58764497037265     -0.11693850143647      1.74632722244543
  C   1.01654970260010     -1.71814462344690      0.28575012818132
  N   1.18829153917653     -2.86627704227162      0.46980901849022
  N   0.87889071800467      0.10095600042382     -1.32229815301062
  O   0.39733255001502     -0.70290068010606     -2.11044242993950
  O   1.35865770401651      1.19969969328392     -1.56113907602127
  C   -1.67528317596038     -0.59348158621527      0.02972411580687
  N   -2.54560010593439     -1.18377259309059     -0.49212366433493
  N   -0.85616540291161      1.58014993269643      0.59667373246186
  H   -0.94771017463731      1.89519484541394     -0.36083467118980
  H   -0.12083734436206      2.10430866938928      1.05358543748118
