14
Coordinates from ORCA-job run
  C   0.76565187253587     -0.06676623909257     -0.14216859272845
  C   -0.69605213634683      0.05310485216212      0.30528233576123
  F   1.29191922994028      1.16446304291681     -0.31491461846234
  H   -1.07410037705970     -0.96369989619323      0.43964741128878
  C   1.56105689656333     -0.84149192157093      0.80920157948242
  N   2.20797121406545     -1.47165423965695      1.56014458816624
  N   0.79452030172679     -0.79850393744043     -1.49038696941135
  O   0.33382855536648     -1.93197652777331     -1.44794851812187
  O   1.23650556704042     -0.19177169801213     -2.44969854526844
  C   -1.47201401798598      0.70489911004719     -0.76860613206009
  N   -2.10827272883074      1.26381815797857     -1.58304343501670
  N   -0.70438318369403      0.74140185142277      1.57638377816185
  H   -1.58393544491309      0.60272383652258      2.05575334825375
  H   -0.55269574840823      1.73445360868953      1.45135376995497
