14
Coordinates from ORCA-job run
  C   0.76569584851246     -0.13788883598225     -0.06648529384805
  C   -0.71997576646986      0.09628754516476      0.23002898470603
  F   1.43209991241505      1.03482226052252     -0.01018058716047
  H   -1.21427222971227     -0.87736583197001      0.17880946084815
  C   1.35388822928327     -1.11260573791787      0.85116172899725
  N   1.83929950835012     -1.89951064091151      1.57580192209241
  N   0.88785437147031     -0.69581990520492     -1.49078848796994
  O   1.50525432340717     -0.03129720078487     -2.30379104271823
  O   0.31333507105224     -1.76442481861794     -1.65413102044112
  C   -1.28599195035197      0.96661550058350     -0.81992237396626
  N   -1.75815431398730      1.69635608312580     -1.61040496876614
  N   -0.81557801994536      0.61373817733325      1.57629999252119
  H   -1.75768461893031      0.52220000796875      1.93267653879620
  H   -0.54577036509357      1.58889339669079      1.60992514690897
