14
Coordinates from ORCA-job run
  C   0.68005353648522     -0.05356175809568     -0.22435303165901
  C   -0.75993393333978      0.10709909511448      0.32382871068359
  F   1.17001197285516      1.15183150555755     -0.58419166041347
  H   -1.12293970046451     -0.89648948778940      0.56517821183504
  C   1.54639773189601     -0.68232508187861      0.77280946648281
  N   2.20566769257863     -1.16069881992158      1.61971201791283
  N   0.63651085281869     -0.95494461873558     -1.45900357198935
  O   0.25723864771282     -2.09528997391546     -1.22203896399314
  O   0.93617447604468     -0.45818858107847     -2.53016016914012
  C   -1.59048470262721      0.65313920274450     -0.75894163746389
  N   -2.23851796978917      1.09071013797691     -1.63440324660316
  N   -0.85062054698585      0.94198084671512      1.49283879533151
  H   -0.43823781563133      1.85263060783850      1.33693125345228
  H   -0.43132024155334      0.50210692546771      2.30179382556408
