14
Coordinates from ORCA-job run
  C   0.80937944165926     -0.42163138602644      0.13819206116340
  C   -0.46252744107196      0.24868558061013      0.69415050083039
  F   1.86371782639127     -0.05025624127710      0.89030187793700
  H   -0.37802925293911      0.10878823974502      1.77768245829300
  C   0.72417453566393     -1.88161409919629      0.06881273079207
  N   0.65764516025526     -3.05459342799035      0.03695128738703
  N   1.04649760925255      0.09857848186582     -1.28510884223190
  O   0.06049111340478      0.04582542943655     -2.00933987795674
  O   2.16305849766143      0.49939655220667     -1.55433424153803
  C   -1.68985902580511     -0.42946850030445      0.24878680516235
  N   -2.71181318702518     -0.91146423835414     -0.07284548889552
  N   -0.39722081644434      1.66430475241003      0.39926729371122
  H   -0.86794575608669      1.87531224467054     -0.47179709397187
  H   -0.81856870491608      2.20813661220401      1.13928052931760
