14
Coordinates from ORCA-job run
  C   0.77147347294936     -0.04973075797664     -0.11300363663034
  C   -0.70890046745410      0.03304527126008      0.27760181749640
  F   1.28025009682316      1.19464292343440     -0.23779960473157
  H   -1.07262146044688     -0.99335113930915      0.37271263669095
  C   1.54333607966147     -0.83005502827856      0.85306929541365
  N   2.17319597157039     -1.46302338515089      1.61608007205608
  N   0.86841766679570     -0.75056118909612     -1.47424305617420
  O   0.42814504152655     -1.89285426860796     -1.47501459214450
  O   1.33683044241093     -0.11470088690786     -2.40166364780875
  C   -1.45322614744179      0.69687325072202     -0.81122565687592
  N   -2.06722509962620      1.26379456373137     -1.63713647544408
  N   -0.78116948624008      0.69037796916341      1.56308066570641
  H   -0.64063621782989      1.68831296349754      1.46723563812816
  H   -1.67786989269860      0.52722971351835      2.00130654431771
