14
Coordinates from ORCA-job run
  C   0.73981927401613     -0.20595092308662     -0.14555331683081
  C   -0.67638070134467      0.17069607922771      0.30649501636474
  F   1.49686186055924      0.90731719283430     -0.24801446935173
  H   -1.24548135610120     -0.75943114963357      0.38240146907957
  C   1.35826230383434     -1.17116817386039      0.76218155482764
  N   1.86282345623944     -1.95450538231164      1.47735008824643
  N   0.64233464988178     -0.85415508170811     -1.53220857802954
  O   -0.03009406346895     -1.87702244479801     -1.55381111219195
  O   1.20408749251090     -0.29305734467677     -2.45602107400343
  C   -1.29741201177951      1.01982387226841     -0.72941273633658
  N   -1.79992336977167      1.73693897568831     -1.51279724244849
  N   -0.56659883476387      0.77546361054544      1.61485293592087
  H   -0.22866371191944      1.72723237960051      1.54727737788233
  H   -1.46063498789253      0.77781838991044      2.08726008687093
