14
Coordinates from ORCA-job run
  C   0.76075582152768     -0.08382973931740     -0.15241651617193
  C   -0.69242131964104      0.06815954749756      0.31193040383799
  F   1.30885787649245      1.13594133807012     -0.33988760861238
  H   -1.09077466099927     -0.93990684684680      0.45329258954399
  C   1.55358808407258     -0.86664187916870      0.79449272509281
  N   2.20309112225074     -1.50017243491645      1.54032686812590
  N   0.75918800130557     -0.82495290362088     -1.49543374493829
  O   0.27852884171294     -1.94956627760679     -1.43924408780017
  O   1.20288198976002     -0.23437799805682     -2.46414305350195
  C   -1.46636321767365      0.73541927804374     -0.75392696739345
  N   -2.09940782318432      1.30922587252423     -1.56042952500134
  N   -0.67109159842392      0.75915012140931      1.58165469936621
  H   -1.54945806997324      0.64363949384009      2.06942082083947
  H   -0.49637504722653      1.74791242814880      1.45236339661315
