14
Coordinates from ORCA-job run
  C   0.83925512267261     -0.25972039735834      0.06200677979846
  C   -0.51076016234092      0.16911804413034      0.66068521599291
  F   1.80682998834809      0.45047887617501      0.69282276377747
  H   -0.40253449267744     -0.01303262064550      1.74220160769904
  C   1.09981790853675     -1.69263403803637      0.17707142879416
  N   1.30332543001903     -2.84183249313395      0.31429765024198
  N   0.86047227348112      0.12619454270947     -1.41978226574210
  O   1.60841754722976      1.02778445313642     -1.74744034876342
  O   0.09046904046674     -0.52242165542180     -2.11243037883518
  C   -1.61078859056442     -0.66942967829678      0.18249873968531
  N   -2.53966080877514     -1.31767998763638     -0.12612628918845
  N   -0.72549766076847      1.55656017896026      0.29252808717416
  H   -1.69044161017897      1.82275403708936      0.43803520925437
  H   -0.12990398544874      2.16186073832829      0.84363180011131
