14
Coordinates from ORCA-job run
  C   0.77967111204811     -0.26876055960404      0.18088646039773
  C   -0.63778880868377      0.15545423801580      0.66210029964422
  F   1.67806829792950      0.45666143335190      0.89121092275470
  H   -0.65363149032727     -0.12548001261684      1.72265887081352
  C   1.03934345478093     -1.69624788780729      0.33227734678422
  N   1.23005796428021     -2.83947420539088      0.52794670669592
  N   0.92640084302825      0.11428432496053     -1.28745110849285
  O   0.49393955393293     -0.70272338082541     -2.09038413247118
  O   1.39035565469329      1.22281738948435     -1.51197026997399
  C   -1.66286189562599     -0.62649064087503     -0.03466885962856
  N   -2.49849319141722     -1.23521390225470     -0.59085474932212
  N   -0.91050798878752      1.56405838907357      0.55903122892468
  H   -0.97152886953699      1.87519691075402     -0.40214955041919
  H   -0.20402463547481      2.10391790462375      1.04236683161598
