14
Coordinates from ORCA-job run
  C   0.75959635843913     -0.01101559590219     -0.18383793025640
  C   -0.68065526332728      0.00161664509220      0.34244529986406
  F   1.18850705811099      1.25533770209923     -0.36992193406430
  H   -0.97903327334191     -1.04038560044628      0.48382761673973
  C   1.65660170973160     -0.73634313025403      0.71459196950509
  N   2.38363294193998     -1.32940530601696      1.42128245272902
  N   0.76683396525192     -0.72853776265204     -1.54000372916170
  O   1.11282328419065     -0.08473994221426     -2.51456963395297
  O   0.38972797719756     -1.89199504886829     -1.48620778860544
  C   -1.55709829687371      0.60766396954570     -0.67956264860445
  N   -2.27468080098255      1.12819999804945     -1.45072907957808
  N   -0.66774395679628      0.67669272634310      1.62086124433839
  H   -1.50922448976921      0.47418913673825      2.14387464710823
  H   -0.59028721377090      1.67872220848614      1.49994951393882
