14
Coordinates from ORCA-job run
  C   0.81785855337523     -0.40392248631373      0.13962038669184
  C   -0.47814993769106      0.22137352672440      0.69252320344307
  F   1.85207115789831     -0.02404393836070      0.91537660930742
  H   -0.40460398892270      0.05954708908195      1.77374465264814
  C   0.77030503922478     -1.86379681070308      0.03695663064287
  N   0.73478083361548     -3.03726093244427     -0.01849652702080
  N   1.06157443889044      0.15413245136947     -1.26764128620442
  O   0.08684228109134      0.09496668488307     -2.00658194858789
  O   2.17199228069855      0.58638895362186     -1.51243918558861
  C   -1.68176114574879     -0.47725424573966      0.21545004132084
  N   -2.68690326872965     -0.97711801252001     -0.13089116687022
  N   -0.44512503689610      1.64446779116028      0.42965271178707
  H   -0.88915882476740      2.16065420233578      1.17610881522897
  H   -0.91072238203843      1.86286572690463     -0.44238293679829
