14
Coordinates from ORCA-job run
  C   0.74374693699361     -0.20787300762386     -0.11897411459845
  C   -0.68592397367572      0.17342243905774      0.28310861237132
  F   1.50453573013994      0.90400937264029     -0.20683243933763
  H   -1.25825667049101     -0.75552625171206      0.34952337161858
  C   1.33192076257623     -1.16530333913908      0.81671845050472
  N   1.81210914547788     -1.94327435889952      1.55406461543987
  N   0.69154063787373     -0.86859159692554     -1.50255950721438
  O   0.01993650962873     -1.89160348019109     -1.53717128386545
  O   1.28428426367930     -0.31604599075911     -2.41210857635109
  C   -1.27313179576821      1.01245501776007     -0.78060195669760
  N   -1.75343272578761      1.72140393435711     -1.58513253385867
  N   -0.61808136905123      0.79073289852942      1.58838373392089
  H   -0.26944846083545      1.73876025137408      1.52285689577847
  H   -1.52879899076019      0.80643411153153      2.02772473228943
