14
Coordinates from ORCA-job run
  C   0.69503870879191     -0.48155826537385      0.04178555648181
  C   -0.38166649290356      0.49943305980418      0.55411655901884
  F   1.48740568779098     -0.86987445150760      1.06256844244929
  H   0.15566607339788      1.41793597908671      0.84109322904454
  C   0.12587285313595     -1.64004239438020     -0.64558128485251
  N   -0.28669561881176     -2.60271894938431     -1.17788742695942
  N   1.60486953784110      0.25707546244834     -0.96076567398321
  O   1.02395821486793      0.94423816204145     -1.79194228962788
  O   2.80495916938846      0.08710613694687     -0.84080701397830
  C   -0.95520546142036     -0.07955018729882      1.77415200917621
  N   -1.44698306505148     -0.51620300580110      2.74622947765392
  N   -1.42940364513440      0.66783151448010     -0.43223937105901
  H   -1.12617562416326      1.29063615196814     -1.16809181762434
  H   -2.27164033772940      1.02669078697008     -0.00263039573994
