14
Coordinates from ORCA-job run
  C   0.73326231116110     -0.48535905115689      0.04371945869515
  C   -0.34398965721883      0.44229185756566      0.61264215089342
  F   1.52934466432377     -0.94494183349272      1.04004926921264
  H   0.20632938434402      1.24291932884343      1.11602152781334
  C   0.15862496473332     -1.59336924666071     -0.71774520266365
  N   -0.37996779850858     -2.47752433100456     -1.27342081415362
  N   1.61066907807746      0.37300559031536     -0.87349373243387
  O   1.69036847749688      0.05563737585463     -2.05029059540800
  O   2.16157049450733      1.30586458962541     -0.30633946957112
  C   -1.13999420722359     -0.29072354668112      1.61048075717786
  N   -1.82864744855437     -0.86364871912384      2.37080943300600
  N   -1.08130404159414      0.99553440611467     -0.50224729693219
  H   -1.80729584576848      0.36278677820204     -0.81772589985181
  H   -1.50797037577589      1.87752680159863     -0.25245958578414
