14
Coordinates from ORCA-job run
  C   0.78906797658366     -0.26657231965084      0.13814658805551
  C   -0.60975951233951      0.12651357864924      0.69384055175638
  F   1.71108773154130      0.44365184917968      0.83335789477905
  H   -0.57715786959894     -0.18933339213339      1.74412992813013
  C   1.06761356462091     -1.69565182527284      0.22932081684329
  N   1.27635236185673     -2.84283994851147      0.37769058335782
  N   0.86872226775793      0.16726717510632     -1.32141022007431
  O   1.31353371644999      1.28708558920114     -1.52780756097277
  O   0.40808098785023     -0.62623512969520     -2.13220915980686
  C   -1.65735766758008     -0.64203341618384      0.01596202082468
  N   -2.51095445932404     -1.24073823187597     -0.52353077543833
  N   -0.89924526958935      1.53516441030790      0.65015919370162
  H   -1.00422948377566      1.87702470871000     -0.29668948514863
  H   -0.17675434445317      2.06569695216926      1.12003962399242
