14
Coordinates from ORCA-job run
  C   0.81375658349594     -0.30785870183803      0.12778423496129
  C   -0.37737045291111      0.60888895740411      0.42070483655377
  F   1.75661112823391     -0.17262297970816      1.09212584032841
  H   0.04326197545307      1.61831054485055      0.45824796810351
  C   0.41114388053849     -1.70610700330203     -0.01486961960480
  N   0.02263153669387     -2.81354299335040     -0.07126232715299
  N   1.43516852358638      0.18776063005277     -1.18216317527764
  O   1.83681450393522      1.34188863254266     -1.13807858192263
  O   1.48252457699488     -0.58960907690875     -2.12312150638762
  C   -0.93499826130578      0.27406988164949      1.74139976099574
  N   -1.43493486662768     -0.00764008399645      2.76659349149971
  N   -1.29137340772066      0.51333299042155     -0.69584172131956
  H   -1.90077294264801     -0.29171481613604     -0.61049421426500
  H   -1.86146277771852      1.34484401831873     -0.77102498651218
