14
Coordinates from ORCA-job run
  C   0.69970962472412     -0.02571095619543     -0.15825031121631
  C   -0.79086492120846      0.06430574029069      0.25351189764087
  F   1.21973669463227      1.21507662220851     -0.26984619596302
  H   -1.17369752752274     -0.96001072256430      0.29058608964979
  C   1.45783363633736     -0.81400572757642      0.81337420618478
  N   2.02168047035697     -1.42903374238791      1.64072698595791
  N   0.79212320981906     -0.72145227164667     -1.51738170493526
  O   1.20175897566696     -0.06590445986762     -2.45889008726573
  O   0.39606299365666     -1.88043043640501     -1.50428128910950
  C   -1.50267140099018      0.78991814624893     -0.80808014633516
  N   -2.05358812505822      1.37661322709415     -1.66264156645959
  N   -1.00813735094893      0.70169285806236      1.52591800542844
  H   -0.58269580777392      1.61895997645064      1.56355772456848
  H   -0.67625047169101      0.13098174628813      2.29269639185438
