14
Coordinates from ORCA-job run
  C   0.83602170904786     -0.38768781541880      0.05594436075198
  C   -0.39366546629467      0.24684405539431      0.73557355162393
  F   1.95017021590807      0.04002656005402      0.68098061816745
  H   -0.18676009662077      0.13404927414214      1.80568051912395
  C   0.80125656336046     -1.85112392088409      0.02393827155905
  N   0.77710078910357     -3.02621565914116      0.02186336699567
  N   0.89571304442897      0.10821214829310     -1.39401808459588
  O   1.95975144277562      0.54334126978018     -1.79198651576331
  O   -0.16048407769199      0.00217533050241     -2.00453497287355
  C   -1.63444709476720     -0.48625985945023      0.43961848639771
  N   -2.66550465177490     -1.01339282457897      0.24160723153584
  N   -0.41687810023490      1.65681481777155      0.40943753532771
  H   -0.77301738286277      2.20179362587975      1.18204216423341
  H   -0.98925689437736      1.83142299765580     -0.40714653248397
