16

C	-0.325363	-0.114223	-1.486983
C	0.0	0.0	0.0
Cl	-1.96182	-0.807205	-1.792135
H	1.091597	0.0	0.0
H	-0.33837	-0.934631	0.467302
N	-0.305219	1.293546	-2.061778
O	0.819515	1.764518	-2.190987
O	-1.351327	1.879419	-2.309007
C	0.745362	-0.945515	-2.167029
H	1.710174	-0.59339	-1.779947
H	0.615958	-1.984525	-1.855757
H	0.668887	-0.888542	-3.255769
N	-0.540497	1.203298	0.608116
H	-1.374462	1.015202	1.147274
H	0.168327	1.585613	1.219126
F	2.709021	0.0	0.0
