16

C	-0.219311	0.007891	-1.509586
C	0.0	0.0	0.0
Cl	-0.005048	-1.659108	-2.142367
H	1.093697	0.0	0.0
H	-0.456272	-0.881305	0.450671
N	-1.663111	0.358824	-1.874963
O	-2.549306	-0.090038	-1.149348
O	-1.863871	1.067761	-2.860888
C	0.764546	0.931581	-2.18797
H	0.750096	0.827033	-3.272008
H	1.739724	0.677339	-1.744072
H	0.516848	1.965295	-1.932487
N	-0.42731	1.221276	0.669874
H	0.289241	1.925082	0.559462
H	-1.315779	1.575392	0.339519
F	2.707841	0.0	0.0
