16

C	-0.301942	0.025292	-1.483728
C	0.0	0.0	0.0
Cl	-0.173771	-1.636441	-2.152878
H	1.092966	0.0	0.0
H	-0.442646	-0.876975	0.476702
N	-1.753384	0.426868	-1.733938
O	-2.592806	-0.003933	-0.946834
O	-2.006167	1.140441	-2.702084
C	0.666988	0.93869	-2.194847
H	0.587637	0.868503	-3.280648
H	0.460163	1.963567	-1.875612
H	1.65952	0.647597	-1.818177
N	-0.433865	1.282733	0.565821
H	-1.247541	1.165272	1.154754
H	0.332409	1.635644	1.124703
F	2.702349	0.0	0.0
