16

C	-0.31476	0.021262	-1.481235
C	0.0	0.0	0.0
Cl	-0.176401	-1.638498	-2.15493
H	1.092983	0.0	0.0
H	-0.437047	-0.878066	0.481511
N	-1.773194	0.405197	-1.71798
O	-2.041825	1.102159	-2.693005
O	-2.603086	-0.029518	-0.921083
C	0.634417	0.946307	-2.201953
H	0.415665	1.967697	-1.88377
H	1.632118	0.671763	-1.835403
H	0.544381	0.871052	-3.284494
N	-0.434831	1.281852	0.56811
H	-1.245042	1.160791	1.159668
H	0.331021	1.638366	1.124321
F	2.702387	0.0	0.0
