16

C	-0.30145	0.022049	-1.483239
C	0.0	0.0	0.0
Cl	0.165173	-1.524517	-2.218926
H	1.092518	0.0	0.0
H	-0.345286	0.955057	0.405557
N	-1.791141	0.2493	-1.759845
O	-2.370903	-0.381552	-2.63656
O	-2.314655	1.133132	-1.078378
C	0.502772	1.138	-2.12178
H	0.440155	1.107722	-3.211019
H	0.13656	2.100768	-1.755225
H	1.528264	0.979459	-1.767136
N	-0.61552	-1.13669	0.681743
H	-1.152474	-0.811637	1.474132
H	0.134172	-1.717157	1.039762
F	2.705614	0.0	0.0
