16

C	-0.217151	-0.099274	-1.489773
C	0.0	0.0	0.0
Cl	-2.007581	-0.295998	-1.924164
H	1.105787	0.0	0.0
H	-0.39932	0.943195	0.383969
C	0.258719	1.173918	-2.167355
H	-0.313748	2.042943	-1.83164
H	1.31389	1.302755	-1.898431
H	0.161593	1.089068	-3.254201
N	0.463297	-1.29368	-1.938932
H	1.413052	-1.233664	-1.553321
H	0.530997	-1.287737	-2.950737
N	-0.534492	-1.144352	0.750825
H	-0.602061	-1.915537	0.091805
H	0.194278	-1.414414	1.406973
H	2.961389	0.0	0.0
