16

C	-0.542436	-0.079105	-1.413421
C	0.0	0.0	0.0
Cl	-0.029723	1.504066	-2.288642
H	1.096553	0.0	0.0
H	-0.340732	-0.92	0.491492
C	0.117008	-1.196098	-2.191626
H	1.201722	-1.081295	-2.139843
H	-0.169064	-2.146413	-1.732987
H	-0.210819	-1.194883	-3.234915
N	-1.963175	-0.178337	-1.385923
H	-2.354939	-0.008549	-2.304479
H	-2.295886	0.528084	-0.735953
N	-0.601109	1.14381	0.710678
H	-0.437432	0.998056	1.700773
H	-0.043797	1.956042	0.461563
H	3.096939	0.0	0.0
