16

C	-0.527646	-0.077346	-1.422666
C	0.0	0.0	0.0
Cl	0.007975	1.502245	-2.252521
H	1.091832	0.0	0.0
H	-0.353442	0.935726	0.462443
C	0.112116	-1.210577	-2.192336
H	-0.175884	-2.142396	-1.704342
H	-0.218846	-1.213537	-3.235867
H	1.197708	-1.100416	-2.145562
N	-1.957775	-0.168385	-1.444743
H	-2.285695	-0.19341	-2.404377
H	-2.350911	0.65773	-1.005432
N	-0.391748	-1.211459	0.72401
H	0.337777	-1.409264	1.398693
H	-1.271014	-1.089821	1.20723
H	3.040725	0.0	0.0
