16

C	-0.409112	0.061181	-1.461783
C	0.0	0.0	0.0
Cl	-0.122847	-1.672225	-2.193198
H	1.101451	0.0	0.0
H	-0.330309	0.951444	0.43551
C	-1.882654	0.313262	-1.698625
H	-2.12871	0.268373	-2.763102
H	-2.122449	1.310461	-1.318827
H	-2.467698	-0.432039	-1.160783
N	0.42318	1.015495	-2.081933
H	1.395655	0.862548	-1.803679
H	0.336637	0.995652	-3.089813
N	-0.640944	-1.094668	0.735025
H	-0.406465	-0.958463	1.713221
H	-0.161497	-1.946798	0.460474
H	3.068447	0.0	0.0
