16

C	-0.333223	-0.015738	-1.478011
C	0.0	0.0	0.0
Cl	-2.175934	0.015787	-1.673351
H	1.09587	0.0	0.0
H	-0.367963	0.921004	0.472248
C	0.232388	1.206289	-2.164172
H	1.312747	1.223946	-1.969541
H	0.041216	1.154825	-3.23883
H	-0.211802	2.118562	-1.758877
N	0.139484	-1.217434	-2.125028
H	1.155351	-1.139977	-2.100916
H	-0.089818	-1.970017	-1.478784
N	-0.438503	-1.227831	0.660076
H	0.266646	-1.483865	1.341209
H	-1.318639	-1.088747	1.13767
H	2.978862	0.0	0.0
