16

C	-0.440736	0.011374	-1.438245
C	0.0	0.0	0.0
Cl	-2.416456	0.508692	-1.377295
H	1.094299	0.0	0.0
H	-0.332413	0.926161	0.480178
C	0.176227	1.129024	-2.2334
H	1.260994	0.981006	-2.178728
H	-0.161674	1.113208	-3.272831
H	-0.075314	2.096169	-1.798072
N	-0.31095	-1.2328	-2.012442
H	-0.726605	-1.321185	-2.926495
H	-0.587819	-1.95184	-1.353801
N	-0.455878	-1.212358	0.678569
H	0.289151	-1.519271	1.292861
H	-1.283222	-1.025975	1.22898
H	2.956426	0.0	0.0
