18

C	-0.393255	0.037788	-1.462267
C	0.0	0.0	0.0
Br	-2.364151	0.230823	-1.753414
H	1.096354	0.0	0.0
C	0.327384	1.144558	-2.191777
H	0.1758	1.067455	-3.270038
H	1.391155	1.056906	-1.938577
H	-0.052626	2.105203	-1.842596
N	0.005416	-1.307836	-2.063701
O	-0.772441	-2.252973	-1.975878
O	1.14192	-1.361423	-2.525535
C	-0.451081	-1.214283	0.802873
H	-1.537185	-1.333915	0.807527
H	-0.091776	-1.097252	1.827996
H	0.008737	-2.117353	0.398862
C	-0.410975	1.237093	0.635825
N	-0.71571	2.235129	1.179514
H	2.617739	0.0	0.0
