18

C	-0.551349	-0.00958	-1.413362
C	0.0	0.0	0.0
Br	0.412071	-1.357449	-2.498558
H	1.092904	0.0	0.0
C	-2.033354	-0.280971	-1.545317
H	-2.260824	-1.258597	-1.121165
H	-2.58666	0.487111	-0.995564
H	-2.33602	-0.263777	-2.590612
N	-0.237236	1.320137	-2.099895
O	-0.885125	1.589328	-3.112333
O	0.657401	2.006336	-1.621162
C	-0.351088	-1.267237	0.788288
H	0.236078	-1.248118	1.71007
H	-1.411687	-1.347382	1.04204
H	-0.037371	-2.147906	0.22462
C	-0.515824	1.160497	0.704361
N	-0.971914	2.077219	1.285812
H	2.628116	0.0	0.0
