18

C	-0.348345	0.017791	-1.476468
C	0.0	0.0	0.0
Br	-2.312855	0.130581	-1.83518
H	1.096371	0.0	0.0
C	0.358734	1.152031	-2.173704
H	0.230267	1.094453	-3.254429
H	1.421231	1.077188	-1.904721
H	-0.041898	2.09805	-1.808352
N	0.089568	-1.312243	-2.087891
O	1.069708	-1.290086	-2.824265
O	-0.534787	-2.321006	-1.770423
C	-0.465819	-1.179943	0.844932
H	0.070446	-2.081407	0.552288
H	-0.215827	-0.970623	1.887088
H	-1.540012	-1.355851	0.759535
C	-0.421169	1.254293	0.595861
N	-0.736588	2.26377	1.111381
H	2.622897	0.0	0.0
