18

C	-0.347034	0.015003	-1.473994
C	0.0	0.0	0.0
Br	-2.308395	0.18351	-1.837597
H	1.096364	0.0	0.0
C	0.394013	1.116849	-2.181796
H	0.275621	1.044791	-3.262994
H	0.011924	2.077696	-1.835294
H	1.449029	1.020434	-1.895458
N	0.059922	-1.335717	-2.060788
O	-0.646353	-2.309402	-1.818439
O	1.112477	-1.359953	-2.694701
C	-0.470143	-1.182454	0.839231
H	0.053652	-2.088082	0.531024
H	-1.547466	-1.345765	0.761985
H	-0.20499	-0.98824	1.881982
C	-0.412818	1.256419	0.594902
N	-0.716915	2.265554	1.117112
H	2.623014	0.0	0.0
