18

C	-0.356326	0.035619	-1.471174
C	0.0	0.0	0.0
Br	-2.326416	0.176813	-1.816478
H	1.096267	0.0	0.0
C	0.357128	1.168561	-2.163462
H	-0.033366	2.114927	-1.788104
H	1.419373	1.08308	-1.899148
H	0.224151	1.122518	-3.24452
N	0.063048	-1.293845	-2.094492
O	1.058918	-1.276607	-2.812934
O	-0.589094	-2.294966	-1.806582
C	-0.461261	-1.190089	0.834228
H	-0.179829	-1.001424	1.873877
H	0.056134	-2.093881	0.510839
H	-1.540927	-1.348928	0.773181
C	-0.414269	1.249273	0.613105
N	-0.723285	2.25203	1.145577
H	2.624886	0.0	0.0
