18

C	-0.381262	-0.003807	-1.463338
C	0.0	0.0	0.0
Br	0.228506	1.659987	-2.3048
H	1.097257	0.0	0.0
C	0.228355	-1.175889	-2.199315
H	0.089823	-1.074173	-3.273804
H	-0.250561	-2.103743	-1.875366
H	1.292043	-1.196016	-1.936705
N	-1.900821	-0.001103	-1.700475
O	-2.294858	-0.338757	-2.814614
O	-2.628211	0.332743	-0.769278
C	-0.429344	-1.255434	0.761352
H	0.040333	-2.140439	0.32901
H	-1.514912	-1.380541	0.788982
H	-0.05986	-1.168477	1.785767
C	-0.423845	1.196529	0.713803
N	-0.703005	2.135157	1.365061
H	2.677698	0.0	0.0
