17

C	0.0	0.0	0.0
C	-0.519456	-0.086633	-1.45254
F	1.393115	0.0	0.0
H	-1.626519	-0.081363	-1.362709
C	-0.457377	1.297897	0.632056
H	-1.548691	1.338099	0.632975
H	-0.047582	2.153075	0.08947
H	-0.091793	1.334268	1.661066
C	-0.455977	-1.214709	0.781431
H	-0.096209	-1.125216	1.80935
H	-0.03939	-2.126774	0.347628
H	-1.547179	-1.259967	0.782466
C	-0.090069	-1.322249	-2.112825
N	0.240514	-2.316679	-2.642386
C	-0.089722	1.061694	-2.254829
N	0.242948	1.984552	-2.900164
Br	-3.851507	0.0	0.0
