17

C	0.0	0.0	0.0
C	-0.217466	0.109699	-1.554375
F	1.396301	0.0	0.0
H	0.539026	-0.585072	-1.941133
C	-0.521885	1.17517	0.779704
H	-0.099795	2.110359	0.407116
H	-1.613861	1.189019	0.699157
H	-0.243058	1.056632	1.830012
C	-0.512682	-1.323253	0.508071
H	-0.124355	-2.149524	-0.094785
H	-0.185561	-1.459453	1.542069
H	-1.607032	-1.312999	0.473865
C	0.184134	1.435697	-2.04142
N	0.538326	2.478562	-2.448939
C	-1.462401	-0.296034	-2.219986
N	-2.278971	-0.610373	-3.003939
Br	-3.959065	0.0	0.0
