17

C	0.0	0.0	0.0
C	-0.215239	0.014618	-1.560748
F	1.396836	0.0	0.0
H	0.536472	-0.708902	-1.89784
C	-0.517565	1.218798	0.710262
H	-0.23601	1.161908	1.76538
H	-1.60924	1.228109	0.630379
H	-0.094322	2.13109	0.28404
C	-0.512161	-1.291552	0.582335
H	-1.606429	-1.27772	0.542629
H	-0.187288	-1.372435	1.623243
H	-0.125032	-2.150865	0.02663
C	0.208339	1.305881	-2.117207
N	0.584625	2.32111	-2.572025
C	-1.45721	-0.425743	-2.209984
N	-2.223396	-0.88004	-2.977913
Br	-3.936629	0.0	0.0
