17

C	0.0	0.0	0.0
C	-0.523156	0.114048	-1.448445
F	1.393018	0.0	0.0
H	-1.630153	0.107895	-1.356508
C	-0.45514	1.200229	0.804386
H	-0.098609	1.08938	1.831418
H	-1.546181	1.249778	0.803804
H	-0.034706	2.119367	0.389639
C	-0.456737	-1.309233	0.609034
H	-0.087251	-1.365966	1.635534
H	-1.548236	-1.349023	0.613113
H	-0.050327	-2.154188	0.047742
C	-0.09707	-1.01928	-2.273596
N	0.231642	-1.930571	-2.937222
C	-0.093838	1.360964	-2.087637
N	0.240602	2.36085	-2.60455
Br	-3.849788	0.0	0.0
