17

C	0.0	0.0	0.0
C	-0.396125	0.323734	-1.490075
F	1.396591	0.0	0.0
H	0.573366	0.370471	-2.005316
C	-0.453759	1.06929	0.966136
H	-0.099592	0.80454	1.965103
H	-0.036934	2.040514	0.690853
H	-1.545209	1.113118	0.961696
C	-0.445598	-1.383596	0.417085
H	-0.032174	-2.139673	-0.255808
H	-0.076313	-1.575432	1.428043
H	-1.536848	-1.430247	0.407761
C	-1.003669	1.644219	-1.691774
N	-1.343069	2.74903	-1.898698
C	-1.141979	-0.73082	-2.185947
N	-1.559939	-1.616219	-2.833195
Br	-3.78258	0.0	0.0
