17

C	0.0	0.0	0.0
C	-0.520289	0.107845	-1.451432
F	1.389769	0.0	0.0
H	-1.627319	0.100296	-1.365404
C	-0.459198	1.203401	0.797393
H	-0.034445	2.12082	0.383301
H	-1.55024	1.253343	0.788599
H	-0.111262	1.094797	1.827583
C	-0.460433	-1.306296	0.612651
H	-1.552113	-1.342643	0.614959
H	-0.05564	-2.154191	0.054606
H	-0.092557	-1.360953	1.639903
C	-0.086006	-1.027038	-2.270142
N	0.269084	-1.937758	-2.920916
C	-0.088908	1.353082	-2.093039
N	0.262616	2.349124	-2.605921
Br	-3.855343	0.0	0.0
