17

C	0.0	0.0	0.0
C	-0.309062	-0.117008	-1.541661
F	1.396588	0.0	0.0
H	0.589864	0.320839	-1.995427
C	-0.47409	1.33432	0.525766
H	-0.076849	2.153224	-0.081867
H	-0.116453	1.454853	1.55204
H	-1.566906	1.356321	0.51514
C	-0.497869	-1.165061	0.812856
H	-0.210383	-1.017039	1.857163
H	-1.58919	-1.197686	0.739877
H	-0.064417	-2.100996	0.455084
C	-1.408439	0.663464	-2.130991
N	-2.05182	1.33282	-2.851858
C	-0.349096	-1.505557	-2.008687
N	-0.311579	-2.607987	-2.411066
Br	-3.882374	0.0	0.0
