15
Coordinates from ORCA-job run
  C   0.87900662687210      0.17408468926203     -0.05068368751314
  C   -0.61998087956017      0.40674750603563      0.13668335742017
  Cl  1.67485537369089      1.46626542828986      0.97709702516507
  H   -0.88898486052997      1.40655740294649     -0.19747717044360
  N   1.14265076837386      0.28102941876433     -1.43945360146847
  H   0.92459947005972      1.20092653165308     -1.80449950057299
  H   2.09926528870999      0.03702322909376     -1.66298873924918
  C   1.37278796180549     -1.12160203968455      0.41631278459715
  N   1.88123426259500     -2.14487883098153      0.69067158208325
  N   -1.10690240987528      0.27438825336087      1.54435784893701
  O   -0.51460543422368     -0.49722722230637      2.28785749326182
  O   -2.10967823565181      0.93691972457570      1.79960673807817
  N   -1.39599504057312     -0.57362830886012     -0.69773610645597
  O   -1.40023174580186     -1.73323872817031     -0.30357707086960
  O   -1.93602114589113     -0.11436705397887     -1.69617095296970
