15
Coordinates from ORCA-job run
  C   0.92131836522301      0.01878221915492      0.23857958962905
  C   -0.56856166143650     -0.23260161749740      0.53315643611429
  Cl  1.70603589659175      0.47708890900322      1.78049844311251
  H   -0.70528831341771     -0.82426820984222      1.43632384031600
  N   1.08058287232675      1.10424273576365     -0.68103184633987
  H   2.06186325845649      1.32850353900260     -0.79469436594163
  H   0.67600166755004      0.85891675189976     -1.57819648337358
  C   1.52572253166129     -1.26600827719398     -0.16622151246605
  N   2.02783135843587     -2.26940503415121     -0.51821396940735
  N   -1.26263732891733     -0.95160907134078     -0.58462739852143
  O   -0.80566823280297     -0.83130029985804     -1.71754358756432
  O   -2.26490499368231     -1.57564175610550     -0.25550068042613
  N   -1.29641162045173      1.07539973522884      0.72010064252365
  O   -1.25204012320624      1.53566857898268      1.85219719379265
  O   -1.84284367633041      1.55223179695348     -0.26482630144780
