15
Coordinates from ORCA-job run
  C   0.88220296108076      0.19649996454795      0.02963725037899
  C   -0.62930707069304      0.38796391183579      0.15185478667520
  Cl  1.59954781698777      1.38299190412137      1.23040514194006
  H   -0.90182525630891      1.42174219263883     -0.05351658354973
  N   1.22913100767716      0.45204165103589     -1.31995019879883
  H   2.20008633709319      0.23985346598568     -1.51061018653496
  H   1.01664912687993      1.40191650964464     -1.60090767780239
  C   1.36211989922193     -1.13818514316853      0.39116550701749
  N   1.85268411420077     -2.18653872658063      0.59284074952410
  N   -1.21427500860416      0.04128932775234      1.48828926597071
  O   -2.32762550806877      0.52046555033643      1.68189802044848
  O   -0.57943152036913     -0.69317773664027      2.23259982715368
  N   -1.33343181555739     -0.47013739473109     -0.86111657715447
  O   -1.34598944050096     -1.67310433006436     -0.62822088269807
  O   -1.80953564303914      0.11637885328596     -1.82436844257025
