15
Coordinates from ORCA-job run
  C   0.90914276433429     -0.04915629768156      0.13995334999022
  C   -0.57768016186037     -0.26696588687383      0.45756176323771
  Cl  1.62286015226062      0.59737509413407      1.71896640033024
  H   -0.71174816465545     -1.03388878471844      1.21752323685542
  N   1.09137193793828      0.75543498307010     -0.99608371595471
  H   0.67989870933077      1.67306106684063     -0.88430495440598
  H   2.05958224550999      0.81012887591065     -1.28255833889221
  C   1.55845911499724     -1.34737381359033     -0.06249189307842
  N   2.12276815329370     -2.36469683391905     -0.22697170999571
  N   -1.29436555719871     -0.72781070066976     -0.79159848432834
  O   -1.98335599641571      0.08583857983912     -1.38868060893199
  O   -1.08363553193031     -1.89674241318332     -1.08522668967407
  N   -1.27755670865877      0.96224720714681      0.94708939844391
  O   -0.92687558855438      2.04765186495287      0.49811806250787
  O   -2.18886536839118      0.75389705874203      1.74070418389605
