16

C	-0.521115	0.084243	-1.444891
C	0.0	0.0	0.0
Br	0.100917	-1.561494	-2.430438
H	1.088601	0.0	0.0
N	-1.927074	0.294907	-1.517714
H	-2.228993	0.406884	-2.4773
H	-2.40572	-0.478342	-1.071326
C	0.150626	1.203361	-2.108763
N	0.670761	2.12774	-2.614817
N	-0.478684	-1.284111	0.648023
O	0.304872	-1.872227	1.378855
O	-1.655959	-1.616104	0.46406
N	-0.463746	1.087078	0.802738
H	-1.265699	1.549342	0.399879
H	0.294854	1.729833	0.976983
Br	3.437543	0.0	0.0
