16

C	-0.471876	0.020691	-1.458424
C	0.0	0.0	0.0
Br	0.223122	1.785896	-2.24229
H	1.093457	0.0	0.0
N	-1.6e-05	-1.120325	-2.12255
H	0.996147	-1.255111	-1.962152
H	-0.22797	-1.135304	-3.10797
C	-1.926031	0.161564	-1.591957
N	-3.087478	0.308318	-1.709141
N	-0.467801	-1.365417	0.515838
O	0.373006	-2.2575	0.590173
O	-1.659625	-1.466451	0.809044
N	-0.511237	1.021134	0.84311
H	-1.224278	1.593908	0.40648
H	0.251276	1.5943	1.185443
Br	3.409845	0.0	0.0
