16

C	-0.43054	-0.106179	-1.471627
C	0.0	0.0	0.0
Br	0.247739	1.519384	-2.355047
H	1.108043	0.0	0.0
N	0.150564	-1.238554	-2.152217
H	1.154089	-1.234747	-1.963365
H	-0.258676	-2.089684	-1.780812
C	-1.885289	-0.069526	-1.650703
N	-3.050936	0.006115	-1.77
N	-0.381198	-1.317935	0.691665
O	-1.432395	-1.874246	0.347294
O	0.334543	-1.68795	1.61432
N	-0.535283	1.10276	0.708742
H	-1.507996	0.977802	0.959528
H	0.032696	1.320666	1.515194
Br	3.437824	0.0	0.0
