16

C	-0.303382	0.05057	-1.509883
C	0.0	0.0	0.0
Br	-2.227516	0.457303	-1.827017
H	1.097732	0.0	0.0
N	0.467936	1.096091	-2.14818
H	1.454396	0.849513	-2.02169
H	0.317208	1.954699	-1.62769
C	-0.014577	-1.20446	-2.206376
N	0.265865	-2.171078	-2.813063
N	-0.498883	-1.255668	0.674525
O	-0.148883	-1.41442	1.836571
O	-1.22103	-2.022806	0.034174
N	-0.424516	1.130703	0.746787
H	0.340498	1.749743	0.961588
H	-1.234386	1.602575	0.374185
Br	3.372886	0.0	0.0
