16

C	-0.565726	-0.102807	-1.436782
C	0.0	0.0	0.0
Br	0.002027	-1.815908	-2.195674
H	1.103886	0.0	0.0
N	-1.994588	0.033922	-1.608016
H	-2.238314	0.910656	-1.152106
H	-2.428736	-0.70048	-1.060188
C	0.073347	0.967826	-2.211396
N	0.498693	1.886266	-2.809198
N	-0.471247	-1.134212	0.854751
O	0.35126	-1.650387	1.603802
O	-1.665197	-1.447963	0.799273
N	-0.529839	1.236932	0.588341
H	-0.48985	1.151106	1.599704
H	0.152568	1.95711	0.356843
Br	3.454529	0.0	0.0
