16

C	-0.325112	0.008058	-1.502803
C	0.0	0.0	0.0
Br	-2.303823	0.22947	-1.757463
H	1.108502	0.0	0.0
N	0.334128	1.170387	-2.038771
H	1.307478	1.140988	-1.721442
H	0.325976	1.130619	-3.052108
C	0.000577	-1.202662	-2.265873
N	0.286838	-2.036721	-3.045676
N	-0.508323	-1.258677	0.67306
O	-0.41663	-2.300783	0.026429
O	-0.934889	-1.174924	1.817293
N	-0.412702	1.158293	0.698968
H	0.362278	1.797033	0.796783
H	-1.204588	1.616659	0.271128
Br	3.351184	0.0	0.0
