16

C	-0.288479	-0.141838	-1.514547
C	0.0	0.0	0.0
Br	0.209191	1.703637	-2.318681
H	1.094323	0.0	0.0
N	0.502027	-1.190098	-1.991744
H	1.469859	-1.098107	-1.668511
H	0.454384	-1.315312	-2.994227
C	-1.690259	-0.270225	-1.905648
N	-2.816031	-0.354139	-2.232468
N	-0.485826	-1.285082	0.629289
O	0.335985	-2.04705	1.123352
O	-1.707043	-1.445924	0.635355
N	-0.55852	1.074859	0.732094
H	0.07848	1.856501	0.723729
H	-1.468697	1.350461	0.393894
Br	3.435855	0.0	0.0
