14

C	0.0	0.0	0.0
C	-0.460655	-0.296526	-1.449141
Br	2.002857	0.0	0.0
H	0.371959	-0.747325	-1.993074
H	-0.23137	-0.884657	0.598755
N	-0.509325	1.236439	0.46838
H	-0.258575	1.337133	1.446102
H	-1.547925	1.009383	0.394112
N	-0.689599	0.996479	-2.197277
O	-1.828085	1.320852	-2.503936
O	0.334208	1.619819	-2.464473
C	-1.597629	-1.210189	-1.583116
N	-2.199654	-2.147845	-1.963128
F	-2.624622	0.0	0.0
