14

C	0.0	0.0	0.0
C	-0.251803	-0.259356	-1.517015
Br	2.002417	0.0	0.0
H	0.374778	0.452224	-2.057461
H	-0.276602	-0.883354	0.580006
N	-0.52384	1.245455	0.401322
H	-1.573587	0.980694	0.308444
H	-0.319135	1.356364	1.389306
N	-1.633383	0.004443	-2.114564
O	-1.872601	1.181634	-2.340787
O	-2.295036	-0.956093	-2.47695
C	0.140829	-1.621416	-1.876652
N	0.471956	-2.709137	-2.170754
F	-2.625772	0.0	0.0
