14

C	0.0	0.0	0.0
C	-0.370137	-0.238442	-1.486827
Br	2.019178	0.0	0.0
H	0.012865	-1.216275	-1.786651
H	-0.303876	-0.88896	0.546868
N	-0.463537	1.161389	0.660523
H	-0.281248	1.965432	0.071066
H	-1.489085	0.966684	0.65095
N	0.357384	0.725893	-2.393291
O	0.203079	1.925187	-2.175478
O	1.040035	0.251205	-3.296567
C	-1.78893	-0.149168	-1.904425
N	-2.566388	-0.164628	-2.79624
F	-2.610397	0.0	0.0
