14

C	0.0	0.0	0.0
C	-0.326544	-0.297921	-1.496277
Br	1.954519	0.0	0.0
H	0.404502	0.24376	-2.10057
H	-0.301128	-0.857035	0.604712
N	-0.49266	1.270682	0.402768
H	-1.533092	1.04116	0.356383
H	-0.232401	1.399592	1.376279
N	-1.640049	0.181896	-2.102415
O	-1.745859	1.393127	-2.208682
O	-2.366573	-0.656983	-2.614567
C	-0.178533	-1.730248	-1.747295
N	0.000324	-2.878592	-1.914936
F	-2.600793	0.0	0.0
