14

C	0.0	0.0	0.0
C	-0.521596	-0.123695	-1.409236
Br	1.953513	0.0	0.0
H	-0.187709	0.691502	-2.050191
H	-0.29555	-0.876591	0.574005
H	-1.620774	-0.158481	-1.349886
C	-0.489444	1.283629	0.644086
H	-0.120184	1.358289	1.66889
H	-1.582292	1.267239	0.649653
H	-0.131297	2.152852	0.085452
N	-0.077178	-1.378876	-2.075329
O	-0.040718	-2.403853	-1.400175
O	0.193814	-1.314384	-3.274487
Br	-3.859993	0.0	0.0
