14

C	0.0	0.0	0.0
C	-0.538558	-0.072761	-1.418097
Br	1.955163	0.0	0.0
H	-0.266277	-1.00941	-1.900225
H	-0.290067	-0.939071	0.474529
H	-1.63061	0.040928	-1.353349
C	-0.50095	1.165866	0.830822
H	-0.152507	1.062188	1.860449
H	-1.593655	1.136624	0.810702
H	-0.153325	2.115252	0.427963
N	-0.00699	0.998057	-2.302542
O	0.64454	0.649621	-3.289072
O	-0.252315	2.165335	-2.003118
Br	-3.871805	0.0	0.0
