14

C	0.0	0.0	0.0
C	-0.544378	-0.118214	-1.413426
Br	1.955019	0.0	0.0
H	-0.266203	-1.065493	-1.870502
H	-0.290596	-0.924738	0.502676
H	-1.636984	-0.0139	-1.344064
C	-0.500092	1.188876	0.798842
H	-1.593072	1.155164	0.786869
H	-0.157575	2.126918	0.365512
H	-0.143191	1.117801	1.827842
N	-0.032937	0.931411	-2.333981
O	0.599845	0.559911	-3.324403
O	-0.277068	2.105726	-2.061834
Br	-3.878565	0.0	0.0
