14

C	0.0	0.0	0.0
C	-0.505915	-0.181277	-1.40944
Br	1.953336	0.0	0.0
H	-0.151129	0.604233	-2.076286
H	-0.2982	-0.848579	0.613253
H	-1.606065	-0.206671	-1.367156
C	-0.474097	1.320519	0.57605
H	-0.12674	2.149314	-0.047486
H	-1.566877	1.313397	0.610048
H	-0.072865	1.462531	1.58123
N	-0.053569	-1.464804	-2.013481
O	0.284854	-1.442529	-3.197244
O	-0.0728	-2.467992	-1.305551
Br	-3.83998	0.0	0.0
