15
Coordinates from ORCA-job run
  C   0.76610845728117     -0.28121313697986      0.10726533775705
  C   -0.64756393711111      0.23837551722227     -0.26142921318546
  F   0.57470327676567     -1.57522152001859      0.62427942638347
  H   -0.55078984652563      1.21014397435964     -0.74648208336425
  N   1.44722628339915      0.53677203612613      1.00561879394148
  H   0.97128067905638      1.35130186973445      1.35530285689206
  H   2.44334763175908      0.61677282201850      0.90706757385685
  C   1.50289639033375     -0.46597546127510     -1.16131026557719
  N   2.07005724428868     -0.55893435976937     -2.18554438971491
  N   -1.35394479810106      0.51012995474174      1.05100364825642
  O   -2.03666478754439     -0.38752973839094      1.52056734582418
  O   -1.15335026983543      1.61730271963667      1.55495604741769
  N   -1.44499223522149     -0.64018424794501     -1.03840087727200
  H   -1.21738838031739     -0.57840603986078     -2.02052699193791
  H   -1.37192570822737     -1.59433438959973     -0.71236720927746
