15
Coordinates from ORCA-job run
  C   0.86588734165213     -0.05279009177665     -0.31643160735438
  C   -0.66593658785641      0.10042551080844     -0.39770494953210
  F   1.15399149153774     -0.89682734764596     -1.42095964576331
  H   -0.92448817700497      0.63204830347771     -1.32003294383197
  N   1.20731838538888     -0.60233879447429      0.92204331553616
  H   2.19944177725477     -0.76206857811632      1.02722573820357
  H   0.66230647942816     -1.44057141394389      1.08768130304217
  C   1.61651181278454      1.18616184082232     -0.57232075600967
  N   2.26962087405204      2.13000305100631     -0.81800527226407
  N   -1.11496802840601      1.00771862430389      0.71962669496722
  O   -1.86132107907582      0.54904141868807      1.57715320461639
  O   -0.69256146361236      2.15614526640661      0.66222103571322
  N   -1.24322690281436     -1.20502582731222     -0.23151181260130
  H   -2.15003198387551     -1.13611197157017      0.21091814915770
  H   -1.32254393945281     -1.66480999067385     -1.12790245387962
