15
Coordinates from ORCA-job run
  C   0.86592438083165      0.08961043822126     -0.06617987547217
  C   -0.62384597621757      0.03108494685851     -0.39837079326708
  F   1.43737874468288      1.00715702824553     -0.94838486838396
  H   -0.71474287059592     -0.26542004356023     -1.45354306261663
  N   1.39690973716261     -1.21945163206340     -0.22962319577996
  H   2.34819446474839     -1.27921260545284      0.11140685066287
  H   1.37055831549197     -1.49042317455130     -1.20619975211125
  C   1.14129602696427      0.53606170505801      1.30996406894303
  N   1.45979558093325      0.82682309178062      2.40131411262256
  N   -1.25969616708622      1.39833116344292     -0.35732899524160
  O   -0.73078249981547      2.28453539960684      0.30041137837705
  O   -2.31908867374273      1.47682333325997     -0.97517974435166
  N   -1.31831363161169     -0.77504611794968      0.55819334918733
  H   -0.80261258197432     -1.63094634832704      0.71869917999334
  H   -2.25297484977108     -0.98992718456917      0.23582134743812
