15
Coordinates from ORCA-job run
  C   0.83952306378858     -0.11015431607754      0.20001287630512
  C   -0.64545110737443      0.12287247829553     -0.09044481903380
  Br  1.25199374975468     -1.83278291186665      0.91307060462845
  H   -0.75153168614874      1.01832495246583     -0.70402400144432
  N   1.61182204772868      0.12975760399516     -1.16572504695216
  O   2.44641883336772     -0.67986570234255     -1.50077283421181
  O   1.28968638388649      1.16983634944836     -1.71755619756494
  C   1.31260398278508      0.93746055016306      1.09194103286624
  N   1.68128284145186      1.79632338975825      1.80722710525130
  N   -1.43174687941781      0.35630578614500      1.16405331758353
  O   -1.98613947987956      1.44942605078567      1.23634144622842
  O   -1.44424222483613     -0.54670281565879      1.98992825545648
  N   -1.24930066431389     -1.01588923967759     -0.86812150960368
  O   -2.38619281761076     -1.35661416187166     -0.58177826066540
  O   -0.53972604318177     -1.43829801356209     -1.77215196884344
