15
Coordinates from ORCA-job run
  C   0.83601753328492      0.00353511683440      0.26780667548930
  C   -0.66023669988258      0.15782815095035     -0.02632630952707
  Br  1.28650720794442     -1.60858763971295      1.19515201098656
  H   -0.88315457951549      1.16695365276096     -0.36842705135731
  N   1.56601982958110      0.08878260255605     -1.12180203694547
  O   1.09217273480374      0.94844685480407     -1.85100452549834
  O   2.52176557406318     -0.62850646671211     -1.31624738266575
  C   1.31684423639988      1.15123136850769      1.02220649296123
  N   1.73837701116177      2.08419359420131      1.60281663200261
  N   -1.46128086473059     -0.07707259759637      1.23050875596806
  O   -2.03474968990700     -1.14948192105088      1.34683159371549
  O   -1.42297373254460      0.85262424118611      2.02708540629450
  N   -1.16511007300259     -0.77902265949453     -1.08346847310934
  O   -2.30340680890609     -0.53259669818623     -1.46003860761447
  O   -0.42679167875011     -1.67932759904785     -1.46309318069998
