15
Coordinates from ORCA-job run
  C   0.80551026159694      0.36971033929680      0.38596457984928
  C   -0.71642447698268      0.21489613442673      0.31885930959478
  Br  1.32661610449937      0.31907512009361      2.24072771805172
  H   -1.19006436223935      1.02626400407076      0.87099658531115
  N   1.51572665545586     -0.76040851609170     -0.43111236751353
  O   1.09978435049126     -0.82472799315435     -1.57764119380268
  O   2.39636840652248     -1.40061061779347      0.09819242638354
  C   1.25413892423679      1.62275223126638     -0.19806817134337
  N   1.67690791455797      2.62368133871656     -0.64988800083264
  N   -1.17865177128785     -1.07161492925073      0.92639927453643
  O   -2.26127363087965     -1.01710409373676      1.49766094296394
  O   -0.46311890336524     -2.05275080363885      0.76560798382804
  N   -1.28249258914332      0.28501511391225     -1.09219339045938
  O   -1.16263551026469      1.38116254350923     -1.61734560243683
  O   -1.82039137319789     -0.71533987162645     -1.53716009413043
