15
Coordinates from ORCA-job run
  C   0.89017695901399      0.29417129824138      0.25323442282760
  C   -0.63106267912923      0.23411835878872      0.43815052602515
  Br  1.81593048898231      0.17677947257129      1.94816948388615
  H   -0.94765714821667      1.01186642891002      1.13358361154522
  N   1.41613397853341     -0.86481961996335     -0.61967511737461
  O   2.24664148158182     -0.57758938162556     -1.46203230253541
  O   0.97195813645371     -1.96343975078793     -0.33164518909519
  C   1.22657363797757      1.56427959205198     -0.36979453654113
  N   1.46144864316590      2.62785735952534     -0.81461345745505
  N   -1.18010574449688     -1.07610943593528      0.98041974469449
  O   -0.96422742208495     -1.26133485023441      2.16770416850504
  O   -1.80420453804723     -1.78287042979222      0.20566712081750
  N   -1.32609907755003      0.48644275548950     -0.86679629614980
  O   -2.44458113663015      0.97541267419608     -0.77597694930957
  O   -0.72892557955357      0.15423552856442     -1.88539522984039
