15
Coordinates from ORCA-job run
  C   0.85002334827098     -0.07327235297600      0.16602789985062
  C   -0.65359542157269      0.09582787043039     -0.06661409321565
  Br  1.36087780214724     -1.77327431427168      0.87052496767165
  H   -0.82121317529587      0.98235460130288     -0.67937390087135
  N   1.55773702600399      0.18922649571889     -1.23036761005151
  O   2.41232350931555     -0.58665952574498     -1.59353815951416
  O   1.17044289304694      1.21089501934399     -1.77478332718465
  C   1.31431383193574      0.99723459382993      1.03509199868055
  N   1.67539199272999      1.86870607386530      1.73896717240983
  N   -1.39787427596680      0.30524065476302      1.21768568752576
  O   -1.98825789068602      1.37786245926089      1.30935152983352
  O   -1.34411291592633     -0.59393367115077      2.04608119867142
  N   -1.23914805185245     -1.07197839121224     -0.81409632743414
  O   -2.34864505860834     -1.45808207227393     -0.48172210108681
  O   -0.54826361354193     -1.47014744088569     -1.74323493528507
