15
Coordinates from ORCA-job run
  C   0.90182048869896      0.02939612774597      0.24092670081297
  C   -0.52167859009571     -0.53434148337829      0.23493742494850
  Br  1.99295806450681     -0.91220255347749      1.53603356812700
  H   -0.52856217921931     -1.61875971564717      0.33483972173731
  N   1.52895668526056     -0.30997628776699     -1.13485870304642
  O   2.34266696872215      0.48024912709822     -1.57659219611293
  O   1.17475587385433     -1.37985146078293     -1.60905234198219
  C   0.97621772479801      1.45953315459973      0.46516817911923
  N   1.02945076199345      2.61535299020703      0.67762314457583
  N   -1.22491082246907     -0.19660709164802     -1.04764891403437
  O   -1.98650271794848     -1.04640637038483     -1.48543962541630
  O   -0.97673831494482      0.91024048856993     -1.51680056495832
  N   -1.36698669391096      0.04796843102490      1.35703995466617
  O   -0.77835287523261      0.30775878231983      2.39614604507756
  O   -2.56309437401333      0.14764586152011      1.12867760648597
