15
Coordinates from ORCA-job run
  C   0.83006711903444      0.19859686743694      0.27775562944883
  C   -0.47277906786501     -0.57751075595931      0.14292548447779
  Br  1.71528380856344     -0.37432336162021      1.90580761523831
  H   -0.28655472759083     -1.64870497150679      0.10306352015303
  N   1.76179120292262     -0.22834190380877     -0.88999228812749
  O   2.56843544784531      0.60136739519410     -1.26416584149883
  O   1.62156917507603     -1.37758907743644     -1.27691731514622
  C   0.69112868211038      1.64077572638767      0.27675267297157
  N   0.61943903141170      2.81507616471947      0.28560229756029
  N   -1.21693681110749     -0.19680692532074     -1.11352528678508
  O   -0.63399424796477      0.52871207612524     -1.91079845497446
  O   -2.33118858563231     -0.68750607090687     -1.21954101255496
  N   -1.39986198264832     -0.29918111049912      1.28903476293687
  O   -1.84202163292907      0.84294382538955      1.35034582676822
  O   -1.62637741122612     -1.23750787819472      2.04265238953213
