15
Coordinates from ORCA-job run
  C   0.79393870457541      0.31051726120405      0.17023248536385
  C   -0.61937311857261     -0.15779096293543     -0.18278472808309
  Br  0.97001745694695      1.06428594384563      1.91651335288843
  H   -0.58903301493132     -0.70458404615477     -1.12590279701484
  N   1.74881583754084     -0.94312343818056     -0.00123063427520
  O   2.58817318278152     -1.14086542593461      0.84750159130000
  O   1.54890562403511     -1.55699984644878     -1.03728395851437
  C   1.23840647794585      1.26481387012027     -0.83456695264973
  N   1.59443181798597      2.03163174399802     -1.65342166505973
  N   -1.54643011463287      1.00568746276916     -0.37921565398654
  O   -1.88190855266439      1.62599094132401      0.62095711315065
  O   -1.86132912756381      1.22859662916788     -1.54455718560795
  N   -1.19386841237421     -1.09699863064153      0.84422988081029
  O   -0.37883832885161     -1.80957594394125      1.41694544203207
  O   -2.41090843222083     -1.12058555819209      0.94158370964617
