15
Coordinates from ORCA-job run
  C   0.85326835120636      0.36022583500735      0.29088271552671
  C   -0.67360429490814      0.23797240990466      0.36732037865752
  Br  1.64766371155105      0.43519338260454      2.05351689210728
  H   -1.07797241839641      1.05561917942303      0.96457884906757
  N   1.49729788372624     -0.84043514191237     -0.43403681498703
  O   1.08114203486844     -1.93182238739429     -0.08346334937769
  O   2.37747273819348     -0.58393709506941     -1.23482008311178
  C   1.18023284565599      1.58828398817463     -0.41580685446776
  N   1.40547413401829      2.62078444180892     -0.93289230862439
  N   -1.20433410876117     -1.04684715590916      0.98300188681843
  O   -1.73264408616097     -1.84939315648423      0.23055518286711
  O   -1.07461283651814     -1.11769956558543      2.19492537757438
  N   -1.27534464741232      0.34079025473736     -1.00300761837341
  O   -0.58510978861331     -0.04435678542571     -1.94091789490182
  O   -2.41892951844937      0.77562179612012     -1.03883635877510
