15
Coordinates from ORCA-job run
  C   0.84205465106239      0.03506247431952      0.24620221131095
  C   -0.66311636111265      0.13577421481563     -0.02408604884152
  Br  1.35298714718115     -1.51663310169872      1.24200698963222
  H   -0.91446433079899      1.11481320640405     -0.42840619558365
  N   1.54415221976022      0.07081731526611     -1.16081550217060
  O   2.51142034802392     -0.63453958564132     -1.34036349051251
  O   1.03792026005947      0.88505024270186     -1.91966455306833
  C   1.30374893595686      1.23148252099956      0.93382499488021
  N   1.70442369749241      2.20322104907170      1.46333738362958
  N   -1.43310543910086     -0.02926067945442      1.26178669877291
  O   -1.95475918593660     -1.11315169256928      1.47629987393554
  O   -1.42730997895829      0.96420717944928      1.97889222517593
  N   -1.16814672641667     -0.87989457682675     -1.00655470897216
  O   -2.33207921470794     -0.70583299328185     -1.34246667013184
  O   -0.40272602250441     -1.76011557355535     -1.37899320805673
