15
Coordinates from ORCA-job run
  C   0.83442139727128      0.06634090368911      0.32396117555947
  C   -0.53870336066919     -0.53313544164311      0.05360921693478
  Br  1.58212501862931     -0.80378825401607      1.88786726046428
  H   -0.46872462945411     -1.60474524226166     -0.12111712307409
  N   1.76193697491795     -0.31412308206356     -0.86352959445456
  O   2.66726995137531      0.46023350600412     -1.10780731065701
  O   1.51511864879543     -1.38415178220845     -1.39667138430039
  C   0.85460735383302      1.50356432964153      0.50571924070423
  N   0.91368660896856      2.66768986908573      0.66567646942850
  N   -1.18399357508224      0.08624847981126     -1.16207928529633
  O   -2.34090929459302     -0.25423330341646     -1.35980727489677
  O   -0.49115358278021      0.83278302141822     -1.84360540253964
  N   -1.47672983838572     -0.29881230737861      1.20048089109052
  O   -1.79230417713563      0.86934557516536      1.39930764761748
  O   -1.83664749569072     -1.29321627182741      1.81799547341953
