15
Coordinates from ORCA-job run
  C   0.89222293790869      0.28295735424078      0.25918015407046
  C   -0.63067310029388      0.23992223970114      0.43529284394728
  Br  1.80712091344095      0.14824515576114      1.95859057313244
  H   -0.94230421963780      1.01869971788150      1.13180898639299
  N   1.40978306307878     -0.87840074576226     -0.61525459988310
  O   0.95093984783182     -1.97294589153835     -0.33490132456564
  O   2.24903865800645     -0.59738059249713     -1.45103480912132
  C   1.24614691244142      1.55175726697863     -0.35683365070643
  N   1.49319035151345      2.61539499222404     -0.79480523673059
  N   -1.19800969029865     -1.06586119892320      0.96998842482620
  O   -0.99038912517846     -1.25815265222311      2.15759805779050
  O   -1.82571775853882     -1.76267763795898      0.18920557578184
  N   -1.31569561064010      0.50444913173294     -0.87258439234697
  O   -0.71606211075825      0.17055090168725     -1.88914687038290
  O   -2.42959106887558      1.00444195869563     -0.78610373220476
