15
Coordinates from ORCA-job run
  C   0.85033247153837      0.11438962768987      0.26463214745801
  C   -0.50974217850003     -0.55248376513799      0.11150864279853
  Br  1.73714356196421     -0.65708218038848      1.80762233894858
  H   -0.40479508130552     -1.62745238088699     -0.01936250481689
  N   1.71278292639333     -0.27709913885323     -0.96713254782841
  O   1.47943902188429     -1.37871289164746     -1.43856788567488
  O   2.56416724089660      0.52358868823127     -1.30350251957120
  C   0.81901922148893      1.55757647988735      0.38856121398973
  N   0.83801394412314      2.72812149844476      0.50576380475785
  N   -1.25747941743859     -0.01758834933181     -1.08501134717467
  O   -2.40428936758695     -0.42490709901538     -1.19762513471353
  O   -0.64814589312655      0.73571364375838     -1.83540882682570
  N   -1.38231994606068     -0.30230357694962      1.30620678163775
  O   -1.65110541831605     -1.27841288406483      1.99507248494465
  O   -1.74302108595449      0.85865232826418      1.46724335207016
