15
Coordinates from ORCA-job run
  C   0.85392284674473      0.07114055496746      0.17567278502828
  C   -0.65824344900524      0.01014145094316     -0.05378535407828
  Br  1.61652069366798     -1.59506924301176      0.71446824685003
  H   -0.97885400115167      0.88105934886307     -0.62621877054180
  N   1.48048696090248      0.55234399376920     -1.20283796768719
  O   0.99416719492410      1.59872589649098     -1.60052329241669
  O   2.36195576248615     -0.11259377980648     -1.69915934068716
  C   1.17057760658676      1.12583687338203      1.12446029965878
  N   1.43106593691598      2.00304021103630      1.86433331655741
  N   -1.46733103786170     -0.00759302334904      1.20790458008561
  O   -0.93327396624210     -0.40554283740232      2.23558344353462
  O   -2.62518517388303      0.36751122508841      1.06006161881629
  N   -1.01026181987431     -1.21248184646063     -0.86424156086972
  O   -0.47953715320053     -1.23305266761282     -1.96746904491067
  O   -1.75401040100959     -2.04346615689756     -0.36824895933953
