15
Coordinates from ORCA-job run
  C   0.80953097716802      0.40132886185135      0.35805987202018
  C   -0.71169288350401      0.21513782415556      0.30228268582050
  Br  1.44088805328486      0.54004615128159      2.18197865228296
  H   -1.20084798099606      1.02410023758930      0.84546346047950
  N   1.56484372611801     -0.78210930252424     -0.28247067409790
  O   2.50236022078637     -0.50061008738929     -1.00615343637879
  O   1.16443576017884     -1.88457619914228      0.05123234690856
  C   1.14609580653075      1.63051629261156     -0.34203053804241
  N   1.35706075351697      2.66059837071394     -0.86984112032435
  N   -1.24154557230229     -1.08133681695872      0.89474567659786
  O   -1.21596721665112     -1.12699590061051      2.11452393258052
  O   -1.66866210760523     -1.91748026025365      0.11519543316591
  N   -1.19285409543237      0.26931358266529     -1.11734725831456
  O   -0.40806294042755     -0.10523090391514     -1.98237211392640
  O   -2.34458250066519      0.65729814992524     -1.26326691877159
