19

C	-0.456158	-0.001538	-1.534257
C	0.099619	0.07274	-0.097665
Br	-2.394026	-0.276502	-1.529463
H	1.188873	0.196434	-0.219928
N	-0.160722	1.330127	-2.210679
O	-1.033872	2.18311	-2.333305
O	1.019052	1.485522	-2.527977
C	0.182779	-1.119326	-2.32811
H	-0.034155	-2.045129	-1.799143
H	1.262933	-0.969679	-2.342505
H	-0.204546	-1.15169	-3.349162
N	-0.074019	-1.206781	0.544632
H	-0.844277	-1.148233	1.203641
H	0.829084	-1.322832	1.095841
C	-0.410712	1.26348	0.70446
H	-0.238147	2.226013	0.212889
H	0.135378	1.254872	1.650086
H	-1.481746	1.167748	0.908126
H	2.276735	-1.012023	1.638653
