14

C	-0.515741	0.033745	-1.420836
C	0.0	0.0	0.0
Br	-2.439104	0.130841	-1.541369
H	1.092232	0.0	0.0
H	-0.330144	-0.950534	0.432567
N	0.021362	1.209976	-2.230501
O	0.554173	2.109709	-1.598467
O	-0.170682	1.157611	-3.437455
N	-0.008028	-1.242176	-2.107738
O	-0.69593	-2.241405	-1.966089
O	1.077409	-1.157033	-2.657695
C	-0.518716	1.089077	0.814625
N	-0.921785	1.947582	1.506655
Cl	3.193384	0.0	0.0
