14

C	-0.578672	-0.090555	-1.402368
C	0.0	0.0	0.0
Cl	0.346051	-1.21727	-2.399508
H	1.092728	0.0	0.0
H	-1.616046	-0.418251	-1.403466
N	-0.590887	1.261652	-2.066688
O	0.481009	1.797093	-2.314074
O	-1.706954	1.745177	-2.275596
N	-0.337906	-1.251612	0.696763
H	0.533264	-1.584009	1.08987
H	-0.994662	-1.095164	1.448952
C	-0.52051	1.170714	0.687861
N	-0.960524	2.091415	1.274657
F	2.519168	0.0	0.0
