14

C	-0.477737	0.013839	-1.431444
C	0.0	0.0	0.0
Cl	-2.253569	-0.110436	-1.605306
H	1.105282	0.0	0.0
H	-0.159316	0.921179	-1.939719
N	0.168918	-1.110101	-2.206106
O	1.190274	-0.792105	-2.80944
O	-0.331791	-2.225632	-2.167084
N	-0.376583	-1.216155	0.697686
H	-1.228147	-1.117698	1.234752
H	0.39179	-1.461778	1.309218
C	-0.453243	1.224977	0.649169
N	-0.812728	2.2064	1.189906
F	2.505437	0.0	0.0
