14

C	-0.365373	0.066792	-1.455093
C	0.0	0.0	0.0
Cl	-0.231529	1.688576	-2.15308
H	1.098679	0.0	0.0
H	0.28651	-0.601943	-2.011587
N	-1.769515	-0.42215	-1.730201
O	-1.940524	-1.0577	-2.768313
O	-2.641396	-0.148113	-0.910987
N	-0.33995	-1.348139	0.460621
H	0.436742	-1.66818	1.026421
H	-1.190473	-1.35699	1.009394
C	-0.544083	1.068399	0.82145
N	-0.952455	1.88894	1.558863
F	2.524639	0.0	0.0
