14

C	-0.585083	-0.098857	-1.40002
C	0.0	0.0	0.0
Cl	0.318407	-1.247636	-2.38978
H	1.092688	0.0	0.0
H	-1.628286	-0.413795	-1.390782
N	-0.587156	1.248472	-2.075506
O	0.488085	1.751555	-2.376658
O	-1.698184	1.7628	-2.233297
N	-0.338574	-1.249461	0.704777
H	-0.966498	-1.082738	1.479403
H	0.542652	-1.58937	1.072429
C	-0.518125	1.171927	0.685371
N	-0.953116	2.093317	1.274502
F	2.516759	0.0	0.0
