13
Coordinates from ORCA-job run
  C   0.15906494771449     -0.46182235684566     -0.42065788117513
  C   -0.68869028219645      0.76926345486433     -0.68584941264337
  F   -0.04889713321192     -1.36212564527009     -1.42923441055235
  H   -1.73073766351487      0.46675386650285     -0.78422034474897
  H   -0.34798833892557      1.19657894447609     -1.63168027066689
  N   -0.42260145466798     -1.22234995218991      0.81525365935755
  O   0.37974793921847     -1.88167769917172      1.46727651442756
  O   -1.63185668625482     -1.15040618800845      1.00206490465822
  N   1.51998955462433     -0.19121592679544     -0.30307778934424
  H   1.70721283411348      0.59051707805976      0.31048861147192
  H   2.03013469564983     -1.00800783882416      0.00887508246612
  C   -0.54455543612682      1.74447198373972      0.38887673143544
  N   -0.37982297642217      2.51102027946269      1.26188460531416
