13
Coordinates from ORCA-job run
  C   0.00287760163765     -0.36781554188227     -0.19643988660187
  C   -0.67637365531337      0.86056089301541      0.38535122907817
  F   -0.59807655990187     -0.65659363723363     -1.41449247914964
  H   -1.75640794172264      0.71175801887121      0.37109304272836
  H   -0.35999489226924      0.99537143390497      1.42047791030022
  N   -0.31969761567415     -1.59803550279129      0.65082503825842
  O   0.29335864326693     -2.61490273907140      0.34988111570515
  O   -1.17390390158681     -1.48929248043285      1.52346862550152
  N   1.39217734805517     -0.26493844813214     -0.24843258701377
  H   1.80846308568936     -1.11337813019796     -0.61023051610401
  H   1.69263144791856      0.54273351259369     -0.77814969974694
  C   -0.31583929226301      2.03403105817157     -0.40539370579499
  N   0.01178573216341      2.95950156318470     -1.04795808716063
