15
Coordinates from ORCA-job run
  C   0.47814485465569     -0.26157104893384     -0.15943500932223
  C   -0.72330708930965      0.41409256656123     -0.09146099459484
  N   0.62950101373996     -1.39053712781777     -1.01595024056154
  O   -0.19470683338383     -1.60967891988954     -1.92703816071229
  O   1.61240557865746     -2.11652230424264     -0.82572547924063
  C   1.62467421829808      0.01206559927729      0.76183471351434
  H   2.56681646597226     -0.14495046603107      0.23614437278876
  H   1.59652876470338      1.04939775605176      1.10003960205872
  H   1.63726428787733     -0.65203393161126      1.63269451517139
  N   -0.90236996908450      1.36492083771102      0.89355071886055
  H   -0.52429982100199      1.15797180062738      1.80130841903709
  H   -1.78677139491805      1.84419845263966      0.90363364553663
  N   -1.74033877485540      0.32763383889795     -0.99868724026167
  H   -1.60112042661796     -0.40403370776194     -1.68351269094183
  H   -2.67342087473280      0.40804665452174     -0.62639617133243
