15
Coordinates from ORCA-job run
  C   0.38164537694359     -0.38774884683475     -0.06381233269648
  C   -0.75861029183572      0.38442328447329     -0.02923052646889
  N   0.59188781771719     -1.31889352178856     -1.12973096312955
  O   -0.36299706101741     -1.68806955876762     -1.83897838268576
  O   1.74252667743530     -1.73831464918826     -1.29593480684726
  C   1.55055369807884     -0.18747232614235      0.85193005588741
  H   2.07571486840445     -1.13236179323140      0.98646443051370
  H   2.27990224185966      0.52942917714171      0.46113154948015
  H   1.22020670915315      0.14688894769356      1.83822502694376
  N   -0.83802549255694      1.50297117066148      0.78220218217498
  H   -1.72177414765520      1.60726528455169      1.25752938720153
  H   -0.04345887875338      1.68317323679484      1.37091951052344
  N   -1.91099317982814      0.16387938359035     -0.73190616110897
  H   -1.82884938131521     -0.56860680783579     -1.42317086283693
  H   -2.37872895663018      1.00443701888182     -1.03463810695112
