15
Coordinates from ORCA-job run
  C   0.36111837456402     -0.41721944607652     -0.01345075537883
  C   -0.71103143542384      0.42932465486028      0.07286662340007
  N   0.18098426312605     -1.83513605508572      0.17366151965820
  O   1.16759368188588     -2.56078168939221      0.02524734183500
  O   -0.92983839108307     -2.27915416928685      0.51390873126440
  C   1.74992152565636      0.05490235250866     -0.32289765547257
  H   2.08784531604674      0.83261764532991      0.37047501754394
  H   2.44035274597221     -0.77983391866624     -0.25221051917248
  H   1.81872405102287      0.46551046586984     -1.33591767357966
  N   -1.97306392661575      0.12449806637510      0.50642681131635
  H   -2.69376430212713      0.60021575138007     -0.01512876951335
  H   -2.14101502380771     -0.86186950172305      0.62424034985383
  N   -0.59619193338144      1.76708952659342     -0.27850605227100
  H   -1.09572236803366      2.35429294178532      0.37359225400126
  H   0.33608742219845      2.10754337552797     -0.44330722348516
