15
Coordinates from ORCA-job run
  C   0.36948197625528     -0.38759987598435      0.05833247856411
  C   -0.73977488612102      0.41828182959876     -0.08725118487281
  N   0.23450364658729     -1.77476158740608      0.37879058414044
  O   1.27840856030737     -2.41813279539612      0.53807414053943
  O   -0.89095025837858     -2.29676294943841      0.49340466858296
  C   1.79008107691433      0.07813614799578     -0.05274783958851
  H   2.28304852314961      0.11679876490417      0.92275907352253
  H   1.87059806379704      1.05777239144142     -0.52451244709695
  H   2.36006874917222     -0.61837905907416     -0.66813145254119
  N   -0.62486194968861      1.74610901424892     -0.47306463973604
  H   -1.31952872360057      2.33770643509284     -0.04145394271873
  H   0.29664993013557      2.13996708265094     -0.39665126290644
  N   -2.03967447282243      0.04309744225238      0.11539661483640
  H   -2.16184112316844     -0.95442338108003      0.21711012114976
  H   -2.70520911253906      0.51119054019397     -0.48005491187496
