15
Coordinates from ORCA-job run
  C   0.36267654885324     -0.41279347559090     -0.01241209241423
  C   -0.73254287577739      0.42484287465819     -0.02521723587339
  N   0.21902238520495     -1.80066011048659      0.30315299387960
  O   1.25491073544762     -2.45337752080930      0.47103508107363
  O   -0.91069754338756     -2.28971355458503      0.49286824811561
  C   1.77456921947347      0.05018684822243     -0.21031727233764
  H   1.82927754805727      0.94380113274146     -0.83441310409114
  H   2.28559973261422      0.24778270186760      0.73742856181540
  H   2.34168402097284     -0.72562390826026     -0.72276260838014
  N   -2.02389226035432      0.07978684737539      0.26181945070849
  H   -2.71957408491111      0.60172315762400     -0.24793190249727
  H   -2.17500689542289     -0.91697695852899      0.31831471520485
  N   -0.59946571959374      1.76656045380375     -0.35625967458037
  H   0.33882696366276      2.12576560492659     -0.32358626936624
  H   -1.24338777483934      2.35769590704166      0.14828110874283
