15
Coordinates from ORCA-job run
  C   0.39717156380098     -0.35476017324284      0.20181610048356
  C   -0.72453380005981      0.41710162776784     -0.02003571491749
  N   0.27750286517543     -1.73366169681158      0.53968797563201
  O   1.29304441472356     -2.43178733962172      0.43602663782475
  O   -0.81333281848001     -2.19687781815050      0.93043867289741
  C   1.78628377847103      0.13940898054146     -0.05193887418061
  H   1.83046982296917      1.22085416444210      0.09057802617758
  H   2.14768386133110     -0.10463386699272     -1.05699732066942
  H   2.47736947201699     -0.32577475191905      0.65088577611030
  N   -0.56875131660897      1.68724444885488     -0.53967221401681
  H   0.12942078401102      1.80586920296905     -1.25312905960339
  H   -1.41009545852491      2.22107663170299     -0.67988826946093
  N   -2.00201719920137      0.09763122821334      0.34365302186008
  H   -2.09261706987399     -0.84752480954002      0.69242316680707
  H   -2.72959889975021      0.40583417178677     -0.28184792494413
