15
Coordinates from ORCA-job run
  C   0.44686180066233     -0.38807228416365      0.09920401463659
  C   -0.60717787291515      0.45856158210316      0.07246951730941
  N   0.17394944570464     -1.77999872606928      0.44692219420982
  O   -0.67687250986727     -2.37690572361874     -0.21313630117507
  O   0.80490081458541     -2.25539532362514      1.39245272295888
  C   1.86820690930138     -0.03962498828474     -0.17695756532681
  H   2.51076888791604     -0.52873695202293      0.55733500313130
  H   2.18533323205798     -0.35348142330421     -1.17688645469919
  H   1.97224642729315      1.04230093600362     -0.09229425993240
  N   -1.90477537861030     -0.02299131534868      0.39966816601183
  H   -2.30189774804737     -0.60180878488779     -0.32953775959216
  H   -2.54153050269611      0.73591219924890      0.60508637368737
  N   -0.39314147941292      1.81324263337286     -0.31623568077521
  H   -1.12382860073792      2.40253543285232      0.05799536903434
  H   -0.41404342523390      1.89446273774432     -1.32608533947870
