15
Coordinates from ORCA-job run
  C   0.45830316885226     -0.28129721266360     -0.18577135966526
  C   -0.70544390646429      0.44665755386479     -0.04814022115024
  N   0.53200024003806     -1.37358135368262     -1.09710469974480
  O   -0.33140694765074     -1.51492309588130     -1.98693447810253
  O   1.48255867212319     -2.15420983321744     -0.96889636522640
  C   1.64665070340986     -0.08871453583107      0.70269536139370
  H   1.68273362750605      0.94124604133255      1.06260399599982
  H   1.64999344008478     -0.76878563873703      1.56165331921128
  H   2.56085453735099     -0.28677667504717      0.14324713407159
  N   -0.80252750815025      1.36275231916692      0.98082816628757
  H   -1.66412257066981      1.87885399175960      1.04249786223189
  H   -0.40583905238246      1.09840171365827      1.86586426242379
  N   -1.75780163056198      0.44740736457132     -0.91924356631144
  H   -2.67213151163226      0.54618413157302     -0.50698235312913
  H   -1.67482126185339     -0.25321477086624     -1.64431705828984
