15
Coordinates from ORCA-job run
  C   0.36571636360873     -0.40576309302428      0.03807118027805
  C   -0.74859292797155      0.39176049156181     -0.10142535354522
  N   0.25594401447884     -1.70420986230570      0.62955460221518
  O   1.29938142690525     -2.23607656243194      1.02442089397747
  O   -0.85410661916840     -2.26144846757540      0.72088292318822
  C   1.76522251358188      0.06731153643158     -0.21228020303670
  H   1.79008268052765      0.80309294228776     -1.01951905556422
  H   2.23310230985593      0.50157249508444      0.67710268850636
  H   2.38605270504105     -0.77396795953535     -0.51824411153527
  N   -0.62904590637191      1.74706089818087     -0.35668223626786
  H   0.30541015618997      2.09622612295614     -0.48040416621385
  H   -1.28200664059472      2.09721967482268     -1.04145407506117
  N   -2.05279190221450     -0.01440952619618     -0.03112024589366
  H   -2.16189643318809     -0.96885501799473      0.28240723348115
  H   -2.67347174068011      0.66048632773830      0.38868992547151
