15
Coordinates from ORCA-job run
  C   0.34779042629390     -0.44064564283831     -0.09302250612452
  C   -0.71491876389735      0.43352601236704      0.00376450289076
  N   0.22590397289814     -1.78878591529923      0.35147990500885
  O   -0.89902842541070     -2.28716078110947      0.55921468678414
  O   1.27204215121846     -2.42897257455318      0.50958793049850
  C   1.71859253525267     -0.01012123052857     -0.51034658332443
  H   2.21306152624100     -0.82134832019229     -1.04462888870090
  H   1.65324566450228      0.84944375088666     -1.18013317979414
  H   2.36153034557751      0.24474455709380      0.33929519104933
  N   -2.02053002996330      0.08848709875957      0.21027684704903
  H   -2.14501784065917     -0.89279341971008      0.42213181502590
  H   -2.56455975124802      0.72984831869117      0.76561476713220
  N   -0.50151685964943      1.77448757936219     -0.24987648522251
  H   0.35682858753172      2.17146031649964      0.09113332845081
  H   -1.30342353868770      2.37783025057106     -0.17549133072302
