15
Coordinates from ORCA-job run
  C   0.36774520035078     -0.36259939605122      0.18333729430201
  C   -0.68258424968063      0.50759461169887     -0.00985446263838
  N   0.93143558701625     -0.53676228218705      1.48689088255534
  O   0.29694791686827     -0.18174154015859      2.49818839325490
  O   2.04994273546548     -1.05814810526522      1.55499871047601
  C   1.11980982427333     -1.02023665202851     -0.93339115915483
  H   1.96092828681881     -0.41829224559850     -1.29241032705866
  H   1.53290168049777     -1.96734018131578     -0.58834943784837
  H   0.45759051690213     -1.23867914455093     -1.77452176015898
  N   -1.49715651516233      1.02588953350147      0.95861272328448
  H   -1.79870804646924      1.97208021994027      0.78373286710274
  H   -1.18524936294955      0.82696849285711      1.89892079817173
  N   -1.02699946575242      0.94002414324706     -1.27913643957712
  H   -2.02131895856524      0.96981956373791     -1.44809835257166
  H   -0.50528514961339      0.54242298217310     -2.04091973013922
