15
Coordinates from ORCA-job run
  C   0.36065966872857     -0.41106030153133      0.02912024196355
  C   -0.74678352396488      0.40250560131041     -0.06750489690320
  N   0.26814448355242     -1.68320352823629      0.67769769940165
  O   -0.84252025285319     -2.21581271404484      0.86165292317141
  O   1.32620015294238     -2.21861846314465      1.02627213368559
  C   1.74863518769167      0.02432111184511     -0.33018526999409
  H   2.33344177804876     -0.83971522473283     -0.64361013165849
  H   2.28161649672819      0.48221484452313      0.50926660217529
  H   1.73247768089313      0.72865306074094     -1.16520526324406
  N   -2.04969564326786      0.02447988064946      0.10517327532969
  H   -2.15424316178030     -0.91559970380051      0.46067219854314
  H   -2.63075250131211      0.72634995150249      0.53714967020331
  N   -0.62166862250197      1.74442283289347     -0.38300748154128
  H   0.30805677676385      2.07027937108638     -0.58234859711024
  H   -1.31356851966867      2.08178328093908     -1.03514310402227
