15
Coordinates from ORCA-job run
  C   0.34723171309442     -0.41700575727593     -0.06991754185666
  C   -0.73454299501362      0.42709292068115      0.04930899760897
  N   0.23619814133473     -1.79228411451964      0.31078243420762
  O   1.28817812842125     -2.41471644192646      0.49360972275620
  O   -0.88397362256225     -2.32164679330437      0.43594809247851
  C   1.73474531465644      0.04542596214659     -0.39572001469345
  H   2.31734186304056      0.30152751039015      0.49500095657077
  H   1.71111913468539      0.91012046904807     -1.06291363806616
  H   2.27425863754152     -0.74937968743387     -0.90954573511207
  N   -2.04258590864127      0.05563748352175      0.19712002951036
  H   -2.16679762622076     -0.93340089678556      0.36255471207850
  H   -2.58200148675982      0.67019547406421      0.78742343946134
  N   -0.57704986156960      1.80224022427444      0.00711085582142
  H   0.35579846758990      2.13721397750075     -0.16042539401117
  H   -1.27791989959688      2.27997966961873     -0.53933691675419
