15
Coordinates from ORCA-job run
  C   0.49482601434685     -0.21601223331450     -0.18037249603959
  C   -0.75258935803106      0.36018324421854     -0.05909088224666
  N   0.72379592639460     -1.26932475438879     -1.11211554378304
  O   -0.09266929741284     -1.49148853825119     -2.02926887074146
  O   1.75788025984668     -1.93303832764680     -0.97247052497212
  C   1.62733731465015      0.09465578789290      0.74665603135116
  H   1.52839019643961      1.11135946506978      1.13174054167689
  H   1.68958007501940     -0.60268096424630      1.58942075003261
  H   2.57352220869819      0.02343242116756      0.21045998093535
  N   -0.98637535597190      1.23222750872637      0.98712529665505
  H   -1.91024407914908      1.62807051205667      1.03936824983316
  H   -0.58521979230654      0.98912728252201      1.87651794906228
  N   -1.77460331673548      0.25473804064709     -0.95943281888488
  H   -1.58889413255956     -0.41278750031938     -1.69658052716701
  H   -2.70473666322903      0.23253805586603     -0.57195713571174
