15
Coordinates from ORCA-job run
  C   0.37635383782044     -0.36756591493456      0.15230077698788
  C   -0.73246738988542      0.43283868045322     -0.01216461890248
  N   0.22988780872340     -1.72644978285415      0.57658377857711
  O   1.19085813416513     -2.48231847775481      0.39553117933296
  O   -0.82684809365516     -2.10618357456860      1.11509809141733
  C   1.75716111227938      0.02262950951398     -0.27928292598281
  H   1.97555610890469     -0.26056260821790     -1.31393624317086
  H   1.91123521897873      1.09843649378857     -0.16736230675595
  H   2.49236813670956     -0.47917031508882      0.34876126036796
  N   -1.98454749701292      0.19852866282387      0.48499790500257
  H   -2.09296154935821     -0.71947103315737      0.89306606760436
  H   -2.73311334636042      0.50500130895623     -0.11709148717108
  N   -0.65883206242548      1.61996086504149     -0.72183509994996
  H   -1.15648704416688      2.38575776314762     -0.29279123144855
  H   0.25183662528316      1.87756842285124     -1.06087514590848
