15
Coordinates from ORCA-job run
  C   0.40897033965019     -0.33239961624560      0.20899522140515
  C   -0.70016686053966      0.45855439644865      0.00394111612493
  N   1.02789569459334     -0.39640684946316      1.49978033034440
  O   2.15578223292456     -0.89095241303719      1.58616434798206
  O   0.41583688105440      0.03818471261043      2.49317022882841
  C   1.12692928303629     -0.98454017098464     -0.93383093436392
  H   1.65245417454407     -0.26232798980240     -1.56934988744752
  H   1.87017516521485     -1.67412382912175     -0.54294919441346
  H   0.43509587300604     -1.55244512213748     -1.56464359862726
  N   -1.49553418211412      1.03828705617509      0.95262875787031
  H   -1.88113381908791      1.92853087005521      0.67906610518917
  H   -1.11297277509624      0.97526810518275      1.88533802844703
  N   -1.12100840927020      0.72400631231674     -1.28999244344255
  H   -2.12500583831286      0.72813417773489     -1.39292858197182
  H   -0.65731775960274      0.20223036026846     -2.01438949592494
