15
Coordinates from ORCA-job run
  C   0.35565072584883     -0.43666624658926     -0.07599100195382
  C   -0.71899789656290      0.42644530153648     -0.02521558534063
  N   0.23025168088424     -1.78556941735221      0.36566011866771
  O   -0.89689728618393     -2.29339129630345      0.53493001093340
  O   1.27572104298279     -2.41611589293701      0.56211274826493
  C   1.73647289138916      0.00622863404310     -0.44444408321779
  H   2.34407970508851      0.27495822703222      0.42676985598012
  H   1.68838605590153      0.86031381070794     -1.12276409929959
  H   2.25944462627699     -0.80352167033336     -0.95304615416419
  N   -0.50918876604832      1.76874621890042     -0.27807862477905
  H   0.33270584088326      2.17206375003521      0.09568832786160
  H   -1.31843205744382      2.36450855530568     -0.22123386243641
  N   -2.02801103868779      0.06803175063661      0.13155587072671
  H   -2.14879174544446     -0.91309429417961      0.34666048086614
  H   -2.60139377888409      0.70706256949724      0.65939599789086
