15
Coordinates from ORCA-job run
  C   0.38971924766883     -0.37824836917031      0.06993764107865
  C   -0.72484285731206      0.42955636547836      0.11895556047654
  N   0.28928136184986     -1.76880751058698      0.39285066833342
  O   -0.69190558113283     -2.19690559407593      1.02922214779622
  O   1.21314825888858     -2.50306075834307      0.02560384410036
  C   1.70693530441107      0.05401386348346     -0.49850825442450
  H   1.88269766381884      1.11571922593481     -0.30967901844852
  H   2.51229753422614     -0.50068795602356     -0.01842746458953
  H   1.78903759411111     -0.13237667290215     -1.57413979605571
  N   -0.73376625238602      1.67207701703026     -0.49219053000593
  H   -1.17001506432335      2.39737388026927      0.05713211997475
  H   0.12797204703749      1.96149878018162     -0.92146154517455
  N   -1.90454074953734      0.14949823705158      0.75170920485542
  H   -1.96522145445254     -0.80024960969487      1.09138897917478
  H   -2.72179705286777      0.50059910136751      0.27660644290860
