15
Coordinates from ORCA-job run
  C   0.34695753336529     -0.42335450239805     -0.03428263301181
  C   -0.73526401385253      0.42584048158545      0.04105902248045
  N   0.28948989606295     -1.72176765982806      0.56378815480435
  O   1.36249594442463     -2.30358638241421      0.75796093952120
  O   -0.80892731098249     -2.23074106140865      0.85658251281281
  C   1.69614755607110     -0.00913939849503     -0.53770145820315
  H   2.33861239569141      0.39559177385873      0.25095395434513
  H   2.21194956215582     -0.87334054812074     -0.95462614771673
  H   1.60453400733083      0.73305467610729     -1.33419199997214
  N   -0.60168416887827      1.77732587331286     -0.22599322629961
  H   -1.35480862091916      2.16703274212467     -0.77254540607406
  H   0.30829569212319      2.08549471612927     -0.52135398342447
  N   -2.02041272396574      0.07757445787360      0.35264763714281
  H   -2.52198537684992      0.77360614256244      0.88251022225874
  H   -2.11340037177713     -0.87559131088958      0.67519241133648
