15
Coordinates from ORCA-job run
  C   0.39752668088903     -0.39913564745473      0.08052778735860
  C   -0.67559364813565      0.46307539705580      0.16818327786325
  N   0.23250785155309     -1.79501170783060      0.31378392764744
  O   1.14525102332727     -2.54225265517295     -0.05738847015418
  O   -0.79409072517833     -2.22523416002754      0.87770764454255
  C   1.74463065011635      0.02802266904120     -0.41072900274776
  H   2.52050207537612     -0.54979994464357      0.09136456422894
  H   1.90720470762194      1.08418056413815     -0.18745129478225
  H   1.87680419527453     -0.13553273981398     -1.48594163988670
  N   -0.51938675068234      1.76828344957478     -0.25668430130446
  H   0.02535140657364      1.91281287377423     -1.08924600351946
  H   -1.32492770343796      2.36558283676058     -0.17276369365376
  N   -1.87568463537475      0.19172526597923      0.76222382218392
  H   -2.68574958661410      0.60967624270228      0.33214860244875
  H   -1.97434554130884     -0.77739244408288      1.03526477977512
