15
Coordinates from ORCA-job run
  C   0.35402016328050     -0.43819016022969     -0.07913048889478
  C   -0.71848515356848      0.42752699823067     -0.02530188237306
  N   0.22856074702450     -1.78380400086080      0.37222936792967
  O   1.27414631110919     -2.41386722455377      0.56976293277209
  O   -0.89842541408827     -2.28990398856253      0.54777409529942
  C   1.73505738866874      0.00094606267437     -0.45116888560730
  H   2.34576703251863      0.26589428574474      0.41898332014592
  H   2.25405345635365     -0.80939354057492     -0.96294100641483
  H   1.68706035165683      0.85653886275557     -1.12752180761051
  N   -0.50756532829354      1.76860505833939     -0.28342642951704
  H   -1.31625853879733      2.36531555996014     -0.22936382299039
  H   0.33532096689904      2.17304531373818      0.08677887181904
  N   -2.02760856181282      0.07239240346225      0.13796444784872
  H   -2.14931763737768     -0.90793094052517      0.35637263806592
  H   -2.59632578357296      0.71382531040155      0.66798864952713
