15
Coordinates from ORCA-job run
  C   0.34724426730884     -0.41826614407407     -0.06720596427477
  C   -0.73387068243890      0.42742987349407      0.04705554703865
  N   0.23191469986896     -1.79403749549593      0.30891357241216
  O   -0.89003711576603     -2.32256167816086      0.42284266816233
  O   1.28125778172067     -2.41916559818215      0.49794739202237
  C   1.73554128998472      0.04508375022229     -0.38821186498425
  H   1.71338546025092      0.89990858451437     -1.06836441078626
  H   2.30989330269177      0.31739727954477      0.50320855491978
  H   2.28304286399838     -0.75440696673968     -0.88575835830466
  N   -0.57229508539525      1.80198606042869      0.00641142207869
  H   -1.27248355295886      2.28189752939271     -0.53904263411139
  H   0.36128237562154      2.13432144345277     -0.16266019914783
  N   -2.04287382508225      0.05831887397059      0.19176133507955
  H   -2.16812980765406     -0.93129546291907      0.35327842964930
  H   -2.58287197215044      0.67338995055149      0.78082451024634
