16

C	-0.453316	0.042293	-1.449089
C	0.0	0.0	0.0
F	-1.819936	0.183309	-1.533029
H	1.094043	0.0	0.0
H	0.02384	0.836771	-2.023473
N	-0.110559	-1.239499	-2.157882
O	-0.945533	-2.14355	-2.136749
O	1.002123	-1.289983	-2.671118
N	-0.470358	-1.173527	0.723197
H	-1.391564	-1.448406	0.404141
H	0.165664	-1.944906	0.568971
C	-0.472338	1.274141	0.691351
H	-1.562425	1.30037	0.771032
H	-0.131513	2.166066	0.157556
H	-0.045012	1.288011	1.693828
Br	3.606536	0.0	0.0
