16

C	-0.51829	0.071836	-1.419925
C	0.0	0.0	0.0
F	-1.852625	0.407184	-1.455547
H	1.093452	0.0	0.0
H	0.037295	0.777662	-2.039449
N	-0.374674	-1.270189	-2.080649
O	0.772865	-1.573597	-2.376032
O	-1.379193	-1.947344	-2.253261
N	-0.439636	-1.24316	0.624001
H	0.264163	-1.54465	1.286084
H	-1.320699	-1.117559	1.107993
C	-0.421128	1.268933	0.743306
H	-0.091309	2.168093	0.212844
H	0.056801	1.271077	1.725052
H	-1.507158	1.317255	0.869198
Br	3.62913	0.0	0.0
