16

C	-0.542509	-0.050498	-1.415412
C	0.0	0.0	0.0
F	0.10236	-0.986379	-2.156441
H	1.095026	0.0	0.0
H	-1.611202	-0.270318	-1.413849
N	-0.418815	1.270194	-2.135033
O	-1.346265	2.058629	-1.941595
O	0.563855	1.474449	-2.831559
N	-0.456513	-1.264106	0.61046
H	-0.940876	-1.067383	1.478936
H	0.365807	-1.811726	0.83762
C	-0.481852	1.212923	0.77907
H	-1.575262	1.252582	0.834524
H	-0.126275	2.146248	0.342406
H	-0.073219	1.148506	1.790349
Br	3.585224	0.0	0.0
