16

C	-0.546122	-0.021266	-1.409201
C	0.0	0.0	0.0
F	-0.093109	-1.113765	-2.087905
H	1.100909	0.0	0.0
H	-1.638036	-0.033891	-1.41328
N	-0.154868	1.200855	-2.200887
O	0.810804	1.134179	-2.946254
O	-0.872812	2.18605	-2.021861
N	-0.526542	-1.239201	0.607641
H	-0.262146	-1.216102	1.58741
H	0.001973	-2.009084	0.208206
C	-0.495872	1.198161	0.79001
H	-0.12928	1.111829	1.816501
H	-0.108946	2.132333	0.384888
H	-1.589077	1.238592	0.808115
Br	3.610667	0.0	0.0
