16

C	-0.402564	-0.005671	-1.461029
C	0.0	0.0	0.0
F	0.167737	1.018107	-2.142112
H	1.095885	0.0	0.0
H	-0.17015	-0.959443	-1.93407
N	-1.905269	0.174928	-1.581334
O	-2.33979	1.277244	-1.89829
O	-2.589227	-0.80384	-1.288253
N	-0.405705	-1.2664	0.600995
H	-1.355661	-1.215417	0.952749
H	0.221934	-1.4662	1.371452
C	-0.484534	1.254777	0.717441
H	-0.205258	2.15688	0.168758
H	-0.014014	1.299124	1.701907
H	-1.572878	1.24909	0.850682
Br	3.573473	0.0	0.0
