16

C	-0.351777	0.008591	-1.486118
C	0.0	0.0	0.0
F	0.181524	1.080962	-2.122674
H	1.096156	0.0	0.0
H	-0.04334	-0.910249	-1.987464
N	-1.850737	0.093838	-1.664777
O	-2.355849	1.180199	-1.920983
O	-2.470655	-0.954954	-1.469952
N	-0.418663	-1.208392	0.696605
H	-1.333104	-1.517966	0.391106
H	0.252441	-1.945761	0.519898
C	-0.524346	1.243891	0.696893
H	-1.613234	1.210483	0.812763
H	-0.255789	2.148493	0.148507
H	-0.074749	1.286916	1.688904
Br	3.564967	0.0	0.0
