17

C	-0.316075	-0.000915	-1.505337
C	0.0	0.0	0.0
Cl	-0.039484	-1.723452	-2.169013
H	1.096699	0.0	0.0
C	-1.732027	0.26439	-1.789694
N	-2.870176	0.483648	-1.980199
N	0.520553	0.949819	-2.13356
H	0.460983	0.902544	-3.142473
H	1.485336	0.809249	-1.828963
N	-0.620704	-1.131773	0.675133
H	-0.540673	-0.969095	1.673148
H	-0.078959	-1.965643	0.474883
C	-0.488481	1.294776	0.632196
H	-0.148667	2.158265	0.061802
H	-1.580618	1.301919	0.697758
H	-0.072744	1.372767	1.641032
Br	3.58222	0.0	0.0
