17

C	-0.449544	0.014978	-1.460672
C	0.0	0.0	0.0
Cl	-2.401493	0.082374	-1.429183
H	1.095975	0.0	0.0
C	-0.125531	1.250392	-2.172083
N	0.120092	2.239509	-2.756073
N	0.004987	-1.106333	-2.128191
H	-0.091363	-1.920798	-1.532794
H	-0.352524	-1.223731	-3.06394
N	-0.386994	-1.297859	0.553219
H	-1.278329	-1.229558	1.032643
H	0.327247	-1.585992	1.212802
C	-0.461888	1.205224	0.802251
H	-1.544028	1.202205	0.953491
H	0.038366	1.180866	1.772436
H	-0.178426	2.139528	0.311153
Br	3.518457	0.0	0.0
