17

C	-0.463664	-0.007369	-1.457849
C	0.0	0.0	0.0
Cl	-2.409	0.043261	-1.410221
H	1.095965	0.0	0.0
C	-0.152598	1.221259	-2.188072
N	0.077923	2.203765	-2.789692
N	-0.004876	-1.135731	-2.115495
H	-0.385431	-1.27391	-3.039128
H	-0.093279	-1.938997	-1.503411
N	-0.377648	-1.291117	0.575671
H	0.345915	-1.569528	1.227416
H	-1.260782	-1.219939	1.067529
C	-0.462484	1.213769	0.788647
H	-0.189244	2.143095	0.282478
H	-1.543855	1.206058	0.94973
H	0.04544	1.205789	1.756086
Br	3.528112	0.0	0.0
