17

C	-0.515711	-0.032857	-1.444963
C	0.0	0.0	0.0
Cl	0.263151	-1.36227	-2.347393
H	1.094024	0.0	0.0
C	-1.968169	-0.332963	-1.415421
N	-3.135628	-0.462589	-1.348328
N	-0.228483	1.196979	-2.155626
H	-0.479469	1.092237	-3.132296
H	-0.780451	1.94989	-1.760145
N	-0.44393	-1.224483	0.659632
H	-1.243736	-1.050361	1.25789
H	0.31511	-1.588725	1.221219
C	-0.458572	1.266371	0.719414
H	-0.098256	1.219193	1.749166
H	-0.023882	2.161602	0.270625
H	-1.552881	1.353105	0.740256
Br	3.633775	0.0	0.0
