17

C	-0.46187	0.013368	-1.458343
C	0.0	0.0	0.0
Cl	-2.406311	0.061174	-1.412977
H	1.095946	0.0	0.0
C	-0.149505	1.252971	-2.169105
N	0.083613	2.244395	-2.754549
N	-0.000701	-1.105004	-2.131007
H	-0.091106	-1.91766	-1.531379
H	-0.378125	-1.228284	-3.058225
N	-0.378929	-1.29839	0.557685
H	-1.264832	-1.233625	1.045633
H	0.340781	-1.584437	1.210565
C	-0.461358	1.203527	0.805291
H	0.041189	1.178177	1.775216
H	-1.54359	1.198157	0.960679
H	-0.181178	2.139289	0.315032
Br	3.534619	0.0	0.0
