13
Coordinates from ORCA-job run
  C   -0.61562855104653     -0.01598612571663      0.12318026263267
  C   0.70576694245933      0.12201218617007      0.44101660961924
  C   -1.58952396870038     -0.05275256016455      1.15840846747405
  N   -2.43260496261085     -0.09171829070579      1.98110447657306
  C   -1.05421052064889     -0.14482176767050     -1.31098550705235
  H   -2.13905696396982     -0.08944622504263     -1.39068688918491
  H   -0.73752517489408     -1.10242210675778     -1.74032359694897
  H   -0.62599470628035      0.66018233661944     -1.91682759064555
  C   1.11918338403372      0.28494884365360      1.80410474688995
  N   1.49750146506490      0.41155286143795      2.91165931751834
  N   1.71030474925168      0.21279953528443     -0.50466516226720
  H   1.51784371966736     -0.22874789469946     -1.39056066788303
  H   2.64294458767390      0.03739920759187     -0.16542446672529
