13
Coordinates from ORCA-job run
  C   -0.56217580170442      0.04902986618243     -0.00621104618650
  C   0.76715759314085     -0.03577348232804      0.30705877729464
  C   -1.47470016659907      0.02779411074747      1.08792809843557
  N   -2.20043545683790     -0.00324574462132      2.01677878685330
  C   -1.11626460916748      0.17449220451161     -1.39766160158105
  H   -1.64885084195558      1.12185145126496     -1.51594575628690
  H   -1.82362213751799     -0.63309202437810     -1.60224443244907
  H   -0.31961641251562      0.13308127920867     -2.14154103334818
  C   1.73922184975087     -0.04002975683559     -0.74990985278702
  N   2.54355093827145     -0.06232943439564     -1.60874782927689
  N   1.29234528567678     -0.02461554212475      1.58368374536885
  H   0.63047683092620     -0.20463612828174      2.32599587282777
  H   2.17291292853193     -0.50152679894996      1.69881627113548
