13
Coordinates from ORCA-job run
  C   -0.32877545398930      0.34296497614762     -0.30659934725907
  C   0.63610583476179     -0.24150360740048      0.46781491719972
  C   -0.05984421789140      1.66561086706361     -0.76324941972236
  N   0.20334792955238      2.75569505091132     -1.12766534266907
  C   -1.63602032018733     -0.29431511080246     -0.68603902957175
  H   -1.69665255993811     -1.31695382511096     -0.31123594345277
  H   -2.47439238858527      0.27376003559003     -0.27408166436550
  H   -1.75062505748363     -0.31607938926560     -1.77269654288468
  C   0.43793311010900     -1.58066929772772      0.94707999358354
  N   0.29934000968097     -2.68122966106273      1.34040977837139
  N   1.78043765451009      0.37888513596469      0.92723887413041
  H   2.02270047988022      1.24200510943141      0.46074613841729
  H   2.56744497958058     -0.22717028373872      1.09827758822286
