13
Coordinates from ORCA-job run
  C   -0.53763392801788      0.31085762920778      0.09519040167261
  C   0.62472734085957     -0.29641682853360      0.47838257508819
  C   -1.31362292802568      1.01688717428262      1.05450428663448
  N   -1.98823926318234      1.61563768341073      1.81316384907504
  C   -1.00290398679646      0.25063511555547     -1.33466452089738
  H   -0.35107044263264      0.83742940625992     -1.99230628525908
  H   -1.00669665149048     -0.78378285419342     -1.69320306051234
  H   -2.01323245652421      0.64582814863756     -1.43059228052918
  C   1.04530275087237     -0.27574967741382      1.84893159561073
  N   1.42429866352751     -0.27262729472811      2.96353984788929
  N   1.41316021021973     -1.03935646805997     -0.37982203954823
  H   2.35460805842261     -1.21419030793156     -0.06604251608609
  H   1.35130263276792     -0.79615172649359     -1.35608185313803
