13
Coordinates from ORCA-job run
  C   -0.36907943923999      0.37674995737838     -0.20070659554943
  C   0.68102064444689     -0.29153199500719      0.36776887744060
  C   -0.21199894539047      1.78358633659409     -0.36336355550995
  N   -0.04237094442169      2.94332901362452     -0.49157302616675
  C   -1.65837226904801     -0.25581154196824     -0.64419014712875
  H   -2.50139544979250      0.15368539772026     -0.08119858486587
  H   -1.63635219306997     -1.33589844949047     -0.49451562234846
  H   -1.83826770363771     -0.05667973756614     -1.70355652822570
  C   0.59598293943627     -1.71392436979725      0.54575655756755
  N   0.54655879885411     -2.88180569702034      0.68303533360532
  N   1.81540562560110      0.29588746729286      0.89192557358548
  H   2.64809553608628     -0.27201102914207      0.87587014920450
  H   1.97177340017568      1.25542464738160      0.61574756839144
