13
Coordinates from ORCA-job run
  C   -0.57078736789571      0.23326246835495      0.13388657599126
  C   0.66258990659705     -0.27028033784912      0.43642128092362
  C   -1.40368387497268      0.72794598540190      1.17436591417754
  N   -2.12715843113574      1.14730702568339      2.00470718929765
  C   -1.05255823956801      0.28145591489455     -1.29057865384002
  H   -0.92440695644627     -0.69379419916008     -1.77112418660957
  H   -2.10769633477192      0.54754492682041     -1.33690986229536
  H   -0.49721864184469      1.02317741349755     -1.87678411021547
  C   1.10561099601166     -0.35869539221192      1.79735712225799
  N   1.51019809327189     -0.44551975497042      2.89950387686891
  N   1.51600628807640     -0.81045017079196     -0.50638639790551
  H   1.41281412416560     -0.46482861457511     -1.44736059831248
  H   2.47529043851242     -0.91612526509413     -0.21709815033857
