13
Coordinates from ORCA-job run
  C   -0.61240044296810     -0.04422806674903      0.12859079943391
  C   0.70408278495004      0.15312237539624      0.43525304045560
  C   -1.57622303246795     -0.12126156020610      1.17078441182565
  N   -2.41193842161826     -0.19251959565014      1.99874188903733
  C   -1.05578610456020     -0.19297738818058     -1.30219757606075
  H   -2.14264592235061     -0.19397822039141     -1.37315895021387
  H   -0.69311907219080     -1.13176267545216     -1.73665223172810
  H   -0.67420089043526      0.63416092043412     -1.90927817601007
  C   1.11956169581811      0.33479640378899      1.79540748724007
  N   1.49479472278073      0.47831843918956      2.90206919407835
  N   1.69539686951495      0.28733621995619     -0.51923890687504
  H   1.51544750004262     -0.16663403710176     -1.40162320341214
  H   2.63803031348472      0.15662718496610     -0.18769777777094
