13
Coordinates from ORCA-job run
  C   -0.55214675206497      0.28321261760450      0.09573873301302
  C   0.67948536673636     -0.18097338979587      0.46147845537924
  C   -1.43368748699259      0.79871269507318      1.08495853463240
  N   -2.20167156695349      1.22147466032733      1.87274854371357
  C   -0.99412290192773      0.24500704474651     -1.34265774210061
  H   -1.15082459892918     -0.78484207620835     -1.68394783635733
  H   -0.24089142126832      0.70854259388506     -1.98777604060955
  H   -1.93199563849985      0.78289170454153     -1.47456885850463
  C   1.11527280273590     -0.10738604757135      1.82550079782890
  N   1.50274149642627     -0.07074697532110      2.93648891256349
  N   1.61381164295224     -0.65329936726707     -0.44155796374210
  H   2.35298037921103     -1.21388680888432     -0.04775625690304
  H   1.24104867857434     -1.02970665113004     -1.29964927891335
