13
Coordinates from ORCA-job run
  C   -0.49941440451730      0.36969250844571      0.09158528685183
  C   0.55660062729968     -0.40179200932660      0.48622967573762
  C   -1.22758265809674      1.11631119818384      1.05785083513560
  N   -1.86009698271087      1.75458579109852      1.82045410929314
  C   -0.89496666907301      0.45082603297462     -1.35852307365896
  H   -1.83825360321324      0.98305168521355     -1.47354471030016
  H   -1.01598861639238     -0.55224611339706     -1.78010257372949
  H   -0.13929800157795      0.98173284404962     -1.94896898511459
  C   0.90905974952531     -0.51000291265574      1.87188159126973
  N   1.23405567252811     -0.61640759487791      2.99828856298119
  N   1.28715369347110     -1.19277226167376     -0.38091590529853
  H   1.30217244517061     -0.88955143903813     -1.34245928952056
  H   2.18755874758666     -1.49242772899666     -0.04177552364682
