13
Coordinates from ORCA-job run
  C   -0.55029768193633      0.27029764226645      0.13238472348432
  C   0.62682681202843     -0.35198257711002      0.43787538272879
  C   -1.36676267039753      0.78685812466707      1.17550674617108
  N   -2.07557007174182      1.23352142405920      2.00442231147662
  C   -0.99017237151669      0.42883501837134     -1.29850139812007
  H   -2.00904139690485      0.81053216809505     -1.35065773904807
  H   -0.34427237978000      1.13104082381306     -1.83801718759300
  H   -0.95901275797143     -0.53399288958936     -1.81845076346011
  C   1.02679815326391     -0.53443396395249      1.80263809898112
  N   1.38984206502585     -0.69039913240664      2.91154422965914
  N   1.45481972324439     -0.92304323805090     -0.51086357004087
  H   1.39555182899563     -0.52848948361494     -1.43701756470326
  H   2.40129074769047     -1.09774391654783     -0.21186326953568
