13
Coordinates from ORCA-job run
  C   -0.61617210945564     -0.01020464528209      0.12226724001586
  C   0.70967772823909     -0.01051866347741      0.45051930358426
  C   -1.59557327185425      0.10793247585576      1.14623656572803
  N   -2.44512197044877      0.21071887684045      1.95641255241349
  C   -1.05574583225728     -0.11969457243811     -1.31280674875066
  H   -2.13284553602450     -0.26768350094703     -1.38001221761197
  H   -0.56329861707813     -0.96630756379994     -1.80140171585874
  H   -0.80985348128826      0.78867553092574     -1.87514324710960
  C   1.12701368352702      0.05380630707021      1.82079084731741
  N   1.51409945656767      0.11458419567400      2.93104481090309
  N   1.72431463666844     -0.16619796240264     -0.47683102758204
  H   2.63838594889705      0.12619971283362     -0.16795096498461
  H   1.50611936450756      0.13868980914744     -1.41312539806453
