13
Coordinates from ORCA-job run
  C   -0.61718244772877     -0.00397578282928      0.11266070128734
  C   0.70404047552279     -0.01295714464610      0.45924149985365
  C   -1.60833589542204      0.12809336779345      1.12356924341823
  N   -2.45984333987334      0.24478339677360      1.93007553051310
  C   -1.03789474880331     -0.12154799135645     -1.32750758178247
  H   -0.55183372007390     -0.98021169078524     -1.80235085310577
  H   -0.77280820344792      0.77774729644867     -1.89557006073870
  H   -2.11592853842717     -0.25562030315161     -1.40704649683310
  C   1.10037109913387      0.06193637280989      1.83543525589858
  N   1.46331252872775      0.13005003972986      2.95326743422653
  N   1.73080933075601     -0.18576893175934     -0.45178550476946
  H   2.64085250996737      0.11105885013748     -0.13554020217478
  H   1.52444094966865      0.10741252083508     -1.39444896579314
