13
Coordinates from ORCA-job run
  C   -0.37212659326037      0.26615920666230     -0.33362137413107
  C   0.71681711358375     -0.15674875640325      0.37961493282442
  C   -0.25259035008553      1.52022416391401     -0.99736310719063
  N   -0.12373558830091      2.57032525874790     -1.51786522567145
  C   -1.64954340720093     -0.51087098579361     -0.49247820793152
  H   -1.68480308106729     -1.35171860110406      0.20098241548517
  H   -2.51343016603118      0.13018713707870     -0.30232336997958
  H   -1.74075425062040     -0.89849852142052     -1.51105929777455
  C   0.64840057386725     -1.40270276113917      1.09105285573715
  N   0.60453816781735     -2.40842316965008      1.70110235552098
  N   1.94144686860286      0.47674998349349      0.42518797279928
  H   2.47841217227537      0.33486087085811      1.26694496213553
  H   1.94836854042004      1.43045617475617      0.09182508817627
