13
Coordinates from ORCA-job run
  C   -0.50809300369422     -0.21928457750292     -0.12144401050906
  C   0.71284554207503      0.10810057747676      0.40211187587078
  C   -1.10080791567359     -1.42170736036967      0.36143774042894
  N   -1.55263443521505     -2.42801055390619      0.77835568341716
  C   -1.25156690518973      0.58916622950657     -1.14841412520095
  H   -0.75568756657447      1.54473700979750     -1.32799885556783
  H   -2.27087390130633      0.78861376734354     -0.80807158721824
  H   -1.31597185724054      0.04913921753926     -2.09758186025756
  C   1.38220745522682      1.28970804181862     -0.06450014433695
  N   1.95431316484370      2.24096707193949     -0.45567820059944
  N   1.35198476397840     -0.55691253022527      1.42962074321315
  H   0.99447538041626     -1.48060887380356      1.63149218744868
  H   2.35880927835372     -0.50390801961413      1.42267055331131
