13
Coordinates from ORCA-job run
  C   -0.51338937640085     -0.15470596345597     -0.17621667885835
  C   0.74319324673158     -0.06099475049278      0.35728725354898
  C   -1.09217015064591     -1.45635075085347     -0.21042275629410
  N   -1.53455585456155     -2.54917417409865     -0.22869561602756
  C   -1.31789432397949      1.00062601992180     -0.70211678846153
  H   -0.74664010672192      1.92881489018288     -0.65733634524698
  H   -1.60852664492758      0.82229316392486     -1.74058648917858
  H   -2.23274329103246      1.13033501897704     -0.11770188114423
  C   1.39367744191235      1.21844260615348      0.40393525241595
  N   1.94682936148726      2.25689380570819      0.43022308495222
  N   1.43812922285052     -1.09140555063041      0.95853795911948
  H   2.44295981788706     -1.02491403307796      0.91162645786031
  H   1.08213065740100     -2.01886028225900      0.77246654731440
