13
Coordinates from ORCA-job run
  C   -0.53094687017438     -0.18051159581226     -0.06989165287053
  C   0.77114789803936      0.02917530310322      0.29582272367815
  C   -1.13056619262299     -1.38926945630693      0.38760462468480
  N   -1.58712037792639     -2.40410316797127      0.77727968851503
  C   -1.36072127126691      0.76472787037637     -0.89276052413207
  H   -2.20862532544146      1.13795345536368     -0.31198274269852
  H   -1.75883930654160      0.25615384121611     -1.77440786803946
  H   -0.76852811888065      1.61879579765845     -1.22411400598078
  C   1.44524953839530      1.21550797792208     -0.15179688879748
  N   2.01684495316502      2.17281127634907     -0.52857170516008
  N   1.50092114689399     -0.76777510674465      1.15490207155190
  H   1.11287828876781     -1.68454161316447      1.32921628003408
  H   2.49830563759292     -0.76892458198940      1.00869999921496
