13
Coordinates from ORCA-job run
  C   -0.61677105653736     -0.00342027518447      0.11389144987428
  C   0.70946805838286      0.02628268972340      0.43937466306490
  C   -1.59126258763871      0.14363663478529      1.13944804137455
  N   -2.43255155257500      0.25898385446700      1.95818357426625
  C   -1.06837828657370     -0.18125304662658     -1.30694912726772
  H   -2.06933950194133     -0.61208088306373     -1.33550555094813
  H   -0.39478856296864     -0.86251373988307     -1.83459271051007
  H   -1.09828269445969      0.76538943656584     -1.85312488924056
  C   1.12483500249485      0.09456214188031      1.81006354829776
  N   1.53565719279018      0.11480839237762      2.91124901964341
  N   1.73218928954745     -0.12501762097298     -0.48519972273589
  H   1.52841196387418      0.22530271498189     -1.40693800744781
  H   2.63981273560491      0.15631970094948     -0.15190028837098
