13
Coordinates from ORCA-job run
  C   -0.40014045216815      0.33036087452473     -0.22240659353228
  C   0.73116900617325     -0.21576984684760      0.32002864180359
  C   -0.28947117852531      1.66467288687375     -0.70993640865697
  N   -0.15848688375302      2.76634143365709     -1.10931133791120
  C   -1.73074362701239     -0.36081882961238     -0.32547274540044
  H   -2.07016741911177     -0.38468896207399     -1.36404546573538
  H   -2.48630309621405      0.17005600882524      0.25987289290774
  H   -1.66936916790724     -1.38597122782904      0.04218341909908
  C   0.69522666749466     -1.56488973946899      0.81086592625134
  N   0.68692446833294     -2.67582698342435      1.19929652011823
  N   1.92032709139712      0.45149697355617      0.53513540149811
  H   2.75069203694081     -0.11983251333397      0.52275621403281
  H   2.02034255435314      1.32686992515335      0.04003353552538
