13
Coordinates from ORCA-job run
  C   -0.50727747608992     -0.19997639553216     -0.14747133988263
  C   0.78699872393169     -0.00627254896927      0.25224933693909
  C   -1.02912427489172     -1.51639793438036      0.01069940912043
  N   -1.42704494920770     -2.61556190808460      0.16503643486039
  C   -1.39504018026426      0.85562788236968     -0.74453260211162
  H   -2.31387818472482      0.95735487614298     -0.16166065317907
  H   -0.89169921972447      1.82300435303675     -0.76833514875193
  H   -1.67657096411925      0.58869859936170     -1.76662987563488
  C   1.36971664816834      1.30148142581754      0.14079436674163
  N   1.85414296160723      2.37200304649007      0.07455874995483
  N   1.64959237256358     -0.99444433925030      0.68287427267276
  H   1.21204995689582     -1.86907964350856      0.93808198748074
  H   2.36913458585550     -0.69743741349347      1.32333506179027
