13
Coordinates from ORCA-job run
  C   -0.41323415633667      0.38026117776145      0.05729593524522
  C   0.70357221945127     -0.40373610982899      0.15991695399842
  C   -0.44914863978729      1.54296117053898      0.88026809685092
  N   -0.43839591329800      2.49903121765709      1.57025160952234
  C   -1.58910928118702      0.09841652423615     -0.83520082137708
  H   -2.49352978119210     -0.06038391336670     -0.24164402978434
  H   -1.41578963106512     -0.79106785672839     -1.44237695708908
  H   -1.77282796173557      0.94316353002275     -1.50391748615346
  C   0.81565529610479     -1.57942113692924     -0.65686254814427
  N   0.93085262019214     -2.53508321922518     -1.33401375976445
  N   1.73006836944366     -0.22203755679408      1.06549147658941
  H   2.63375572381973     -0.55962941785502      0.77321653838692
  H   1.75913113559018      0.68652559051117      1.50757499171945
