13
Coordinates from ORCA-job run
  C   -0.54063203172199     -0.15992883579374     -0.03755055545542
  C   0.79004504855145     -0.00558369041196      0.24087277199896
  C   -1.15092071372382     -1.35955839111958      0.43048191217563
  N   -1.61641697221843     -2.36864319967561      0.82450410499743
  C   -1.39101520784881      0.83499053172860     -0.77635168915706
  H   -0.79576160864084      1.68427248292386     -1.11462690380727
  H   -2.19115649642819      1.20974446284945     -0.13227982094150
  H   -1.85637839967277      0.36864364528121     -1.64832244567181
  C   1.47417696987229      1.17032814247493     -0.21890293932871
  N   2.05527859754997      2.11833710805061     -0.60442996297305
  N   1.54828310625526     -0.85117615964119      1.02599219188006
  H   2.53236539918239     -0.88176554509395      0.80927802341061
  H   1.14113230884352     -1.75966055157264      1.20033531287212
