13
Coordinates from ORCA-job run
  C   -0.53768997075855     -0.17255344134251     -0.02842622259420
  C   0.80141444273158     -0.00658929851988      0.19949238483208
  C   -1.08867895300628     -1.43682382772870      0.32967421097246
  N   -1.50258655691069     -2.49849797619924      0.63267793819312
  C   -1.45218689525261      0.87106883083011     -0.60595265846807
  H   -1.95104717711753      0.49030125019522     -1.50065256908333
  H   -2.22614031286289      1.14616629751420      0.11556350558128
  H   -0.89822154350566      1.77120265683060     -0.87542493414227
  C   1.42807065825746      1.23513377396550     -0.15799906642517
  N   1.95930449738246      2.23994758377338     -0.46339568872392
  N   1.62282422963717     -0.91025953960154      0.84345484927922
  H   2.59456508308261     -0.88407111430350      0.57719484550285
  H   1.24937249832294     -1.84502519541366      0.93479340507594
