13
Coordinates from ORCA-job run
  C   -0.55528615148381     -0.07841039814648      0.06859177134608
  C   0.81079293717704     -0.06322283834323      0.14596665582893
  C   -1.22816498034224     -0.99758736205100      0.92464736862126
  N   -1.74733050177884     -1.77670535067363      1.64138020258324
  C   -1.38056935236161      0.80097430218744     -0.82823942640652
  H   -0.74492191424901      1.42369536631418     -1.45913221142375
  H   -2.02239910290672      0.19557918225403     -1.47317391898603
  H   -2.02583917034008      1.45582599461667     -0.23650526240624
  C   1.55398943997651      0.82464844404543     -0.70342312398523
  N   2.17788283641715      1.53272026636915     -1.40665898917622
  N   1.57040882528281     -0.77464406753595      1.05328622154711
  H   1.08885203303848     -1.52928111055680      1.52259503657892
  H   2.50158510157034     -1.01359242847982      0.74966567587845
