13
Coordinates from ORCA-job run
  C   -0.60282819009548     -0.13680452598563      0.11214974053830
  C   0.72956443414073     -0.08451299075925      0.40906558675764
  C   -1.49023375944248     -0.83462207621450      0.97651530619038
  N   -2.26282013230379     -1.40486944098240      1.65993249126144
  C   -1.14271300403980      0.52298781582510     -1.12834174973481
  H   -0.80575822384357      0.00598842505863     -2.03426057803836
  H   -2.23203173129928      0.51522503552755     -1.12872868849652
  H   -0.80887591095807      1.56413417555426     -1.18464682027370
  C   1.23689509909338     -0.67896104065807      1.61124517267299
  N   1.69316056016482     -1.16199939729866      2.58303923448553
  N   1.65249301900054      0.60985859461386     -0.35095019192318
  H   1.41779509388130      0.72673569540593     -1.32463060322194
  H   2.61635274570172      0.35683972991318     -0.20038890021777
