13
Coordinates from ORCA-job run
  C   -0.61406427430453     -0.02904209726593      0.12668176632094
  C   0.70451655288203      0.15568874593521      0.43237936471458
  C   -1.58147209404446     -0.05800934168325      1.16828861630429
  N   -2.41873163170197     -0.09324212932341      1.99703756714765
  C   -1.05632406960380     -0.21697454862843     -1.29968639602311
  H   -0.65374678685525      0.57920918635898     -1.93390908524723
  H   -2.14268754230666     -0.19362352149859     -1.37421171655028
  H   -0.71622492892767     -1.17926281412897     -1.69966070856920
  C   1.11927931774545      0.37502427739044      1.78719115416730
  N   1.49855554210098      0.55035959871688      2.88777104206451
  N   1.70220490329916      0.24203184103177     -0.52097837683754
  H   1.51899451099395     -0.23477718587555     -1.39039721094434
  H   2.64070050072276      0.10461798897084     -0.18050601654758
