13
Coordinates from ORCA-job run
  C   -0.55146071690543     -0.11835275488159      0.03395133583412
  C   0.79989546967952      0.00972102116968      0.20684478779736
  C   -1.21744210171456     -1.03305081497298      0.90007878538639
  N   -1.73073863146343     -1.80461371826535      1.62909010433263
  C   -1.36920941884215      0.63658088253441     -0.97616439214668
  H   -1.91269777848024     -0.05614594287170     -1.62357963844676
  H   -2.10481701616298      1.27309525934094     -0.47716625377403
  H   -0.73541173035722      1.26791549521930     -1.60025990939098
  C   1.53731270443887      0.89975233659757     -0.64539222385688
  N   2.15838041385131      1.61017239466010     -1.34876522695046
  N   1.53929505917156     -0.58169446762554      1.21156140801351
  H   1.08075744892438     -1.34007797409076      1.69736390791732
  H   2.50613629786039     -0.76430171681409      0.99243731528443
