13
Coordinates from ORCA-job run
  C   -0.27965567098068      0.37706262664606     -0.31486126615085
  C   0.59885852564373     -0.31664370110884      0.47236718383589
  C   0.17974663118020      1.62514871313518     -0.82619234266388
  N   0.60161110827590      2.64821653449415     -1.23323720324506
  C   -1.67167325736466     -0.07117700830266     -0.66104746630185
  H   -1.88780440440612     -1.04747707352864     -0.22548026880958
  H   -1.79432932360882     -0.14018697772536     -1.74481881273825
  H   -2.40990100071173      0.64339950230533     -0.28752096463906
  C   0.21091569118063     -1.59268928266518      1.00461876645823
  N   -0.08591072728410     -2.64835214945403      1.43185088699624
  N   1.82889118841046      0.14301942839321      0.89740014281901
  H   2.52068945567401     -0.56494327406619      1.08723011457553
  H   2.18856178399119      0.94562266187696      0.39969122986364
