13
Coordinates from ORCA-job run
  C   -0.54135231286569     -0.15991131919690     -0.02124651398050
  C   0.80995913923061     -0.04144180993359      0.15843636077958
  C   -1.16888900642846     -1.27463222898355      0.60641224558191
  N   -1.65244602823868     -2.20379515493244      1.14779646413083
  C   -1.39144874756965      0.77741998467409     -0.83219777266992
  H   -2.19964768897935      1.18760999768302     -0.22155193997068
  H   -1.84550192436357      0.25151228794300     -1.67633003960923
  H   -0.79824138439141      1.60563974907068     -1.22211522886485
  C   1.50341445352373      1.07067284402297     -0.42849744768696
  N   2.08294496809126      1.98688682491943     -0.88664080959617
  N   1.61820215164111     -0.96350352967269      0.79297316640411
  H   1.13389508984400     -1.64478614766971      1.36109485991594
  H   2.45011129050611     -0.59167149792433      1.22386665556594
