13
Coordinates from ORCA-job run
  C   -0.53230026827897     -0.18732853186978     -0.03084613415282
  C   0.79675466119814      0.02436139622765      0.21738863469869
  C   -1.05983152663837     -1.44703459989714      0.37548514169555
  N   -1.45491527449680     -2.50464014834221      0.71531018478352
  C   -1.46001154365124      0.80388159477336     -0.67553268163280
  H   -1.94293286956985      0.36264275931886     -1.55098040535068
  H   -2.24602488750834      1.10629216114946      0.02164102419700
  H   -0.91940742748526      1.69677713470511     -0.99241883841058
  C   1.40122386123797      1.26106325050433     -0.19195381247928
  N   1.91623673897936      2.26030193221171     -0.54037585217914
  N   1.62570282228842     -0.82525814921844      0.92204177860728
  H   1.27215627905094     -1.76259168602314      1.05504280326216
  H   2.60234943487400     -0.78846711353977      0.67519815696111
