13
Coordinates from ORCA-job run
  C   -0.61378598917916      0.07004359275122      0.11271423410138
  C   0.70302043174933     -0.03727828224090      0.46030037222459
  C   -1.61114242710767      0.09013822581165      1.12576854614613
  N   -2.47364080945311      0.10861858217097      1.92879265421571
  C   -1.02486531364239      0.15495418393679     -1.33286858556418
  H   -2.08511351172735      0.38849215561187     -1.42066788165075
  H   -0.84866160375966     -0.79305365789802     -1.85419978729621
  H   -0.45885165885680      0.93820356954671     -1.84727523027392
  C   1.09690361193370     -0.07815085928620      1.83836605415723
  N   1.45732295598057     -0.12426647751486      2.95813840000998
  N   1.73659948381516     -0.01614686863934     -0.45756146713656
  H   2.61935034934127     -0.37131145418871     -0.12573391897933
  H   1.50286448090612     -0.33024271006117     -1.38677338995407
