13
Coordinates from ORCA-job run
  C   -0.61109372122811     -0.05598018886512      0.12489741853652
  C   0.70849608089845      0.10142023199145      0.43847811262001
  C   -1.59806252861747      0.09562093071271      1.13780559996179
  N   -2.44992811365644      0.23207450793235      1.94071027424007
  C   -1.04115645621910     -0.38078668209428     -1.27986175279582
  H   -1.00168136837608      0.50513480003339     -1.92407556454609
  H   -0.38668563053114     -1.14528517683034     -1.71037225980855
  H   -2.06422217939814     -0.75473107385315     -1.29275723807271
  C   1.11386670555692      0.35597185111791      1.79037508782573
  N   1.48591264903489      0.57315330291556      2.88619426526998
  N   1.73268379871108     -0.05610508958774     -0.48239795822531
  H   2.61799879556322      0.33569702349912     -0.19913811706121
  H   1.49187196826194      0.19281556302815     -1.42985786794441
