13
Coordinates from ORCA-job run
  C   -0.54731566210468     -0.13806147237798     -0.03767835713825
  C   0.79769423776343     -0.06418878357513      0.20347390456786
  C   -1.17516811740822     -1.38365507091348      0.25297961645908
  N   -1.65377375704625     -2.43350216383787      0.49595396058141
  C   -1.39363432526587      0.98562973459158     -0.56703000247760
  H   -0.78407029249366      1.86095899189245     -0.79523658709308
  H   -2.15157434538181      1.27528051551931      0.16572637480006
  H   -1.91206258484968      0.67741044311557     -1.47842285247539
  C   1.49979048207682      1.15351802475294     -0.09009209960301
  N   2.09462282391837      2.13718896977891     -0.34255263136371
  N   1.55997357805381     -1.04654686265257      0.80304222427904
  H   1.13177032508304     -1.96090007871058      0.84762887419055
  H   2.53374763765472     -1.06313224758313      0.54320757527303
