13
Coordinates from ORCA-job run
  C   -0.61536859895186     -0.01543544878070      0.12015961630393
  C   0.70788549062392      0.03089854189681      0.45560613090964
  C   -1.60729343378065      0.12808324713475      1.12818429555178
  N   -2.47040503969796      0.24158896220492      1.92279663450446
  C   -1.04113181796474     -0.20524749002104     -1.31139098794651
  H   -0.53026486913926     -1.06750733279924     -1.75194594050305
  H   -0.80781486104567      0.67874664890993     -1.91641830227812
  H   -2.11476483416470     -0.37522031209197     -1.37641416920034
  C   1.11358715003415      0.17009324508780      1.82367666506824
  N   1.48246881631772      0.29102567722377      2.93510720251937
  N   1.73042915619711     -0.14663619773674     -0.45755473035152
  H   2.63955926535792      0.17068617395412     -0.15958723047799
  H   1.51411357621403      0.09892428501757     -1.41121918409986
