13
Coordinates from ORCA-job run
  C   -0.47901290709209     -0.31634194363752     -0.25550841206389
  C   0.83849868841509     -0.05866965647030     -0.00221853166322
  C   -0.84449575354716     -1.50357947504804     -0.94704672306744
  N   -1.19469423963921     -2.47534889955205     -1.51488461516353
  C   -1.55175561457286      0.63515359949887      0.20156306811644
  H   -1.64729117435179      0.63368412018463      1.29357931541843
  H   -2.51900346187818      0.35768723474631     -0.21541510262963
  H   -1.32090756967922      1.65594470503829     -0.11926447400007
  C   1.86254064702334     -0.94431814325057     -0.47382395495387
  N   2.73032710711142     -1.65123155902114     -0.83852487715884
  N   1.28070428115487      1.09183031167396      0.62485030383153
  H   2.21971873522437      1.05345963376201      0.98868135783080
  H   0.62437126183141      1.52273007207554      1.25801264550329
