13
Coordinates from ORCA-job run
  C   -0.52884012711051     -0.19077225747236     -0.05769583796610
  C   0.78749598098137      0.02344343900322      0.24811635345327
  C   -1.06055578671592     -1.46633267460789      0.28985366056063
  N   -1.45957239771326     -2.53624263531546      0.58368821224864
  C   -1.43960149060290      0.81181315848587     -0.70898455797937
  H   -0.89976414736245      1.72547081468915     -0.96134864788295
  H   -1.86999883176991      0.39957927353730     -1.62511870550526
  H   -2.26489605783094      1.07242485842036     -0.04101597686614
  C   1.39469290507796      1.27886163115161     -0.09431944173720
  N   1.91261744796328      2.29485585006722     -0.38524058974647
  N   1.59657974250468     -0.84117745192592      0.95805758661464
  H   1.25014333321054     -1.78697601655694      1.04187637807338
  H   2.58169942936807     -0.78594798947616      0.75113156673292
