11

C	-0.465583	-0.026445	-1.459519
C	0.0	0.0	0.0
Br	0.102175	1.607907	-2.365944
H	1.09262	0.0	0.0
H	0.031027	-0.844935	-1.985194
H	-0.356074	0.906589	0.495119
C	-1.912903	-0.148336	-1.602011
N	-3.07968	-0.251037	-1.699981
C	-0.499239	-1.1775	0.702776
N	-0.900015	-2.134232	1.253444
Br	3.457614	0.0	0.0
