11

C	-0.555652	0.015921	-1.429392
C	0.0	0.0	0.0
Br	0.11288	-1.484729	-2.480639
H	1.092731	0.0	0.0
H	-1.641974	-0.10115	-1.423847
H	-0.321507	0.918895	0.504323
C	-0.234896	1.261462	-2.115124
N	-0.012354	2.283267	-2.649886
C	-0.529885	-1.142934	0.733412
N	-1.005834	-2.043655	1.316761
Br	3.455272	0.0	0.0
