11

C	-0.469365	-0.007979	-1.458244
C	0.0	0.0	0.0
Br	0.127706	1.619582	-2.355626
H	1.092605	0.0	0.0
H	0.009758	-0.832471	-1.990257
H	-0.354528	0.901474	0.505484
C	-1.919696	-0.103926	-1.5947
N	-3.088626	-0.187369	-1.684918
C	-0.501908	-1.184672	0.688909
N	-0.905902	-2.147565	1.226293
Br	3.461826	0.0	0.0
