11

C	-0.562293	0.019336	-1.424844
C	0.0	0.0	0.0
Br	-0.003026	-1.588667	-2.382811
H	1.092625	0.0	0.0
H	-1.653657	-0.02296	-1.408762
H	-0.323702	-0.924989	0.486593
C	-0.163349	1.199483	-2.185244
N	0.147133	2.138655	-2.818838
C	-0.530578	1.13926	0.744387
N	-0.999627	2.053942	1.311424
Br	3.458198	0.0	0.0
