11

C	-0.412017	0.041373	-1.46948
C	0.0	0.0	0.0
Br	-2.353804	0.265284	-1.714075
H	1.095351	0.0	0.0
H	0.044713	0.903894	-1.957733
H	-0.35699	-0.915901	0.476875
C	-0.023531	-1.180121	-2.163692
N	0.257825	-2.181394	-2.709146
C	-0.486792	1.162808	0.73015
N	-0.879622	2.099949	1.317866
Br	3.419097	0.0	0.0
