11

C	-0.453909	-0.013927	-1.461265
C	0.0	0.0	0.0
Br	-0.050842	1.669049	-2.359511
H	1.092871	0.0	0.0
H	0.13303	-0.770344	-1.986612
H	-0.310115	-0.947692	0.455909
C	-1.876541	-0.299226	-1.616386
N	-3.017656	-0.560056	-1.720072
C	-0.570142	1.097661	0.766828
N	-1.054141	1.963275	1.395148
Br	3.446954	0.0	0.0
