11

C	0.0	0.0	0.0
C	-0.528922	-0.018109	-1.431996
F	1.372829	0.0	0.0
H	-1.637723	-0.017004	-1.300311
H	-0.367872	-0.882759	0.522308
H	-0.368109	0.89541	0.50013
C	-0.108085	-1.225433	-2.142921
N	0.211499	-2.205599	-2.704802
C	-0.109636	1.17153	-2.172966
N	0.209206	2.136735	-2.760538
Cl	-3.356004	0.0	0.0
