11

C	0.0	0.0	0.0
C	-0.422352	-0.288934	-1.465809
F	1.375188	0.0	0.0
H	0.533382	-0.392747	-1.999962
H	-0.366379	-0.772911	0.668642
H	-0.365106	0.969506	0.325269
C	-1.106936	0.82544	-2.129506
N	-1.448181	1.746372	-2.772084
C	-1.104065	-1.572478	-1.655955
N	-1.435801	-2.671382	-1.903084
Cl	-3.040643	0.0	0.0
