11

C	0.0	0.0	0.0
C	-0.280584	0.170518	-1.523468
F	1.375202	0.0	0.0
H	0.542696	-0.395291	-1.983603
H	-0.384509	-0.951085	0.359576
H	-0.40221	0.819764	0.585605
C	-0.050097	1.566571	-1.914434
N	0.201381	2.664857	-2.246268
C	-1.477928	-0.355892	-2.200394
N	-2.130284	-0.80003	-3.073852
Cl	-3.077209	0.0	0.0
