11

C	0.0	0.0	0.0
C	-0.528605	-0.049407	-1.431445
F	1.37262	0.0	0.0
H	-1.637561	-0.046157	-1.301207
H	-0.367771	-0.871319	0.541459
H	-0.368568	0.906008	0.48052
C	-0.105939	-1.270933	-2.116674
N	0.213524	-2.261111	-2.660662
C	-0.109494	1.124198	-2.197897
N	0.206865	2.076166	-2.807866
Cl	-3.354308	0.0	0.0
