11

C	0.0	0.0	0.0
C	-0.419696	-0.193299	-1.48301
F	1.375183	0.0	0.0
H	0.537523	-0.259187	-2.020863
H	-0.366205	0.946427	0.387626
H	-0.366611	-0.815495	0.616495
C	-1.105726	0.958024	-2.077729
N	-1.452582	1.909764	-2.671581
C	-1.100368	-1.461199	-1.760079
N	-1.450694	-2.53395	-2.080732
Cl	-3.035377	0.0	0.0
