14

C	0.0	0.0	0.0
C	-0.565098	0.317888	-1.381484
Br	1.941725	0.0	0.0
H	-0.335776	1.37325	-1.552558
H	-1.652141	0.216912	-1.253694
C	-0.424477	0.983142	0.989484
N	-0.652657	1.848385	1.751712
N	-0.411184	-1.392526	0.48949
O	-0.662676	-2.222478	-0.372239
O	-0.388935	-1.576591	1.697422
N	0.030978	-0.476356	-2.446515
H	-0.100074	0.02036	-3.319842
H	-0.47197	-1.351982	-2.508844
Cl	-3.582282	0.0	0.0
