14

C	0.0	0.0	0.0
C	-0.569799	0.300224	-1.379973
Br	1.957657	0.0	0.0
H	-1.655889	0.18423	-1.24654
H	-0.360198	1.358658	-1.558581
C	-0.41018	0.990464	0.987152
N	-0.618813	1.859805	1.749826
N	-0.398969	-1.389314	0.507827
O	-0.401516	-1.550767	1.719141
O	-0.614316	-2.240673	-0.343566
N	0.034	-0.49064	-2.443699
H	-0.143836	-0.017285	-3.320193
H	-0.434832	-1.386109	-2.476915
Cl	-3.588693	0.0	0.0
