16

C	-0.454993	-0.012486	-1.425615
C	0.0	0.0	0.0
F	-0.184878	1.141641	-2.047748
H	1.092545	0.0	0.0
H	-0.319574	0.97805	0.376192
N	0.11323	-1.123634	-2.297714
O	0.694404	-2.047267	-1.750204
O	-0.08322	-0.978718	-3.499411
N	-1.969484	-0.211544	-1.497767
O	-2.650204	0.801328	-1.402932
O	-2.375223	-1.367823	-1.555696
C	-0.547816	-1.11623	0.881404
H	-0.316449	-2.09547	0.466704
H	-0.063427	-1.044342	1.857464
H	-1.629338	-1.039062	1.029571
Br	3.543472	0.0	0.0
