16

C	-0.449342	0.001718	-1.425163
C	0.0	0.0	0.0
F	-0.175481	-1.158743	-2.035925
H	1.092559	0.0	0.0
H	-0.316881	-0.976589	0.382188
N	-1.962065	0.206076	-1.517225
O	-2.361054	1.361099	-1.624855
O	-2.648629	-0.800118	-1.394843
N	0.123135	1.103668	-2.307115
O	0.665519	2.051962	-1.759267
O	-0.042321	0.935988	-3.510988
C	-0.55163	1.118537	0.874824
H	-0.303562	2.097017	0.469165
H	-0.085522	1.03718	1.858196
H	-1.635702	1.051563	1.003986
Br	3.551427	0.0	0.0
