16

C	-0.548573	-0.051843	-1.385903
C	0.0	0.0	0.0
F	-1.901281	-0.069548	-1.406838
H	1.089131	0.0	0.0
H	-0.32267	0.97514	0.383002
N	-0.106076	1.170974	-2.177222
O	-0.843538	2.145708	-2.108209
O	0.962555	1.079263	-2.76412
N	-0.119189	-1.235197	-2.238401
O	0.659881	-2.044793	-1.756672
O	-0.63571	-1.277565	-3.350842
C	-0.531869	-1.111036	0.901906
H	-0.171337	-2.083785	0.571336
H	-0.149287	-0.946601	1.910286
H	-1.623357	-1.121121	0.94272
Br	3.544522	0.0	0.0
