16

C	-0.449158	0.006672	-1.42455
C	0.0	0.0	0.0
F	-0.164808	-1.146943	-2.04414
H	1.092542	0.0	0.0
H	-0.313726	-0.980273	0.375703
N	-1.964955	0.193377	-1.510133
O	-2.379493	1.342304	-1.621099
O	-2.637895	-0.820897	-1.378622
N	0.108498	1.121914	-2.300143
O	-0.044466	0.954749	-3.50529
O	0.62824	2.079494	-1.745558
C	-0.557665	1.10897	0.883317
H	-0.095466	1.020291	1.867842
H	-0.31215	2.092047	0.487606
H	-1.641942	1.036005	1.007747
Br	3.548322	0.0	0.0
