16

C	-0.428855	0.006423	-1.426963
C	0.0	0.0	0.0
F	-0.070718	1.10359	-2.091011
H	1.095151	0.0	0.0
H	-0.341549	-0.930049	0.451753
N	0.103305	-1.204022	-2.196984
O	0.6983	-0.985809	-3.239753
O	-0.1558	-2.291343	-1.694084
N	-1.952635	-0.130226	-1.609231
O	-2.564348	-0.7502	-0.74704
O	-2.426209	0.371263	-2.6237
C	-0.509713	1.224527	0.751256
H	-1.599599	1.238857	0.836787
H	-0.174526	2.141959	0.265251
H	-0.08576	1.216301	1.756511
Br	3.541613	0.0	0.0
