18

C	0.0	0.0	0.0
C	-0.467358	0.043903	-1.470903
Cl	1.798974	0.0	0.0
H	-1.558748	0.009784	-1.334867
C	-0.346396	1.271315	0.682127
N	-0.55649	2.291119	1.227909
N	-0.567802	-1.144879	0.639483
H	-1.604135	-0.908625	0.506189
H	-0.350987	-1.105395	1.632251
C	0.016361	-1.185315	-2.232821
H	1.081617	-1.117102	-2.475945
H	-0.538766	-1.27126	-3.172349
H	-0.149644	-2.087125	-1.643483
C	-0.078319	1.328907	-2.188927
H	1.007952	1.444485	-2.259356
H	-0.489797	2.208504	-1.688768
H	-0.478414	1.307244	-3.207334
F	-2.797268	0.0	0.0
