15
Coordinates from ORCA-job run
  C   0.50319223744767     -0.64430626087470      0.44921674439395
  C   -0.56973545397688      0.01989850169300     -0.39066844916374
  Cl  0.59534174543832     -2.36311627917770     -0.04235172998959
  H   -0.45738590453395     -0.26405431570749     -1.44429810541884
  H   0.18124197565066     -0.63499414402618      1.48955066520823
  C   1.85973969681809      0.01307356693489      0.28075412037234
  H   2.62028399546822     -0.56409585936584      0.80701712975433
  H   2.14592267359417      0.06487411658004     -0.77293114394722
  H   1.84539260166894      1.01723028506270      0.70946882575601
  N   -0.63659449784756      1.44383740099174     -0.13327825131703
  H   0.19992910175492      1.88989203317274     -0.48885083578279
  H   -1.42177965636291      1.82940293459647     -0.64792503912620
  N   -1.94175572408454     -0.49892622722672     -0.02197168771948
  O   -2.11726792602085     -0.99161043297822      1.08501576886557
  O   -2.80552486501429     -0.31810531967474     -0.87874801188555
