15
Coordinates from ORCA-job run
  C   0.46531112384480     -0.61577145960588      0.45511540877478
  C   -0.48176474890037      0.13746012706773     -0.46755245492133
  Cl  0.30437760669733     -2.36835303306847      0.13691392799269
  H   -0.26388627309181     -0.08478560548659     -1.51306399984995
  H   0.13478450237470     -0.46543171105604      1.48566888054189
  C   1.90396767782464     -0.18108360798860      0.26147056926212
  H   2.55883731218504     -0.75066078233471      0.92202062674057
  H   2.21834747770177     -0.35730058683791     -0.76942178860923
  H   2.00296098761772      0.88168966820317      0.48092616108338
  N   -0.41344387632482      1.53970949779601     -0.21603647784262
  H   -0.77331103415257      1.74891105002517      0.70795179645963
  H   -0.93927126301189      2.06452563303214     -0.90317423023131
  N   -1.89181333325376     -0.40087387136560     -0.25031730507970
  O   -2.47397202114338     -0.89329629477840     -1.21167593449901
  O   -2.35112413836739     -0.25573902360199      0.88117482017809
