15
Coordinates from ORCA-job run
  C   0.86961633498884      0.26128705955684     -0.38405152654933
  C   -0.63800153704683      0.57945176939710     -0.40928349087552
  Cl  1.71757760476911      1.79137825325590      0.00547564966666
  H   -0.81501650429655      1.33859778529570     -1.17225674870749
  H   1.17488071840046      0.00137935403511     -1.39938654244188
  C   1.26749508394266     -0.81987049612307      0.59822101186244
  H   2.34687992463599     -0.97158437471191      0.56759699088847
  H   0.78025690524164     -1.76479803439591      0.34801271317870
  H   0.99801999834494     -0.54277986896020      1.61864322337045
  N   -1.29180961486904      0.95928054033483      0.79986764589192
  H   -1.15757544236672      0.27847030176513      1.53457603705246
  H   -0.96885301650086      1.86792937607261      1.10257581524085
  N   -1.29018308910012     -0.67496991283888     -0.93805379487309
  O   -1.19327898056604     -0.86692787344524     -2.14771211105053
  O   -1.80000838557748     -1.43784387923801     -0.12322487265411
