15
Coordinates from ORCA-job run
  C   0.70442443598036      0.23135395262661      0.48032621316381
  C   -0.53004243547870      0.48854330816707     -0.40088959165267
  Cl  0.22388393268149     -0.06038109301868      2.17945802893795
  H   -0.16301444429467      0.74113534090148     -1.39816783815550
  H   1.25080538208998      1.17875192591709      0.49401140351501
  C   1.60518943540139     -0.88869105292586     -0.00342589660995
  H   1.11426410531142     -1.85721722954494      0.09025081858486
  H   1.86409648669688     -0.73715116811683     -1.05415669014931
  H   2.52184165502066     -0.90841697994875      0.58719415446852
  N   -1.46958977245239      1.47608119095803      0.02480721193767
  H   -1.09996063033006      2.40554197528137     -0.12071960829386
  H   -1.71314974576177      1.35116912700968      0.99870299949106
  N   -1.26617101783460     -0.81274743345026     -0.58673193900880
  O   -2.14186586932926     -1.08006779262964      0.22821422828296
  O   -0.89971151770075     -1.52590407122637     -1.51987349451174
