14

C	-0.283595	0.060641	-1.517358
C	0.0	0.0	0.0
Cl	-2.037302	0.358358	-1.840469
H	1.098944	0.0	0.0
N	0.486891	1.150575	-2.031311
H	1.455294	1.047825	-1.713715
H	0.459677	1.16281	-3.043778
C	0.012216	-1.249633	-2.127918
N	0.279196	-2.271436	-2.645136
C	-0.537326	-1.195717	0.633067
N	-0.975813	-2.156025	1.148203
C	-0.468062	1.21109	0.666113
N	-0.832049	2.17268	1.233423
Br	3.298944	0.0	0.0
