16
Coordinates from ORCA-job run
  C   0.83887094125911     -0.65969836021164     -0.06206681802849
  C   -0.27211638985800      0.22889301886236     -0.63933953147496
  F   1.48279423750016     -1.30187143879721     -1.06492190836110
  H   0.23424096460695      0.80692279318748     -1.42028383593968
  C   0.32410320547190     -1.62645389312920      0.90896032215512
  N   -0.15627868472639     -2.39376405283814      1.65713344333534
  N   1.86681879411489      0.23938784543786      0.61970249615377
  O   2.61329983617063      0.84130205475737     -0.14047957709899
  O   1.80603899281849      0.34120082201912      1.83950199449152
  C   -0.86605908637799      1.16155881361411      0.40895969389584
  H   -1.29078135970313      0.58941319062711      1.23893858629523
  H   -1.66705868568700      1.74181838687584     -0.05283921865153
  H   -0.13501602512351      1.86091858190763      0.81737112950037
  N   -1.22778391085064     -0.67667629339114     -1.25114194856936
  H   -1.49424191409529     -0.37430078796931     -2.17609481182917
  H   -2.05783091552017     -0.77865068095223     -0.68240001587393
