16
Coordinates from ORCA-job run
  C   0.97584050464628     -0.35394838500597     -0.09762000263156
  C   -0.38772187623881      0.15580093642588     -0.58823603761076
  F   1.96632842247617      0.41142657673614     -0.62647054905300
  H   -0.28698179934986      0.13132738149730     -1.68552595248929
  C   1.18815661705200     -1.75685291806847     -0.46518991158806
  N   1.32223452217035     -2.85784833920062     -0.85201820627773
  N   1.06638333144755     -0.23629158082980      1.42075885975084
  O   1.43225687049319      0.85236736294105      1.84359927196975
  O   0.72581506699130     -1.21558675615478      2.06897194272364
  C   -0.64085621950516      1.59057350688883     -0.15131962959392
  H   -1.49264030647996      1.98512053732072     -0.71047255414222
  H   0.22152476180153      2.22726327518151     -0.34342085904919
  H   -0.87545972265935      1.62954253515234      0.91344252494427
  N   -1.41341515236126     -0.72315978431657     -0.06310724724682
  H   -1.49014808169897     -1.57912039318746     -0.59818799050774
  H   -2.31231693878498     -0.26061395538011     -0.06620365919823
