14

C	0.0	0.0	0.0
C	-0.598925	-0.218869	-1.39693
Cl	1.783802	0.0	0.0
H	-1.606292	-0.601242	-1.209683
H	-0.336754	0.95171	0.410327
C	-0.386718	-1.08731	0.904468
N	-0.596764	-1.988321	1.626797
N	0.148303	-1.215495	-2.124547
H	0.973582	-0.794012	-2.536616
H	-0.431613	-1.598816	-2.859484
N	-0.636972	1.088098	-2.065308
H	-1.390224	1.609363	-1.617787
H	-0.95769	0.920821	-3.013838
Cl	-3.578621	0.0	0.0
