14

C	0.0	0.0	0.0
C	-0.498776	-0.130359	-1.461628
Cl	1.790649	0.0	0.0
H	-0.057369	0.734692	-1.986001
H	-0.326267	0.953047	0.419674
C	-0.452513	-1.103297	0.841865
N	-0.766486	-1.991353	1.542646
N	-1.916301	-0.075957	-1.630589
H	-2.425353	-0.765003	-1.08283
H	-2.330317	0.810677	-1.372918
N	-0.051076	-1.415247	-1.976187
H	-0.566825	-1.577011	-2.832691
H	0.94043	-1.407712	-2.179082
Cl	-4.670588	0.0	0.0
