14

C	0.0	0.0	0.0
C	-0.527469	-0.202071	-1.461066
Cl	1.790405	0.0	0.0
H	0.260628	0.222943	-2.092941
H	-0.307398	0.984592	0.354655
C	-0.460302	-1.013655	0.941883
N	-0.788651	-1.860499	1.686937
N	-1.752616	0.472874	-1.785901
H	-1.65853	1.478995	-1.705075
H	-2.55482	0.192737	-1.2077
N	-0.576859	-1.629133	-1.719848
H	-0.850325	-1.73205	-2.691799
H	-1.346039	-2.015858	-1.176522
Cl	-4.38587	0.0	0.0
