14

C	0.0	0.0	0.0
C	-0.571972	0.162966	-1.429913
Cl	1.785226	0.0	0.0
H	-1.654979	0.245818	-1.26795
H	-0.338825	0.837402	0.609963
C	-0.423345	-1.25028	0.624256
N	-0.692963	-2.283811	1.111124
N	-0.183257	-0.988203	-2.232944
H	-0.716629	-1.791308	-1.913949
H	-0.499421	-0.782789	-3.174133
N	-0.11626	1.353651	-2.109407
H	0.890611	1.434424	-2.038178
H	-0.548316	2.169546	-1.694918
Cl	-3.63894	0.0	0.0
