14

C	0.0	0.0	0.0
C	-0.557537	0.126497	-1.409301
Cl	1.797063	0.0	0.0
H	-1.643005	0.09746	-1.248157
H	-0.326268	0.860164	0.582499
C	-0.405898	-1.24273	0.656541
N	-0.613918	-2.246373	1.228307
N	-0.173049	-1.034491	-2.19414
H	0.773871	-0.935195	-2.541847
H	-0.801517	-1.136931	-2.979913
N	-0.209157	1.449579	-1.918542
H	-0.850138	1.69134	-2.663797
H	0.731506	1.438564	-2.298144
Cl	-3.63052	0.0	0.0
