14

C	0.0	0.0	0.0
C	-0.489163	-0.072215	-1.473452
Cl	1.791304	0.0	0.0
H	0.09308	-0.887272	-1.931353
H	-0.343554	0.931858	0.450337
C	-0.434689	-1.16535	0.763492
N	-0.697843	-2.161614	1.327112
N	-0.221764	1.233012	-2.06543
H	-0.763239	1.268822	-2.92072
H	0.760696	1.331195	-2.291121
N	-1.872333	-0.369484	-1.662279
H	-2.52945	0.206578	-1.132646
H	-2.096197	-1.323964	-1.41448
Cl	-4.582014	0.0	0.0
