14

C	0.0	0.0	0.0
C	-0.581749	-0.267487	-1.378853
Cl	1.792731	0.0	0.0
H	-1.663982	-0.242734	-1.193975
H	-0.325895	0.987582	0.323313
C	-0.403928	-1.007308	0.981649
N	-0.612033	-1.795903	1.825582
N	-0.218735	-1.604535	-1.816745
H	-0.879372	-1.924573	-2.512472
H	0.712064	-1.612319	-2.217943
N	-0.246529	0.858631	-2.2449
H	-0.928408	0.906809	-2.991965
H	0.670626	0.720974	-2.6567
Cl	-3.666964	0.0	0.0
