18

C	0.0	0.0	0.0
C	-0.430649	0.50504	-1.402861
F	1.371217	0.0	0.0
H	0.500664	0.439791	-1.977933
C	-0.516729	0.718152	1.205282
H	-0.11022	0.241432	2.095022
H	-1.608088	0.658396	1.214021
H	-0.190664	1.756985	1.172532
N	-0.282571	-1.51003	0.11776
O	-0.76375	-1.943321	1.156251
O	0.11865	-2.183155	-0.8292
C	-0.908021	1.956979	-1.392309
H	-1.842486	2.037544	-0.832967
H	-0.142438	2.608593	-0.962129
H	-1.091356	2.281512	-2.420122
C	-1.360512	-0.332403	-2.172523
N	-1.929689	-0.924483	-3.013079
Br	-3.784385	0.0	0.0
