18

C	0.0	0.0	0.0
C	-0.545754	-0.337716	-1.386677
F	1.360176	0.0	0.0
H	-1.642888	-0.393503	-1.273552
C	-0.54021	1.277233	0.579452
H	-0.141039	1.404399	1.586355
H	-0.227097	2.116371	-0.044711
H	-1.633518	1.214234	0.599885
N	-0.345888	-1.132426	0.984701
O	0.23668	-1.067116	2.065442
O	-1.145347	-1.998442	0.651272
C	0.024242	-1.622616	-2.00065
H	1.115495	-1.610026	-1.975238
H	-0.346539	-2.490986	-1.460826
H	-0.296036	-1.701419	-3.041078
C	-0.222221	0.78736	-2.267765
N	0.077779	1.650328	-3.00577
Br	-3.944021	0.0	0.0
