18

C	0.0	0.0	0.0
C	-0.482658	-0.433598	-1.399067
F	1.363037	0.0	0.0
H	-0.591222	0.496297	-1.971011
C	-0.585322	1.297503	0.466306
H	-0.261235	1.517724	1.482863
H	-1.677174	1.23963	0.446124
H	-0.244568	2.088692	-0.204829
N	-0.330324	-1.128076	0.985791
O	0.157874	-2.219804	0.706975
O	-1.007832	-0.867033	1.972947
C	-1.824741	-1.171552	-1.405406
H	-2.18974	-1.246193	-2.431009
H	-2.599367	-0.656761	-0.828588
H	-1.702737	-2.180312	-1.010614
C	0.541477	-1.224096	-2.090828
N	1.315465	-1.840564	-2.723652
Br	-4.84534	0.0	0.0
