15

C	-0.531842	-0.048789	-1.427482
C	0.0	0.0	0.0
F	-0.078467	-1.154066	-2.077027
H	1.101089	0.0	0.0
H	-1.62426	-0.053179	-1.433104
N	-0.130873	1.161579	-2.23104
O	-0.813583	2.166943	-2.022606
O	0.809229	1.074504	-3.00693
N	-0.560011	-1.202261	0.631678
H	-0.395633	-1.073508	1.624419
H	0.007809	-1.992918	0.342564
N	-0.435182	1.159013	0.745506
H	0.239572	1.902704	0.629334
H	-1.339829	1.492465	0.43805
Br	3.577432	0.0	0.0
