15

C	-0.560316	0.011116	-1.402443
C	0.0	0.0	0.0
F	-0.069369	-1.008394	-2.169618
H	1.097248	0.0	0.0
H	-1.651846	-0.056031	-1.380173
N	-0.279195	1.2806	-2.175816
O	0.549539	2.074818	-1.74348
O	-0.914279	1.402152	-3.223836
N	-0.401662	-1.222751	0.680723
H	-1.309318	-1.547239	0.367396
H	0.286073	-1.940133	0.492762
N	-0.60719	1.13982	0.691597
H	-0.594779	0.889902	1.673455
H	0.011328	1.934609	0.57462
Br	3.608517	0.0	0.0
