15

C	-0.481499	0.152258	-1.434788
C	0.0	0.0	0.0
F	-1.792845	0.578812	-1.476281
H	1.090112	0.0	0.0
H	0.13289	0.851388	-2.003878
N	-0.423722	-1.163185	-2.162109
O	-1.470693	-1.767628	-2.353107
O	0.699862	-1.51958	-2.491646
N	-0.488199	-1.252017	0.545627
H	-1.396342	-1.093082	0.967807
H	0.14853	-1.527625	1.28341
N	-0.379818	1.186198	0.774201
H	0.417598	1.805309	0.847957
H	-1.154601	1.681175	0.354128
Br	3.54217	0.0	0.0
