15

C	-0.368485	-0.173021	-1.471491
C	0.0	0.0	0.0
F	0.11939	0.859821	-2.209126
H	1.107454	0.0	0.0
H	-0.006759	-1.119128	-1.875771
N	-1.865714	-0.17646	-1.652728
O	-2.436049	-1.202054	-1.273045
O	-2.412173	0.809617	-2.124179
N	-0.407648	-1.082163	0.865541
H	-1.308331	-1.460545	0.600754
H	0.295821	-1.809833	0.850423
N	-0.625971	1.234221	0.461853
H	-0.414313	1.293382	1.451013
H	-0.168083	2.018357	0.006503
Br	3.58039	0.0	0.0
