15

C	-0.440706	0.005931	-1.449021
C	0.0	0.0	0.0
F	0.097185	1.060476	-2.119425
H	1.100318	0.0	0.0
H	-0.191178	-0.930614	-1.9443
N	-1.945628	0.156244	-1.536008
O	-2.598154	-0.854526	-1.284926
O	-2.406036	1.256876	-1.815323
N	-0.418064	-1.22862	0.63451
H	0.227939	-1.443687	1.383723
H	-1.351862	-1.115598	1.012954
N	-0.557034	1.193494	0.654166
H	-0.033874	1.316238	1.515825
H	-0.332538	2.003949	0.083179
Br	3.571299	0.0	0.0
