15

C	-0.394656	0.06859	-1.470418
C	0.0	0.0	0.0
F	0.044827	-1.061346	-2.067048
H	1.108865	0.0	0.0
N	-1.93644	0.060646	-1.626168
O	-2.380403	-0.534773	-2.594933
O	-2.563197	0.67051	-0.770377
C	0.089876	1.230211	-2.220977
N	0.443387	2.07948	-2.952728
C	-0.549789	-1.200857	0.599345
N	-1.023257	-2.180975	1.040459
N	-0.389634	1.216318	0.782867
O	-0.757882	1.04678	1.937414
O	-0.231929	2.292327	0.219124
Br	3.220618	0.0	0.0
