16

C	0.0	0.0	0.0
C	-0.496886	-0.277141	-1.423007
F	1.381595	0.0	0.0
H	-1.593612	-0.204364	-1.369607
N	-0.48605	1.258975	0.445757
H	-1.509274	1.214938	0.363477
H	-0.258975	1.382464	1.427138
C	-0.349384	-1.149398	0.89038
N	-0.525807	-2.045342	1.630539
C	-0.089771	-1.659876	-1.935418
H	0.993329	-1.792171	-1.885322
H	-0.576244	-2.433186	-1.338692
H	-0.40943	-1.7772	-2.97233
C	0.013587	0.764931	-2.314233
N	0.416701	1.538871	-3.100871
Cl	-3.500292	0.0	0.0
