16

C	0.0	0.0	0.0
C	-0.484275	0.376175	-1.407874
F	1.387468	0.0	0.0
H	-1.577542	0.473487	-1.343833
N	-0.481201	0.942789	0.947316
H	-1.503229	0.951433	0.857744
H	-0.257161	0.625475	1.884413
C	-0.347893	-1.417098	0.305351
N	-0.5602	-2.53711	0.585909
C	-0.123036	-0.684032	-2.453354
H	-0.691584	-1.595068	-2.261715
H	-0.38037	-0.322315	-3.450769
H	0.944805	-0.909107	-2.426538
C	0.103944	1.665993	-1.767103
N	0.585681	2.675536	-2.121597
Cl	-3.495103	0.0	0.0
