16

C	0.0	0.0	0.0
C	-0.351515	0.129786	-1.541827
F	1.374708	0.0	0.0
H	0.628127	0.057838	-2.028514
N	-0.476784	0.99789	0.892082
H	-0.299751	1.913362	0.494747
H	-1.495044	0.86923	0.944197
C	-0.382812	-1.334123	0.523159
N	-0.509989	-2.424689	0.938302
C	-0.974934	1.472181	-1.923621
H	-1.936873	1.579949	-1.424973
H	-0.301847	2.292752	-1.659499
H	-1.128209	1.503878	-3.005042
C	-1.116997	-0.990129	-2.091803
N	-1.602124	-1.891126	-2.6687
Cl	-3.387535	0.0	0.0
