16

C	0.0	0.0	0.0
C	-0.2572	0.307016	-1.511072
F	1.377052	0.0	0.0
H	0.243431	1.277404	-1.61865
N	-0.56578	1.007731	0.822067
H	-1.581399	0.984184	0.668901
H	-0.414293	0.774824	1.798845
C	-0.374292	-1.393014	0.363236
N	-0.613755	-2.494594	0.694128
C	-1.666726	0.401533	-2.08008
H	-1.581965	0.623316	-3.14832
H	-2.243527	1.183116	-1.594652
H	-2.22358	-0.521213	-1.941937
C	0.51869	-0.656096	-2.304221
N	1.099461	-1.419929	-2.9806
Cl	-3.980517	0.0	0.0
