16

C	0.0	0.0	0.0
C	-0.388053	0.081975	-1.516538
F	1.381783	0.0	0.0
H	0.588632	-0.02275	-2.003775
N	-0.479417	1.10842	0.745649
H	-1.504868	1.072598	0.662098
H	-0.251609	0.964324	1.724387
C	-0.333132	-1.329355	0.588561
N	-0.488575	-2.368695	1.11416
C	-0.985563	1.418435	-1.961456
H	-0.359421	2.238132	-1.609085
H	-1.99388	1.521512	-1.565823
H	-1.025363	1.43806	-3.053677
C	-1.164798	-1.054568	-2.021002
N	-1.647642	-1.956016	-2.598844
Cl	-3.392664	0.0	0.0
