13

C	0.0	0.0	0.0
C	-0.545158	-0.170498	-1.413491
Br	1.953004	0.0	0.0
H	-1.644002	-0.175072	-1.318956
H	-0.287437	-0.863101	0.601573
H	-0.254281	0.684695	-2.031806
C	-0.512773	1.279365	0.629131
H	-1.606311	1.232762	0.63227
H	-0.180402	2.149149	0.055078
H	-0.149935	1.38071	1.653645
C	-0.104089	-1.397841	-2.069113
N	0.248427	-2.381842	-2.603685
Br	-3.896932	0.0	0.0
