13

C	0.0	0.0	0.0
C	-0.541038	0.144527	-1.418786
Br	1.954355	0.0	0.0
H	-0.219447	-0.693249	-2.044045
H	-0.298597	-0.979275	0.376931
H	-1.639448	0.113561	-1.329029
C	-0.492311	1.101679	0.918328
H	-1.586526	1.09578	0.897115
H	-0.150801	0.930016	1.941396
H	-0.121097	2.073581	0.584859
C	-0.134374	1.392526	-2.057358
N	0.199394	2.395751	-2.567358
Br	-3.882706	0.0	0.0
