14

C	-0.088423	-0.135671	-1.522754
C	0.0	0.0	0.0
Br	-0.603132	2.050474	-2.108781
H	1.088674	0.0	0.0
H	-0.494721	0.860957	0.427185
N	1.098894	-0.527952	-2.003649
H	1.946959	-0.325797	-1.367517
H	1.199109	-0.695866	-2.991116
C	-1.264062	-0.720754	-2.141791
N	-2.198443	-1.243699	-2.631116
N	-0.465499	-1.21671	0.69261
O	-0.345331	-2.299512	0.118399
O	-0.895963	-1.074936	1.836905
F	2.661945	0.0	0.0
