14

C	-0.504533	0.066583	-1.424636
C	0.0	0.0	0.0
Br	0.110857	-1.717008	-2.229956
H	1.088335	0.0	0.0
H	-0.391847	-0.884995	0.500901
N	-1.910366	0.215844	-1.519863
H	-2.232192	0.194632	-2.479497
H	-2.377075	-0.504466	-0.983105
C	0.155058	1.06747	-2.266015
N	0.614941	1.829341	-3.03307
N	-0.469798	1.164104	0.760378
O	-0.4166	2.269968	0.221527
O	-0.840031	0.974259	1.923165
F	2.503217	0.0	0.0
