14

C	-0.52511	-0.013121	-1.427941
C	0.0	0.0	0.0
Br	-0.081405	-1.823707	-2.098127
H	1.088921	0.0	0.0
H	-0.356941	-0.867426	0.556133
N	-1.951232	0.167146	-1.6427
H	-2.442357	-0.472291	-1.025868
H	-2.170122	1.117254	-1.357921
C	0.189482	0.931032	-2.294829
N	0.693974	1.687975	-3.037596
N	-0.471107	1.180102	0.720657
O	-0.520526	1.11645	1.949531
O	-0.757843	2.198155	0.073054
F	2.488923	0.0	0.0
