14

C	-0.175943	-0.061123	-1.525122
C	0.0	0.0	0.0
Br	-0.006897	1.78438	-2.256197
H	1.089261	0.0	0.0
H	-0.377362	-0.936464	0.424129
N	0.911637	-0.838063	-2.071482
H	0.693769	-1.823576	-1.965094
H	1.749877	-0.614028	-1.488779
C	-1.467367	-0.56976	-1.991427
N	-2.479922	-1.059777	-2.333992
N	-0.710743	1.086869	0.69628
O	-1.867452	1.324745	0.336686
O	-0.13611	1.65388	1.621769
F	2.626472	0.0	0.0
