18

C	0.0	0.0	0.0
C	-0.352211	-0.119122	-1.488761
F	1.388552	0.0	0.0
H	0.057672	0.75359	-1.989541
N	-0.473273	1.289797	0.403897
H	-1.316738	1.513512	-0.125757
H	-0.74662	1.254585	1.379642
C	-0.429724	-1.12225	0.920115
H	-1.517529	-1.16684	0.931068
H	-0.024714	-2.080526	0.602318
H	-0.044022	-0.882159	1.918203
N	-1.803232	-0.141094	-1.841937
O	-2.525461	-1.044589	-1.285812
O	-2.280468	1.031122	-1.977284
N	0.31519	-1.284548	-2.136963
O	0.083796	-2.414052	-1.7164
O	1.046569	-1.028933	-3.098081
H	-3.136818	0.0	0.0
