18

C	0.0	0.0	0.0
C	-0.327254	0.039484	-1.507908
F	1.391097	0.0	0.0
H	0.318388	-0.680881	-1.999969
N	-0.472617	1.181346	0.650216
H	-1.457992	1.278545	0.395303
H	-0.433007	1.029892	1.653778
C	-0.452508	-1.307356	0.61241
H	-0.117278	-2.163544	0.024905
H	-1.543694	-1.316496	0.65604
H	-0.029446	-1.366533	1.622125
N	0.078577	1.369038	-2.079011
O	-0.682307	2.323507	-1.996951
O	1.195847	1.395465	-2.603721
N	-1.707053	-0.322524	-1.894708
O	-1.853678	-1.563517	-2.077091
O	-2.649728	0.44929	-1.506239
H	-3.242794	0.0	0.0
