18

C	0.0	0.0	0.0
C	-0.622519	0.043777	-1.400351
F	1.380042	0.0	0.0
H	-1.748704	0.108869	-1.13283
N	-0.470967	1.071781	0.828044
H	-1.494127	0.940683	0.853036
H	-0.29923	1.947282	0.347029
C	-0.429526	-1.315461	0.632259
H	-0.125117	-1.275025	1.679151
H	-1.518657	-1.402708	0.572122
H	0.067709	-2.153929	0.142886
N	-0.396771	-1.195138	-2.197217
O	-1.383163	-1.705343	-2.72655
O	0.753351	-1.628054	-2.26884
N	-0.214731	1.16402	-2.267149
O	-0.123162	2.281001	-1.750889
O	-0.050711	0.94185	-3.4693
H	-2.959975	0.0	0.0
