18

C	0.0	0.0	0.0
C	-0.611215	-0.056521	-1.40591
F	1.38006	0.0	0.0
H	-1.731194	-0.100159	-1.166417
N	-0.470986	1.193551	0.648968
H	-1.500313	1.096137	0.662486
H	-0.225259	2.011794	0.10051
C	-0.434944	-1.191999	0.830075
H	-1.519763	-1.303368	0.757705
H	0.075388	-2.093181	0.498049
H	-0.158502	-0.961405	1.860523
N	-0.230578	-1.186925	-2.281455
O	0.193897	-0.943165	-3.414485
O	-0.427541	-2.315844	-1.83319
N	-0.34019	1.186786	-2.184351
O	-1.288448	1.682628	-2.789254
O	0.805586	1.640316	-2.166474
H	-2.98997	0.0	0.0
