17

C	0.0	0.0	0.0
C	-0.493644	0.001831	-1.495028
Br	1.922711	0.0	0.0
H	-1.587085	-0.021393	-1.553789
N	-0.512745	1.311781	0.601297
O	0.264397	1.93634	1.369264
O	-1.713671	1.799594	0.28932
C	-0.42065	-1.221361	0.871751
H	-1.527291	-1.290009	0.893529
H	-0.147011	-0.972322	1.902812
H	-0.020754	-2.188743	0.567186
N	-0.119812	-1.268106	-2.202501
O	-0.759165	-2.260014	-1.841946
O	0.828625	-1.270133	-2.976083
C	-0.038687	1.15994	-2.231853
N	0.26056	2.149923	-2.792242
H	-1.558377	0.0	0.0
