13
Coordinates from ORCA-job run
  C   -0.51065585154719     -0.58340101067418     -0.40349327985680
  C   0.93088625009191     -0.12854854317897     -0.58059285498112
  Br  -0.56951854068008     -2.15963537122442      0.75179132719951
  H   1.55766347842463     -0.93482481231618     -0.95611043200378
  H   -0.83457710703606     -0.94793842124140     -1.38141954328542
  H   0.95680710201996      0.73121856713672     -1.25430448397423
  C   -1.47503541784268      0.47308635042017      0.10383500718111
  H   -2.49346047786132      0.08349104573032      0.08400172272198
  H   -1.42400325253212      1.35728263662136     -0.53819479730458
  H   -1.23623070218257      0.77802480778385      1.12105505915396
  N   1.54859641708587      0.32774935409946      0.69760252766262
  O   2.39061943203836     -0.40203696163702      1.21351718546229
  O   1.15890867002129      1.40653235848028      1.14331256202446
