13
Coordinates from ORCA-job run
  C   -0.51586033881423     -0.58204117336859     -0.39903402145960
  C   0.93340324443178     -0.15030250114823     -0.57165680692818
  Br  -0.60625232554157     -2.14031474456434      0.77822935090539
  H   0.97669957499515      0.69874039314911     -1.25792731035457
  H   -0.83797073072215     -0.95602264855658     -1.37398135438497
  H   1.55143485103262     -0.97095297353544     -0.93012070260443
  C   -1.46868020277906      0.49543418900314      0.08560898519550
  H   -2.49254083056158      0.12055997564257      0.06202107890196
  H   -1.39905477686201      1.37012842092098     -0.56757547386760
  H   -1.23418934421401      0.81058010363271      1.10072100294039
  N   1.54738054776203      0.31614326718097      0.70458150831660
  O   2.37442697738903     -0.41803796189857      1.23817584272706
  O   1.17020335388400      1.40708565354228      1.13095790061246
