13

C	-0.398494	-0.05883	-1.470223
C	0.0	0.0	0.0
Cl	-0.003617	1.561968	-2.158281
H	1.090402	0.0	0.0
H	-0.404121	0.888397	0.481534
C	0.363204	-1.056303	-2.230588
N	0.924783	-1.836906	-2.904845
C	-1.834922	-0.272995	-1.688077
N	-2.991199	-0.412886	-1.842183
N	-0.489366	-1.170145	0.719867
O	-0.730347	-2.193983	0.069101
O	-0.57788	-1.083377	1.944481
F	2.47175	0.0	0.0
