13

C	-0.416178	-0.055966	-1.466184
C	0.0	0.0	0.0
Cl	0.003408	1.553874	-2.166483
H	1.090591	0.0	0.0
H	-0.393462	0.894423	0.481823
C	0.31391	-1.070818	-2.231061
N	0.863054	-1.88302	-2.877777
C	-1.859722	-0.235383	-1.663581
N	-3.021164	-0.343538	-1.806397
N	-0.500008	-1.160105	0.730117
O	-0.773728	-2.179805	0.084868
O	-0.566585	-1.069777	1.956189
F	2.473427	0.0	0.0
