13

C	-0.456438	0.001956	-1.450851
C	0.0	0.0	0.0
Cl	0.464653	1.169984	-2.457606
H	1.088706	0.0	0.0
H	-0.34548	-0.903265	0.504301
C	-0.190139	-1.339167	-1.991169
N	-0.020798	-2.421981	-2.413548
C	-1.891071	0.268521	-1.6249
N	-3.052734	0.405333	-1.73925
N	-0.517912	1.139519	0.751897
O	-0.857261	2.153226	0.136412
O	-0.535684	1.029988	1.977438
F	2.470083	0.0	0.0
