13

C	-0.463355	-0.013378	-1.449421
C	0.0	0.0	0.0
Cl	0.477764	-1.164848	-2.457622
H	1.088713	0.0	0.0
H	-0.34805	0.904028	0.501536
C	-1.89308	-0.310157	-1.621703
N	-3.047376	-0.481902	-1.762978
C	-0.23135	1.332502	-1.991405
N	-0.097958	2.420715	-2.413435
N	-0.509186	-1.138728	0.759488
O	-0.845895	-2.159407	0.150861
O	-0.520495	-1.020883	1.984998
F	2.470946	0.0	0.0
