13

C	-0.463243	0.025313	-1.44903
C	0.0	0.0	0.0
Cl	0.478108	1.184442	-2.447803
H	1.088772	0.0	0.0
H	-0.348991	-0.907268	0.494783
C	-0.230822	-1.315588	-2.002937
N	-0.081703	-2.396573	-2.43835
C	-1.893116	0.323775	-1.616154
N	-3.05236	0.481671	-1.728689
N	-0.506157	1.134128	0.768468
O	-0.512122	1.009204	1.993262
O	-0.843424	2.158621	0.167436
F	2.471178	0.0	0.0
