13

C	-0.449661	-0.015631	-1.453351
C	0.0	0.0	0.0
Cl	0.456507	-1.214117	-2.437177
H	1.088755	0.0	0.0
H	-0.343754	0.911946	0.489548
C	-1.887908	-0.261267	-1.630975
N	-3.052814	-0.373789	-1.743979
C	-0.159114	1.3128	-2.012627
N	0.027906	2.383052	-2.460274
N	-0.530016	-1.12472	0.764968
O	-0.8888	-2.140436	0.163658
O	-0.540701	-0.999007	1.989156
F	2.470066	0.0	0.0
