13

C	-0.343323	0.006669	-1.467767
C	0.0	0.0	0.0
Cl	-2.138824	0.099942	-1.796465
H	1.093043	0.0	0.0
H	-0.393365	-0.885069	0.495346
C	0.299162	1.085252	-2.227825
N	0.787878	1.890393	-2.929699
C	0.10841	-1.274161	-2.02577
N	0.442871	-2.303549	-2.482267
N	-0.503266	1.172517	0.702984
O	-0.622998	2.228165	0.076513
O	-0.729709	1.045596	1.907602
F	2.45898	0.0	0.0
