13

C	-0.349039	0.038995	-1.466285
C	0.0	0.0	0.0
Cl	-2.145709	0.135635	-1.784998
H	1.093044	0.0	0.0
H	-0.392181	-0.896059	0.47631
C	0.288461	1.136174	-2.204312
N	0.77171	1.957543	-2.890712
C	0.103168	-1.228096	-2.055253
N	0.436244	-2.245683	-2.538151
N	-0.502687	1.155957	0.72989
O	-0.623826	2.225562	0.127479
O	-0.727175	1.001855	1.931819
F	2.458932	0.0	0.0
