13

C	-0.348388	0.013828	-1.467147
C	0.0	0.0	0.0
Cl	-2.144618	0.104541	-1.788813
H	1.09303	0.0	0.0
H	-0.391151	-0.888381	0.490826
C	0.288237	1.099254	-2.222935
N	0.771201	1.909126	-2.923034
C	0.106325	-1.26212	-2.034487
N	0.440784	-2.286625	-2.501238
N	-0.504268	1.167545	0.70915
O	-0.626288	2.226269	0.088153
O	-0.729537	1.033657	1.913617
F	2.45872	0.0	0.0
