15

C	0.0	0.0	0.0
C	-0.486783	0.00049	-1.441711
Br	2.038642	0.0	0.0
H	0.089364	0.727394	-2.017205
H	-1.52789	0.333824	-1.374346
N	-0.241437	1.400735	0.611044
O	-0.448395	1.452604	1.81738
O	-0.173637	2.361943	-0.144314
N	-0.526621	-0.997556	0.78089
H	-1.31188	-1.435722	0.31016
H	-0.789923	-0.652696	1.692937
N	-0.474209	-1.355787	-1.963827
H	0.395744	-1.556183	-2.436912
H	-1.245271	-1.478404	-2.603694
Br	-3.76956	0.0	0.0
