15

C	0.0	0.0	0.0
C	-0.508915	0.517741	-1.333107
Br	2.043877	0.0	0.0
H	-1.569412	0.727345	-1.150953
H	-0.006574	1.460367	-1.552563
N	-0.224717	1.118692	1.076706
O	-0.399	0.739219	2.229049
O	-0.180486	2.286664	0.70984
N	-0.515531	-1.216604	0.387815
H	-0.394187	-1.35392	1.383237
H	-1.513387	-1.234614	0.154885
N	-0.37132	-0.488584	-2.371039
H	-1.243674	-0.579434	-2.873721
H	0.364744	-0.247329	-3.019635
Br	-3.767308	0.0	0.0
