15

C	0.0	0.0	0.0
C	-0.46894	-0.00113	-1.451849
Br	2.036946	0.0	0.0
H	-1.51197	0.327784	-1.39013
H	0.112366	0.714066	-2.036485
N	-0.276656	1.371078	0.61924
O	-0.527537	1.41004	1.816926
O	-0.188132	2.338288	-0.127586
N	-0.52112	-1.011457	0.781215
H	-1.169083	-0.649401	1.469047
H	-0.973986	-1.682751	0.171741
N	-0.445523	-1.367955	-1.95307
H	-1.251748	-1.527034	-2.540859
H	0.398536	-1.55027	-2.477864
Br	-3.760313	0.0	0.0
