15

C	0.0	0.0	0.0
C	-0.519705	0.4835	-1.343205
Br	2.042253	0.0	0.0
H	0.034377	1.379421	-1.628632
H	-1.558154	0.762329	-1.137181
N	-0.230874	1.142571	1.043805
O	-0.140794	2.298975	0.651946
O	-0.447436	0.792877	2.198224
N	-0.503979	-1.209274	0.418133
H	-0.437206	-1.291916	1.42501
H	-1.485982	-1.269082	0.134366
N	-0.480901	-0.582037	-2.329601
H	0.246202	-0.425679	-3.011541
H	-1.375084	-0.647511	-2.795608
Br	-3.743691	0.0	0.0
