15

C	0.0	0.0	0.0
C	-0.48706	0.144812	-1.428287
Br	2.04404	0.0	0.0
H	-1.548047	0.399074	-1.318733
H	0.04143	0.969853	-1.911999
N	-0.258508	1.314864	0.764281
O	-0.450169	1.224632	1.971444
O	-0.218824	2.355579	0.121291
N	-0.507462	-1.089368	0.664769
H	-1.269562	-1.502191	0.137887
H	-0.787901	-0.855127	1.606169
N	-0.390042	-1.139871	-2.104579
H	-1.083644	-1.183776	-2.837431
H	0.529695	-1.259727	-2.507737
Br	-3.76033	0.0	0.0
