13

C	-0.607117	-0.027968	-1.379358
C	0.0	0.0	0.0
Cl	0.046268	1.233404	-2.436527
H	1.094089	0.0	0.0
H	-1.689271	0.08526	-1.344004
H	-0.322954	0.946125	0.446427
N	-0.405565	-1.360517	-2.061219
O	0.54865	-2.047861	-1.719131
O	-1.231015	-1.649212	-2.926488
N	-0.587722	-1.120438	0.750491
H	-0.660957	-0.855502	1.724751
H	0.076768	-1.884429	0.709699
Br	3.673917	0.0	0.0
