13

C	-0.46046	-0.045303	-1.434956
C	0.0	0.0	0.0
Cl	-2.242427	-0.056697	-1.569909
H	1.094725	0.0	0.0
H	-0.086625	-0.92327	-1.953069
H	-0.357805	0.924482	0.46211
N	0.026038	1.145082	-2.210516
O	0.532835	0.919995	-3.306997
O	-0.136308	2.250117	-1.70278
N	-0.442071	-1.226339	0.661947
H	-1.246394	-1.05043	1.247176
H	0.314156	-1.558455	1.245316
Br	3.560331	0.0	0.0
