13

C	-0.417723	-0.005848	-1.465658
C	0.0	0.0	0.0
Cl	-0.032248	-1.530751	-2.268733
H	1.093076	0.0	0.0
H	0.038337	0.806345	-2.028377
H	-0.367146	-0.916181	0.466202
N	-1.902853	0.232253	-1.555483
O	-2.644669	-0.588183	-1.024164
O	-2.267	1.278898	-2.092691
N	-0.467618	1.153386	0.743873
H	0.00129	1.995204	0.435821
H	-1.470647	1.279085	0.679419
Br	3.640083	0.0	0.0
