13

C	-0.387179	-0.073513	-1.464916
C	0.0	0.0	0.0
Cl	-2.160326	-0.176218	-1.713848
H	1.094991	0.0	0.0
H	0.059441	-0.926454	-1.971055
H	-0.382165	0.929403	0.423657
N	0.081585	1.13941	-2.220479
O	0.662151	0.936228	-3.283572
O	-0.165653	2.235271	-1.728054
N	-0.429223	-1.148146	0.781366
H	0.20892	-1.91677	0.628013
H	-1.368193	-1.437762	0.543617
Br	3.559163	0.0	0.0
