13

C	-0.384371	-0.065097	-1.465983
C	0.0	0.0	0.0
Cl	-2.157092	-0.160654	-1.721481
H	1.094972	0.0	0.0
H	0.061276	-0.917006	-1.975363
H	-0.382157	0.927198	0.428306
N	0.090911	1.149201	-2.214667
O	0.663684	0.947204	-3.281341
O	-0.144434	2.244462	-1.714126
N	-0.430499	-1.15264	0.774543
H	0.20684	-1.921857	0.614476
H	-1.371304	-1.439845	0.536157
Br	3.559416	0.0	0.0
