13

C	-0.49207	-0.025863	-1.433632
C	0.0	0.0	0.0
Cl	-2.221178	-0.426559	-1.531555
H	1.091569	0.0	0.0
H	0.057296	-0.751012	-2.032543
H	-0.31542	-0.949546	0.454558
N	-0.2373	1.31484	-2.08612
O	-1.162079	2.094661	-2.267774
O	0.941541	1.504391	-2.356188
N	-0.477869	1.189572	0.683642
H	0.193493	1.45278	1.39033
H	-1.374922	1.03567	1.121033
Br	3.646615	0.0	0.0
