17

C	-0.529397	-0.029553	-1.432205
C	0.0	0.0	0.0
F	-0.054484	-1.141302	-2.041771
H	1.094153	0.0	0.0
N	-1.947248	0.010979	-1.652617
H	-2.366582	-0.725413	-1.096136
H	-2.298238	0.905796	-1.337562
N	0.022751	1.169334	-2.205787
O	-0.538973	2.243957	-1.984003
O	0.949678	0.981024	-2.977184
C	-0.493476	-1.20803	0.639011
N	-0.927654	-2.168483	1.162511
C	-0.398963	1.230065	0.815684
H	-0.029748	1.091571	1.83428
H	-1.480165	1.396839	0.853554
H	0.090694	2.114404	0.408528
H	2.680053	0.0	0.0
