17

C	-0.501747	0.026183	-1.417925
C	0.0	0.0	0.0
F	-1.89134	-0.263771	-1.46198
H	1.092317	0.0	0.0
N	-0.19425	1.199526	-2.107151
H	-0.545153	2.013819	-1.628808
H	-0.52914	1.146284	-3.05885
N	0.062064	-1.128398	-2.249202
O	0.560412	-2.078409	-1.663273
O	-0.082167	-1.024536	-3.467727
C	-0.529025	-1.144098	0.722843
N	-0.959744	-2.018697	1.380163
C	-0.353092	1.29292	0.745103
H	-0.100446	1.1639	1.798592
H	0.283927	2.098802	0.369738
H	-1.411882	1.56139	0.668072
H	2.671327	0.0	0.0
