17

C	-0.261986	0.13238	-1.495328
C	0.0	0.0	0.0
F	-1.506103	0.676911	-1.785891
H	1.094839	0.0	0.0
N	0.757008	0.893311	-2.053469
H	0.829846	0.766116	-3.053353
H	1.655223	0.679337	-1.584703
N	-0.401153	-1.276142	-2.170003
O	0.507285	-1.637895	-2.914137
O	-1.421451	-1.911175	-1.926168
C	-0.531356	-1.181552	0.647219
N	-0.958863	-2.100921	1.243344
C	-0.431022	1.27114	0.734243
H	-1.517336	1.377035	0.767498
H	-0.037256	1.237389	1.752761
H	0.002637	2.134024	0.227408
H	2.701407	0.0	0.0
