17

C	-0.248611	0.185557	-1.49741
C	0.0	0.0	0.0
F	-0.21399	1.528639	-1.772507
H	1.096495	0.0	0.0
N	0.662176	-0.496561	-2.325873
H	0.34295	-1.438962	-2.501294
H	1.569062	-0.502872	-1.841862
N	-1.683926	-0.239055	-1.862696
O	-1.845452	-1.320597	-2.424706
O	-2.581693	0.517945	-1.50525
C	-0.409464	-1.337558	0.392925
N	-0.726667	-2.416334	0.739024
C	-0.54357	1.073067	0.929717
H	-1.635328	1.102448	0.939997
H	-0.162195	2.043156	0.612214
H	-0.176881	0.878988	1.940788
H	2.697306	0.0	0.0
