17

C	-0.193527	0.013046	-1.504641
C	0.0	0.0	0.0
F	-0.112332	1.344232	-1.958054
H	1.098783	0.0	0.0
N	0.72069	-0.842834	-2.091789
H	1.641302	-0.70544	-1.644478
H	0.745213	-0.750343	-3.097427
N	-1.608777	-0.342738	-1.996131
O	-1.714289	-0.660164	-3.178851
O	-2.540537	-0.227728	-1.204286
C	-0.443195	-1.262352	0.562842
N	-0.778983	-2.267975	1.070828
C	-0.518423	1.204101	0.769401
H	-0.183911	1.123834	1.806604
H	-1.607328	1.270581	0.746521
H	-0.086145	2.11147	0.347418
H	2.713614	0.0	0.0
