14
Coordinates from ORCA-job run
  C   -0.77025328023154      0.17453097702834      0.06092154322842
  C   0.70314591418282     -0.03796580618568      0.47467005624799
  Br  -1.65548578774569      1.22453208753780      1.52540800644148
  H   0.67450132949692     -0.60100240347497      1.42314096483933
  N   -1.36799982917200     -1.10028951463876     -0.14938804603372
  H   -2.26758697010271     -1.02306733768584     -0.60789317512470
  H   -1.48739787846380     -1.58786105381358      0.73165284666934
  C   -0.86084805088088      0.98432743856820     -1.15113416082113
  N   -0.97426004855903      1.63123707708623     -2.12532721470434
  C   1.37602111875046      1.23752757753537      0.73671790667779
  N   1.97102316459768      2.22844210534225      0.94127107677088
  N   1.36345489154953     -0.70667186915445     -0.63064787769073
  H   2.35425409762418     -0.80968261956050     -0.45171352201905
  H   0.94043132895404     -1.61405665858439     -0.77767840448156
