12
Coordinates from ORCA-job run
  C   0.01697117072472      0.31213285128172     -0.23968723854341
  C   1.26687869842897     -0.38651040875272      0.21978511715230
  Br  0.37929087250989      1.81196132914797     -1.36519133558647
  H   1.91570565415035      0.31850802772157      0.73511267601078
  H   0.99858335701555     -1.19603798506675      0.89841267049938
  H   1.78668248039570     -0.78758954922906     -0.65198904660395
  N   -0.82411737406425      0.81594990257792      0.93429321271851
  O   -0.25125092715176      0.92750416523222      2.00929135030449
  O   -1.98797560594268      1.08729550031816      0.67868469138529
  N   -0.89581789145106     -0.70986337638595     -0.92985477997605
  O   -1.27709872545670     -1.59091389428535     -0.16789936463881
  O   -1.12885170915873     -0.60443656255973     -2.12095795272206
