12
Coordinates from ORCA-job run
  C   0.01087583772486      0.31750663515205     -0.23310178474081
  C   1.27207197099649     -0.38597687523459      0.18685063066796
  Br  0.34665854250924      1.84255216191683     -1.33287585243078
  H   1.02037704309894     -1.20929387718042      0.85514465599484
  H   1.77429158067810     -0.76890801234693     -0.70322886709688
  H   1.92985960013497      0.31092970435388      0.70179862201840
  N   -0.80857801373623      0.79266170316602      0.96753806752012
  O   -0.21524037296326      0.88280784589902      2.03342923257140
  O   -1.97827621521240      1.06482383644826      0.74099183661951
  N   -0.91127438754331     -0.69259798506335     -0.92746802559839
  O   -1.27403968508238     -1.59183553957679     -0.17774744106234
  O   -1.16772590060501     -0.56266959753398     -2.11133107446303
