12
Coordinates from ORCA-job run
  C   0.02522621088871      0.26658399363095     -0.28884256974909
  C   1.25844940702684     -0.33978603758095      0.32206495975309
  Br  0.42546697718432      1.50477139029880     -1.68701643210549
  H   0.96552649973416     -1.07481283693957      1.07156307589779
  H   1.84668130572471      0.45299543464843      0.78741197316626
  H   1.85214786965049     -0.82533704957990     -0.44951369303998
  N   -0.80982099038544      0.91483722709822      0.82296157971753
  O   -1.21862523871508      0.09905974529840      1.64132236465988
  O   -0.96320427805055      2.12334717563198      0.83722168180047
  N   -0.90801653954391     -0.79455882492873     -0.87267212285841
  O   -0.41474284047558     -1.89006214358236     -1.10290840468123
  O   -2.05808838303865     -0.43703807399528     -1.08059241256082
