12
Coordinates from ORCA-job run
  C   0.04595408260015      0.29059510036825     -0.26147755361677
  C   1.28394734785346     -0.37479130252891      0.26579361480708
  Br  0.44855060861744      1.67257740719104     -1.51565709586709
  H   1.83597617945165     -0.80951220110268     -0.56759552380819
  H   1.02040422643360     -1.15408394440146      0.97490354895013
  H   1.90679512084213      0.37246373199892      0.75766231019609
  N   -0.81935111274956      0.86296803051088      0.88282897049599
  O   -0.60977503669218      0.37776391470972      1.98927256203917
  O   -1.66603503131883      1.69095519920507      0.58670120580488
  N   -0.91501475951501     -0.73251288893117     -0.90611157615196
  O   -1.78615997954358     -0.29810762658354     -1.64268698724166
  O   -0.74529164597927     -1.89731542043613     -0.56263347560769
