16

C	0.0	0.0	0.0
C	-0.370527	0.343691	-1.48234
Cl	1.761061	0.0	0.0
H	0.442466	-0.041475	-2.093884
N	-0.546423	0.856061	0.937385
H	-0.289193	0.559258	1.8714
H	-1.576515	0.804581	0.819966
N	-0.341762	-1.514761	0.212309
O	-0.525397	-1.856068	1.371059
O	-0.310879	-2.239968	-0.774004
N	-0.269383	1.849131	-1.632102
O	-1.277828	2.514632	-1.451573
O	0.844107	2.27795	-1.930854
C	-1.591398	-0.122198	-2.140929
N	-2.221398	-0.488128	-3.067069
Cl	-3.346984	0.0	0.0
