16

C	0.0	0.0	0.0
C	-0.273581	-0.069131	-1.552575
Cl	1.769366	0.0	0.0
H	0.318733	-0.8969	-1.934675
N	-0.524703	0.999983	0.811004
H	-1.550764	0.866265	0.804611
H	-0.306481	1.902249	0.406754
N	-0.422048	-1.377261	0.566724
O	-0.445703	-2.306485	-0.232641
O	-0.614528	-1.442066	1.766735
N	0.352612	1.153416	-2.198722
O	1.108755	0.943362	-3.141348
O	0.044293	2.258243	-1.761953
C	-1.593184	-0.187675	-2.177526
N	-2.319043	-0.318897	-3.098091
Cl	-3.325295	0.0	0.0
