18
Coordinates from ORCA-job run
  C   0.94163155630382     -0.22104221396090      0.17311433657697
  C   -0.43018927884808     -0.36061954167863     -0.48563274851780
  Br  2.01700002602367     -1.83877102808233     -0.02520938345653
  H   -0.23932411231131     -0.65688016670594     -1.52024178936040
  N   1.72695270046546      0.84663054062735     -0.66739846001529
  O   1.78571556711782      0.67927186971498     -1.87725506215256
  O   2.18698930578018      1.79860397443854     -0.04391012581547
  N   0.87767168491013      0.11011022913218      1.53773148854314
  H   1.80050474498662      0.21301822156356      1.94015473293943
  H   0.36699790568031      0.97457342641151      1.67039891873841
  C   -1.16039577593882      0.98661297349895     -0.49836186160481
  H   -0.57485818277309      1.78318540442096     -0.96233969575516
  H   -1.44842037609590      1.30085218022996      0.50904616754532
  H   -2.08242486906731      0.88427654276472     -1.07473070838997
  C   -1.27691611595838     -1.42559243138296      0.20389360725375
  H   -0.79581402661258     -2.40346579995466      0.17373451044702
  H   -2.24191849215301     -1.50675313314696     -0.30265846894612
  H   -1.45320226150953     -1.16501104789031      1.24866454197008
