18
Coordinates from ORCA-job run
  C   0.82024477768517      0.02656228717586      0.45368762381799
  C   -0.56003953342037      0.16117934777321     -0.19997827726363
  Br  0.96981548521283     -1.53524044907292      1.59075433378140
  H   -0.50491852423452      1.12390681959218     -0.72774651271156
  N   1.81970566469040     -0.15651926253900     -0.73889964929523
  O   2.24398272990120     -1.26014451513933     -1.04356324947679
  O   2.03924871655567      0.89446213078581     -1.34027551268717
  N   1.14154143594531      1.17372710310258      1.21982672344189
  H   1.16116267876697      1.98941630150060      0.61840035857179
  H   2.03259838073564      1.07508431870475      1.69068993664041
  C   -1.66242504929575      0.24693358541805      0.85219928883782
  H   -1.39939382535495      0.94561986885002      1.64615194543133
  H   -1.85003985027873     -0.73212222002791      1.29705829375807
  H   -2.58774497739977      0.58456595012227      0.37858777892225
  C   -0.84938079511314     -0.92803488362151     -1.22821992571270
  H   -0.17306248460611     -0.88667957594208     -2.08383942476331
  H   -0.77465203832810     -1.92076954034509     -0.77882013111721
  H   -1.86664279146175     -0.80294726633748     -1.60601360017537
