18
Coordinates from ORCA-job run
  C   1.02479216512181     -0.19344974737610      0.10145808350587
  C   -0.39535636575661     -0.35995692144911     -0.47462564104862
  Br  2.04961015290849     -1.83361614958113     -0.18466140079579
  H   -0.27273475143001     -0.74821607232002     -1.49028678105683
  N   1.67890686869959      0.90326687207484     -0.75027251283372
  O   1.85111282866018      0.65548589565911     -1.93575914203796
  O   1.86960892796166      1.98319338403563     -0.20040171095297
  N   1.18056343837201      0.17680882420233      1.46457240397370
  H   0.78742511409407     -0.52431180360387      2.07669436872965
  H   0.79208005421635      1.09188149144965      1.65051723404616
  C   -1.11088438428860      0.99064404759570     -0.55320646888597
  H   -0.62683708900599      1.68044384475471     -1.24662713252355
  H   -2.13277892671278      0.83484179680708     -0.90592450580693
  H   -1.17338280325222      1.47121268114448      0.42730424037667
  C   -1.21290764710983     -1.34744133847735      0.35188278653729
  H   -1.43054623501313     -0.94357919152346      1.34458662171241
  H   -0.70642866629882     -2.30692658469683      0.46491639448993
  H   -2.17024268116618     -1.53028102869566     -0.14116683742934
