18
Coordinates from ORCA-job run
  C   0.97966686911956     -0.17086864521840      0.42318907566191
  C   -0.54569197674581     -0.38142145240471      0.27452951541973
  Br  1.82476258260078     -1.86678386184817      0.88050036440513
  H   -0.83401035021220     -0.88133325756426      1.20766492974185
  N   1.50485796435213      0.29878009829014     -0.93803755832062
  O   1.84508416938164     -0.52860036495745     -1.77034289281105
  O   1.44778633107274      1.51558041520604     -1.11133023910789
  N   1.43493839293431      0.79028945610420      1.37765803612914
  H   1.12672888097979      0.53502048920125      2.30686344410967
  H   1.10478270370580      1.71471693826774      1.13213881845919
  C   -0.92877867231361     -1.28208585364330     -0.89827692013750
  H   -0.76247308894602     -0.77762180546145     -1.85316104678134
  H   -0.36578626961149     -2.21490406649982     -0.90436558159258
  H   -1.99212220488096     -1.52439654892211     -0.83236006134485
  C   -1.30247032689235      0.94586086655448      0.19300825331449
  H   -1.13467004748041      1.57402496502223      1.06934107233850
  H   -1.02774886244399      1.51308311663652     -0.69847611549345
  H   -2.37385609461992      0.73865951123708      0.14145690600967
