18
Coordinates from ORCA-job run
  C   0.84170946356853      0.01118011755111      0.50819071698773
  C   -0.56352144870048     -0.46222900090670      0.13873251082696
  Br  1.34842913919343     -0.54087384315441      2.31198288954715
  H   -0.57239307159163     -1.54199441743096      0.30797859979859
  N   1.83149552115552     -0.78703113806667     -0.41052938169197
  O   2.61778347210916     -0.11755109293942     -1.07403072371386
  O   1.72159197715101     -2.00465504404979     -0.43321433903418
  N   1.01116871052669      1.40240686899324      0.40119765416795
  H   0.79463294326787      1.71556399676830     -0.53730820245128
  H   1.95785664225344      1.68078081644838      0.62601420645909
  C   -0.84509425608401     -0.20792006947283     -1.34625114943912
  H   -0.09377534535613     -0.65192145430004     -2.00269496785144
  H   -1.80715900544533     -0.65518330361701     -1.60546216817669
  H   -0.92101538061647      0.86055225639735     -1.56797989296724
  C   -1.62517648396351      0.20157227687337      1.00975292537903
  H   -1.61811955277873      1.28414276127671      0.87358206266805
  H   -2.61184600515284     -0.17784894517434      0.73241369518953
  H   -1.46656731953651     -0.00899078519629      2.06762556430171
