18
Coordinates from ORCA-job run
  C   0.85866377060526      0.09103279244165      0.47073905569768
  C   -0.53693040748809     -0.47074592906963      0.20173668967632
  Br  1.45620668324992     -0.27713669051606      2.29352439604633
  H   -0.49119687811340     -1.53042463900300      0.46555261939749
  N   1.84802771434617     -0.74524515811563     -0.41481143926526
  O   1.79209054912369     -1.96340721644323     -0.32498133716317
  O   2.57635303028344     -0.10621853932044     -1.16828825091176
  N   0.96254375529900      1.47259552381693      0.23551551894424
  H   0.69663075693355      1.69296552707840     -0.71647704342669
  H   1.90317838629751      1.80914215621145      0.39696277043264
  C   -0.88390663478872     -0.36237562503418     -1.28712778651091
  H   -1.01347942192096      0.67796864708961     -1.59938092557612
  H   -1.83498316488101     -0.86838362928518     -1.46668081613184
  H   -0.13913467120795     -0.83376959536354     -1.93183127336229
  C   -1.59385465685725      0.22476771541491      1.05351561620038
  H   -1.63926475397662      1.29023050952335      0.82265801643088
  H   -2.57261118014418     -0.21727652801740      0.85088258795488
  H   -1.38733287676037      0.11628067859199      2.11849160156719
