18
Coordinates from ORCA-job run
  C   0.93040070446250      0.05083855293488      0.31570742564006
  C   -0.52126570128409      0.11236948490546     -0.19012751998342
  Br  1.22368471143798     -1.47084522133674      1.47689558367986
  H   -0.53927661185677      1.03331303536367     -0.78897738294609
  N   1.79792232393219     -0.09564035910122     -0.94781010308948
  O   2.31991681177873     -1.16100357207663     -1.23394471599793
  O   1.82979095867029      0.93338575026881     -1.61902271119201
  N   1.43725615298207      1.21455583073938      0.98304411708980
  H   1.12048502138193      1.25041833103422      1.94126955796922
  H   1.15794900989597      2.05118308552362      0.48441398588884
  C   -1.51518338531720      0.26488807110036      0.95663465634352
  H   -1.24124904286696      1.07817938898009      1.63186896957497
  H   -2.50395180289116      0.49223244364384      0.55124378302509
  H   -1.59183351548328     -0.65647799454670      1.53655557711829
  C   -0.89537120319315     -1.05374927182763     -1.10045090689357
  H   -0.26432238321767     -1.10404958443350     -1.98974651334508
  H   -0.81775000078132     -2.00569621385452     -0.57102338378985
  H   -1.92820204765005     -0.93490175731740     -1.43653041909221
