18
Coordinates from ORCA-job run
  C   0.86443951131215      0.18511210520812      0.16584768305564
  C   -0.58611004438751      0.03761840274907     -0.28733231844194
  Br  1.44986732699703     -1.47904766867217      1.15937450897348
  H   -0.69750416366256      0.81444737041227     -1.05238623072020
  N   1.84021357187625      0.25133398161532     -1.02001009473073
  O   1.39766403338106      0.05099417587580     -2.14412490478376
  O   2.99903461670114      0.53441771355542     -0.74298759520245
  N   1.10666122767889      1.36559294414431      0.88366968724212
  H   0.57395668183620      1.39866779717857      1.74157403106374
  H   2.09468338698631      1.47151950989842      1.08240572477709
  C   -1.54304001075423      0.35435995206130      0.86293163807920
  H   -1.34507094182069     -0.28766657193560      1.72612403274319
  H   -1.49139292731131      1.40088795755598      1.16873462990266
  H   -2.56814301796841      0.16249480259011      0.53903662899975
  C   -0.94183343573577     -1.31443230919189     -0.90330440505886
  H   -1.06760168420778     -2.07299408359855     -0.12944139796347
  H   -1.89129426128837     -1.21435564565606     -1.43583405122632
  H   -0.19452986963241     -1.65995043379045     -1.61427756670912
