18
Coordinates from ORCA-job run
  C   0.97785189473125     -0.15510796351777      0.43264123789187
  C   -0.54305093992531     -0.38760038694645      0.27152537692800
  Br  1.84269062482120     -1.83670375227808      0.90599910333383
  H   -0.83248957305997     -0.88770780967471      1.20424413187328
  N   1.50853821032828      0.31512129060559     -0.92628591669745
  O   1.43445427726105      1.53002380171112     -1.10658260271140
  O   1.86907008094135     -0.51127339038457     -1.75098693438788
  N   1.41135541348494      0.81712361196591      1.38604552999116
  H   1.07035173740220      1.73553359483395      1.13275405406668
  H   1.09841120068094      0.56246995249217      2.31385048779567
  C   -0.90291880098696     -1.29879367901586     -0.90043880755857
  H   -0.32722480581085     -2.22383244889166     -0.89672358640551
  H   -1.96342798861048     -1.55538201691842     -0.84344337634212
  H   -0.73465404914322     -0.79652841711755     -1.85615946840517
  C   -1.31737659731726      0.92864144865964      0.17757298339549
  H   -1.16602934705938      1.56265474408974      1.05268192424105
  H   -2.38534229824529      0.70671558414246      0.11722141466246
  H   -1.04220903949251      1.49564583624447     -0.71391555167137
