18

C	-0.455657	0.11886	-1.453119
C	0.0	0.0	0.0
F	-1.80205	0.395213	-1.511409
H	1.093826	0.0	0.0
C	0.316971	1.151296	-2.234122
H	1.386526	0.994278	-2.091187
H	0.060137	1.083422	-3.293547
H	0.040503	2.142211	-1.873287
N	-0.290963	-1.236696	-2.135996
O	0.832167	-1.502991	-2.547611
O	-1.283498	-1.955469	-2.206071
C	-0.520628	-1.207972	0.634295
N	-0.959543	-2.147803	1.186676
C	-0.428183	1.23007	0.813148
H	-0.077636	1.108477	1.839232
H	-1.512341	1.356958	0.815131
H	0.048339	2.125395	0.411406
Cl	3.302058	0.0	0.0
