18

C	-0.456071	0.119369	-1.452642
C	0.0	0.0	0.0
F	-1.801758	0.398213	-1.510664
H	1.093922	0.0	0.0
C	0.319395	1.148527	-2.235865
H	0.045871	2.141676	-1.87748
H	1.388792	0.988065	-2.092826
H	0.062561	1.078404	-3.294984
N	-0.293802	-1.237653	-2.133704
O	-1.288792	-1.951016	-2.217067
O	0.832791	-1.510723	-2.52989
C	-0.522022	-1.207717	0.633318
N	-0.961573	-2.145526	1.188023
C	-0.427396	1.230432	0.812822
H	0.049961	2.125211	0.410857
H	-0.077309	1.108793	1.838863
H	-1.511257	1.358468	0.814338
Cl	3.303145	0.0	0.0
