18

C	-0.502444	-0.019604	-1.44723
C	0.0	0.0	0.0
F	0.084464	-1.06509	-2.092943
H	1.095897	0.0	0.0
C	-1.99943	-0.127957	-1.633973
H	-2.51763	0.704114	-1.162727
H	-2.225462	-0.13238	-2.70275
H	-2.335597	-1.070182	-1.199139
N	-0.042718	1.245112	-2.168755
O	-0.642273	2.275809	-1.860874
O	0.836003	1.14541	-3.010119
C	-0.458371	-1.245258	0.61573
N	-0.877071	-2.215504	1.129535
C	-0.449114	1.189688	0.85518
H	-0.016005	2.111623	0.472202
H	-1.53598	1.292664	0.898614
H	-0.069571	1.035999	1.866693
Cl	3.286053	0.0	0.0
