18

C	-0.456555	0.112665	-1.450968
C	0.0	0.0	0.0
F	-1.81263	0.344955	-1.50896
H	1.093832	0.0	0.0
C	0.281631	1.172237	-2.228677
H	1.355713	1.055809	-2.078451
H	-0.037095	2.152786	-1.872351
H	0.03782	1.091137	-3.289726
N	-0.250046	-1.234512	-2.140467
O	0.877367	-1.458356	-2.564149
O	-1.214444	-1.989378	-2.201905
C	-0.520942	-1.206399	0.635819
N	-0.96002	-2.142169	1.194052
C	-0.426278	1.232554	0.81015
H	-1.508855	1.36917	0.801073
H	-0.088111	1.106227	1.839573
H	0.063573	2.123253	0.414985
Cl	3.294773	0.0	0.0
