18

C	-0.361888	-0.004727	-1.482034
C	0.0	0.0	0.0
F	0.19119	1.100895	-2.054084
H	1.097095	0.0	0.0
C	0.080645	-1.234282	-2.228963
H	1.158901	-1.329037	-2.081843
H	-0.138939	-1.11113	-3.29226
H	-0.426063	-2.118615	-1.847755
N	-1.872832	0.175005	-1.62823
O	-2.560247	-0.792067	-1.305196
O	-2.297816	1.257039	-2.01869
C	-0.453256	-1.212239	0.671375
N	-0.794076	-2.180181	1.243745
C	-0.489784	1.255378	0.722798
H	-0.041377	1.288142	1.71683
H	-1.578631	1.273443	0.824879
H	-0.163263	2.138084	0.172677
Cl	3.298369	0.0	0.0
