18

C	-0.450971	0.159826	-1.453325
C	0.0	0.0	0.0
F	-1.751655	0.599699	-1.507334
H	1.093786	0.0	0.0
C	0.440019	1.077941	-2.252066
H	1.479104	0.762861	-2.147896
H	0.132399	1.069342	-3.300218
H	0.336287	2.092918	-1.865024
N	-0.452728	-1.209352	-2.124792
O	-1.537095	-1.729077	-2.366881
O	0.653176	-1.685115	-2.35595
C	-0.521634	-1.224761	0.597861
N	-0.956367	-2.18782	1.111578
C	-0.427502	1.208793	0.843666
H	-1.512721	1.294901	0.909448
H	-0.010633	1.096361	1.845496
H	-0.014182	2.124501	0.418348
Cl	3.313929	0.0	0.0
