15
Coordinates from ORCA-job run
  C   0.88163125619585      0.30280569670800      0.09328946599150
  C   -0.50397571026739      0.29620156379573     -0.59424151262639
  Br  1.76780406019777      2.06200279068986     -0.40211245645061
  H   -0.35261245991381      0.56949421037493     -1.64267482287904
  N   0.76415153479891      0.09522098612879      1.48341425944875
  H   0.21144545517794      0.82179348011263      1.92507691932590
  H   1.66301612198858      0.01790865638069      1.94189939316291
  C   1.73817638471160     -0.72091320117739     -0.50385944782379
  N   2.40325844398539     -1.56080266760224     -0.98747968805270
  C   -1.33788679183729      1.32206270993863      0.03449391433579
  N   -2.01563354653778      2.10347363002748      0.59084850933493
  C   -1.17983958218946     -1.07674383162482     -0.49749953669362
  H   -2.15351196746029     -1.03891265389273     -0.98902542589149
  H   -1.31714119945230     -1.36247887845902      0.54477674667291
  H   -0.56988199939772     -1.83211249140056     -0.99590631785504
