15
Coordinates from ORCA-job run
  C   0.86011546254544      0.44819252178474      0.07356298419601
  C   -0.52225864410231      0.30888121464750     -0.59996494502409
  Br  1.59307752291802      2.21852255018950     -0.32939892210941
  H   -0.37733868924464      0.47238231553998     -1.67358835160642
  N   0.73578011202764      0.33863388161080      1.50642823016285
  H   0.49254426763338     -0.61325571106793      1.76101130484428
  H   1.61127281461551      0.57531739006017      1.95888179520401
  C   1.78336972229575     -0.52796799159937     -0.53089555733023
  N   2.49210214890125     -1.36059204948210     -0.96521312432466
  C   -1.42814556093877      1.34515019513039     -0.10163280838560
  N   -2.21198761333776      2.13596827409480      0.27040588974582
  C   -1.13451958791736     -1.08036418517286     -0.37712849878491
  H   -2.06017403316766     -1.16318706209726     -0.94868116622483
  H   -1.38323449849613     -1.23656080548315      0.67385443909587
  H   -0.45260342373233     -1.86312053815522     -0.71564126945868
