15
Coordinates from ORCA-job run
  C   0.85354822401805      0.18402722382059      0.22979195804160
  C   -0.60317883634933      0.35356255795353     -0.25990944141741
  Br  2.05023423351810      0.55026973990442     -1.37440844486267
  H   -0.68488268749377      1.38208076429732     -0.63370734162299
  N   1.12018898954886      1.04148274023929      1.31563643968545
  H   0.96640221436316      2.01411084653645      1.07918299536526
  H   2.05022068082880      0.91797991500795      1.69513536296769
  C   1.12536265529595     -1.20372621581490      0.60078697094372
  N   1.32464830209442     -2.32245951925383      0.90093193038256
  C   -1.49666255030033      0.21820473822467      0.89629850445808
  N   -2.25941842296364      0.08671396349022      1.77956587619475
  C   -1.02589926693763     -0.62616128935229     -1.35680871036038
  H   -2.07114304369254     -0.44860965319647     -1.61438723883319
  H   -0.41789248109210     -0.49232792287912     -2.25018726043838
  H   -0.93052801083801     -1.65614788897783     -1.00792160050408
