15
Coordinates from ORCA-job run
  C   0.93522057844679      0.24128246737836      0.11169967553240
  C   -0.57154355921927      0.33112384511854     -0.27474235911920
  Br  1.97712763302430      0.72164847076413     -1.49044874211734
  H   -0.72802787286141      1.35113827286670     -0.64662510573636
  N   1.36232643978736      1.11164904538398      1.17182820571871
  H   1.11597843620722      2.07373669664064      0.96854604718923
  H   0.94801292122677      0.82950432009271      2.05424691393733
  C   1.26590640475737     -1.14134793842621      0.46524256291816
  N   1.47944148105670     -2.25958876425247      0.75731593172719
  C   -1.33860121856123      0.18005285049201      0.96571916308278
  N   -1.93251116207614      0.03787961535600      1.96939410727511
  C   -1.03727918354262     -0.68355622692385     -1.32003766483031
  H   -0.48503813340916     -0.55014337436820     -2.24979517486377
  H   -2.10018235026317     -0.54116892085810     -1.52266464138846
  H   -0.88983041457352     -1.70321035926424     -0.95967891932547
