15
Coordinates from ORCA-job run
  C   0.83339718676438      0.25194057734384      0.19109804598579
  C   -0.45727166005807     -0.15186539622467     -0.55898316462893
  Br  0.48109726871511      1.97130388188177      1.19460924029259
  H   -0.15357651646778     -1.00280195328623     -1.18210345772999
  N   1.26844493270893     -0.80773000083311      1.02708862428456
  H   0.62411998769621     -0.96068758576410      1.79284620171108
  H   2.19135873450165     -0.62928611154762      1.40416314905932
  C   1.88452086568959      0.58243062013841     -0.77105380869098
  N   2.72985081494167      0.81184322069304     -1.55478678386648
  C   -0.89494932472363      0.91842847693971     -1.45513469600753
  N   -1.27299582063416      1.74693369963530     -2.19649080215936
  C   -1.59266566813761     -0.59565631488284      0.36527009407460
  H   -1.31376607776398     -1.50157940894565      0.90582314884082
  H   -2.47593286977829     -0.82698743773172     -0.23178056108906
  H   -1.85263185345402      0.19371373258386      1.07143476992359
