15
Coordinates from ORCA-job run
  C   0.94768022725946      0.38336544852193      0.10253776652226
  C   -0.43786689807172      0.33635110524308     -0.60919998322280
  Br  1.76782927874023      2.12363227787903     -0.34172974248992
  H   -0.28409705433479      0.57941733258329     -1.66571368911161
  N   0.94416946498405      0.24617308690999      1.52778904089912
  H   0.74454496834824     -0.70428907369964      1.81367200366664
  H   0.30091470288910      0.89857380160376      1.96154974633267
  C   1.80122271132271     -0.65484340644870     -0.47975503008328
  N   2.43208487956954     -1.52417506778860     -0.95660119791963
  C   -1.29777670016212      1.35986504196651     -0.01514309081052
  N   -2.00314913040703      2.13590806561644      0.51401449791044
  C   -1.09931032200467     -1.04065138343249     -0.48298473069237
  H   -1.27358586149569     -1.29655892156315      0.56362197620855
  H   -0.47597438774051     -1.80889946271837     -0.94351509212445
  H   -2.06568587889680     -1.03186884467305     -0.98954247508510
