15
Coordinates from ORCA-job run
  C   0.90666996041628      0.26856854084519      0.15854158241466
  C   -0.45744220066219     -0.15628827634628     -0.46470067524828
  Br  0.75514882563797      2.11017026240873      0.82915181098589
  H   -0.27310621804634     -1.15856972719739     -0.87688513964768
  N   1.37927080607788     -0.54985921079382      1.24252411709390
  H   1.55855476088423     -1.49817501518779      0.93082450571620
  H   0.73097254675261     -0.54794514187370      2.01924224271462
  C   1.92139655606217      0.26582962445660     -0.89975548695781
  N   2.71596953381168      0.20016839036047     -1.76338843814073
  C   -0.81299928484068      0.71347001863306     -1.58608625384990
  N   -1.12918536062072      1.40221166685441     -2.48346486238303
  C   -1.60477355311690     -0.24084028135690      0.54231817885032
  H   -2.50638681147509     -0.58882573552208      0.03585069786244
  H   -1.37184667231050     -0.95380963538841      1.33490627825804
  H   -1.81124288857041      0.73489452010786      0.98192144233138
