15
Coordinates from ORCA-job run
  C   0.72964131662849      0.17965206973124      0.44031377395963
  C   -0.43082786841865      0.04162608198608     -0.57288361772550
  Br  0.18875550146277      1.30208125878537      1.94993664287169
  H   -0.03489876359306     -0.59916763615503     -1.37441654391303
  N   1.06069021534706     -1.12935755524757      0.95861989164499
  H   1.45214989037173     -1.69559568432277      0.21057718758121
  H   1.75745700364729     -1.04946749695088      1.69100728850349
  C   1.86697803823372      0.86089165937689     -0.19901131906817
  N   2.81913215359428      1.31547336563037     -0.71990575385080
  C   -0.74116574741495      1.33797137560795     -1.17665877960688
  N   -1.02214724889471      2.36137051798687     -1.67952207537214
  C   -1.68267972341865     -0.61218928478891      0.01461833556521
  H   -2.15941616523764      0.04936851273597      0.73727305205364
  H   -1.41364382734913     -1.54470803181322      0.50841850774916
  H   -2.39302477495859     -0.81694915256238     -0.78836659039244
