15
Coordinates from ORCA-job run
  C   0.94579647607880      0.39611587417078      0.04897089776278
  C   -0.47141076319941      0.31806583550679     -0.59529872430332
  Br  1.72215902757350      2.13602853516225     -0.47152714250930
  H   -0.37153721578969      0.54080651471417     -1.66268719349124
  N   1.00966765516323      0.28990230428012      1.47505247113872
  H   0.84501625255087     -0.65784814985332      1.79043743901975
  H   0.37401730997681      0.93867024600932      1.92503607687478
  C   1.78497580025619     -0.64408444231183     -0.55009277780075
  N   2.40916056279021     -1.51381336691626     -1.03458604863488
  C   -1.31353027638750      1.34459526269923      0.01895688311554
  N   -2.00077343873011      2.12446944584917      0.56549773644736
  C   -1.10849581672896     -1.06338720354856     -0.40865922629135
  H   -1.23481178719049     -1.29608808863849      0.65013224637420
  H   -2.09521470744490     -1.07859868655890     -0.87416869740076
  H   -0.49501907891853     -1.83483408056449     -0.87706394030155
