15
Coordinates from ORCA-job run
  C   0.80330092605754      0.24558042270767      0.29877771410273
  C   -0.39915917534580     -0.08840623880721     -0.61459403215355
  Br  0.29713698338734      1.80531313040694      1.48091427508925
  H   -0.00853380687907     -0.84149763850147     -1.31097543538373
  N   1.20307558223941     -0.90462682897439      1.02578140744783
  H   2.08219084473828     -0.75439660051391      1.50580427780838
  H   0.50074129445893     -1.17416180112704      1.70331434911328
  C   1.92212208447898      0.72965343240547     -0.50973148675467
  N   2.82661365959201      1.08651533897221     -1.17003185881226
  C   -0.79493997752029      1.07908293731145     -1.40218875865121
  N   -1.14648295480072      1.98914677178061     -2.05581060023569
  C   -1.59514070467758     -0.67998553942811      0.13366638209061
  H   -1.94738707865205      0.00194390072447      0.90837337125049
  H   -1.33082440782133     -1.64167992229903      0.57631830935370
  H   -2.41171326925568     -0.85348136465767     -0.56861791426516
