15
Coordinates from ORCA-job run
  C   0.75781131095453      0.36194546950973      0.22983114051287
  C   -0.43489317078779     -0.34780241231758     -0.45315889911582
  Br  0.42055747715306      2.28507328544265      0.36737322993037
  H   -0.15511358619814     -1.41111052099315     -0.48285966985803
  N   0.90947597339573     -0.15770188325469      1.57116877374920
  H   1.62597600717053      0.36031796455254      2.06769612658861
  H   1.20036963552180     -1.13051255510674      1.52140998322594
  C   1.96486368909905      0.20810183694057     -0.59805069540284
  N   2.95265689784385      0.00876398036943     -1.20545831865757
  C   -0.56940577279890      0.09705943771602     -1.84071783277223
  N   -0.69517195153041      0.43338988163965     -2.95879380183969
  C   -1.75292418262459     -0.20112106591292      0.30925583210017
  H   -1.60807107986289     -0.48012399384929      1.35181942382144
  H   -2.11299768783836      0.82613098983089      0.26159625156938
  H   -2.50413355949747     -0.85241041456714     -0.14111154385177
