15
Coordinates from ORCA-job run
  C   0.86382307540780      0.42173211483593      0.14830171570407
  C   -0.48341505096570      0.36612672886089     -0.60367678955431
  Br  1.65272210174269      2.19883249174216     -0.08254333970273
  H   -0.27830015999244      0.60363521138602     -1.65341149231647
  N   0.66226236360793      0.20912281292176      1.56045503794398
  H   1.51716731127028      0.39121259429028      2.07351212005016
  H   0.38786485728549     -0.75319652535952      1.73002358302512
  C   1.79830400266381     -0.52940910352241     -0.47872257405509
  N   2.51896432982591     -1.34805636916795     -0.92031106352645
  C   -1.39338410002487      1.38440460374827     -0.07660352234579
  N   -2.18502463775063      2.15370154185436      0.32324758423250
  C   -1.13545443726353     -1.02009414762496     -0.51552352389041
  H   -2.02948669098438     -1.03941321375744     -1.14057364440359
  H   -1.44507902469720     -1.24440867432793      0.50653135302491
  H   -0.45196394012516     -1.79319006587946     -0.87270544418592
