15
Coordinates from ORCA-job run
  C   0.88435195515728      0.26757575860064      0.15607114937623
  C   -0.45650455835763      0.33554818832534     -0.61212744252037
  Br  1.86113178037608      2.00641687382203     -0.22491198184391
  H   -0.23321688647292      0.64059734255457     -1.63869140820477
  N   0.67524129851143      0.02009982711280      1.52910245698556
  H   0.12639608503846      0.75452654579484      1.96268736184088
  H   1.54137243320894     -0.10899114824318      2.03639732535844
  C   1.73820596222550     -0.76945700229797     -0.42179951531804
  N   2.40126204545035     -1.62152279569614     -0.88616529774828
  C   -1.29150655634406      1.36817570833665      0.00390161840641
  N   -1.97977079556328      2.15340712174221      0.54166766831628
  C   -1.18288139652116     -1.01469636092318     -0.60753365553976
  H   -2.12897448738557     -0.92226164487906     -1.14363455709246
  H   -0.57460443175274     -1.77011052396493     -1.10774793433935
  H   -1.38150244757069     -1.33730789028462      0.41378421232312
