15
Coordinates from ORCA-job run
  C   0.86522444239394      0.43260630644078      0.10141746042523
  C   -0.51230755318892      0.34037860021149     -0.59012919954730
  Br  1.62278803262794      2.21038024708850     -0.21244411739543
  H   -0.35446325614957      0.54417036385129     -1.65504773738286
  N   0.72539282926461      0.25828851310786      1.52657485662394
  H   1.59842257244004      0.46579880157355      1.99782142087008
  H   0.47219049996145     -0.70240546270843      1.73419648233184
  C   1.78198164981437     -0.52508670160885     -0.54103393453933
  N   2.48346165436868     -1.34342474345818     -1.01286280605719
  C   -1.40884670900136      1.36954028277475     -0.06122383351974
  N   -2.18414943113318      2.15984010503685      0.32903592897399
  C   -1.14582056933636     -1.04771940928242     -0.42790592036107
  H   -0.46840555851236     -1.82693680964844     -0.78355120696260
  H   -1.41392044009623     -1.23799880085196      0.61266389965564
  H   -2.06254816345307     -1.09743129252680     -1.01751129311522
