15
Coordinates from ORCA-job run
  C   0.85778237156723      0.31305694557562      0.07665729185404
  C   -0.63241502495959      0.32566311234517     -0.33586866596895
  Br  1.95347656435669      0.66029537369563     -1.51408869360089
  H   -0.80067486223948      1.30999814691888     -0.78593282820012
  N   1.11089826992470      1.38643943889237      1.00572037813050
  H   2.09771371520767      1.43216080703593      1.23393697929529
  H   0.58793943810959      1.23010392612574      1.86316224984016
  C   1.23729403576582     -1.02196785009869      0.56634253131061
  N   1.52359836934228     -2.06988118194136      1.01818528893982
  C   -1.42950222738597      0.24737520496923      0.89275898896377
  N   -2.04486196321895      0.17173258437765      1.89070604997356
  C   -1.03553723220023     -0.79149484676041     -1.29907331524102
  H   -0.86440461616991     -1.77206478267674     -0.85107972187922
  H   -0.46631205523040     -0.71753691501585     -2.22537921007943
  H   -2.09699478286941     -0.70287996344321     -1.53604732333811
