15
Coordinates from ORCA-job run
  C   0.70601577160294      0.34325535402924      0.37925385971465
  C   -0.38369847930711     -0.21202154707853     -0.56783525588263
  Br  0.12514890225814      2.03566821729791      1.17191698546279
  H   0.03069528216436     -1.15365813453317     -0.95699834120378
  N   0.91910990899336     -0.59950705858326      1.45543303115443
  H   1.33425585875236     -1.44770587334573      1.07900341054450
  H   1.56027253614047     -0.21137808930205      2.13843893435484
  C   1.92538902262690      0.63822500954369     -0.39032515332629
  N   2.93282432518531      0.78280089018133     -0.98091396575748
  C   -0.57091393203935      0.67959413777294     -1.71285596599524
  N   -0.75619705761522      1.38291142791837     -2.63483169365007
  C   -1.71237493541849     -0.50466798641392      0.13137862364407
  H   -2.20123924526638      0.42134927420774      0.43245689343940
  H   -1.53621878042261     -1.11840347260807      1.01347803111044
  H   -2.37206917765467     -1.03646214908650     -0.55659939360966
