15
Coordinates from ORCA-job run
  C   0.82205067552849      0.26847754847679      0.20891212243573
  C   -0.45820264573195     -0.11291534710870     -0.56999009802342
  Br  0.40457090287606      1.85176676769653      1.39296925014553
  H   -0.12399450925336     -0.87734916646695     -1.28313555672581
  N   1.31513237525391     -0.85397355014494      0.92308035729541
  H   0.68979769618384     -1.11310052160532      1.67610300541042
  H   2.23450233916891     -0.67361479579860      1.30811489006293
  C   1.84606825696988      0.74780727204263     -0.71945963776346
  N   2.68541796161990      1.10732031354413     -1.45949742370699
  C   -0.95562535181597      1.02506370319527     -1.34316276345915
  N   -1.38071185202587      1.90827475465287     -1.98980334309334
  C   -1.56019239530693     -0.70572349295122      0.31010583219822
  H   -1.84642138230932     -0.00941555559959      1.09915561339741
  H   -1.23260983662435     -1.65006444129978      0.74773403338674
  H   -2.43978223453324     -0.91255348863309     -0.30112628156023
