15
Coordinates from ORCA-job run
  C   0.86687813668038      0.18774496680283      0.36303854104370
  C   -0.40019121702234      0.05839887535418     -0.53595686888409
  Br  0.52649325736530      1.53267390244958      1.75613263210767
  H   -0.10890248123411     -0.64996399068250     -1.32443251325988
  N   1.29104335976866     -1.01880515080349      1.02010131847676
  H   0.57408243860215     -1.37856027119770      1.63655528613314
  H   1.56767161545246     -1.72341597383777      0.34526876011028
  C   1.97400683760450      0.67825596015895     -0.46318270322744
  N   2.84864422628975      1.01973885186797     -1.17023659240291
  C   -0.70906817636374      1.33047195896409     -1.18889747713079
  N   -0.98941219850223      2.34464904317546     -1.71093033295525
  C   -1.62784365302417     -0.49115203173618      0.19121525361928
  H   -1.93806084671712      0.17755638669204      0.99399650699183
  H   -1.42244504088208     -1.48093954685743      0.60226263916457
  H   -2.45389625801741     -0.58865298035006     -0.51493444978685
