15
Coordinates from ORCA-job run
  C   0.93115771790085      0.24002019927251      0.14534511714388
  C   -0.56206079315540      0.33084695990233     -0.29043403392610
  Br  2.02492609843231      0.73580069295761     -1.41694024031772
  H   -0.70825433870861      1.35418435414741     -0.65739700756480
  N   1.32133892017687      1.10190582550395      1.22645664358781
  H   1.08072623573771      2.06536023454819      1.02281596239996
  H   0.87725381238614      0.81235520888810      2.09183062812835
  C   1.25161729412033     -1.14537858274390      0.49765724689427
  N   1.44817312202998     -2.26831708367928      0.78358500745438
  C   -1.37006180413555      0.16905819325779      0.92250807332037
  N   -1.99431777435538      0.03958392743327      1.90931445133543
  C   -0.99064371335200     -0.67436338738311     -1.36042059029061
  H   -2.04648297453212     -0.53170110014522     -1.59697202606806
  H   -0.85326629669468     -1.69726197624782     -1.00536269615999
  H   -0.40810550585048     -0.53109346571189     -2.26998653593716
