15
Coordinates from ORCA-job run
  C   0.88761044769198      0.27172676557030      0.12297037283959
  C   -0.47499063291135      0.31833038183899     -0.60787423322054
  Br  1.85190883898206      1.99886722633661     -0.33449651191230
  H   -0.28167807361149      0.59591536448354     -1.64822725242277
  N   0.71847965159681      0.06272713326301      1.50788890056331
  H   0.18389238659951      0.81002883731680      1.93720859891441
  H   1.59894625550847     -0.05514660092317      1.99269846305006
  C   1.72472305264826     -0.78142731857595     -0.45027500938262
  N   2.37471450932445     -1.64413187491568     -0.91336198239506
  C   -1.29245277184840      1.36712900231264      0.00436693471396
  N   -1.95980978641849      2.16848888275046      0.54457485160512
  C   -1.19900195067322     -1.03168808375597     -0.54580327343005
  H   -1.36301872618015     -1.32856514835817      0.48938418451299
  H   -0.60667447951522     -1.79898618541384     -1.04702238577692
  H   -2.16264872119319     -0.95326838192962     -1.05203165765918
