15
Coordinates from ORCA-job run
  C   0.80495220071188      0.17608651110799      0.34115919001267
  C   -0.41522866718177      0.08516764640770     -0.60466629858442
  Br  0.28918979434151      1.28740602480268      1.94943156490820
  H   -0.02395705189106     -0.40746324320112     -1.50399886583245
  N   1.26299124831139     -1.12291546486125      0.67913324882705
  H   2.15140680466308     -1.08935613593819      1.16438421290973
  H   0.59106205208971     -1.61109898957163      1.25808707545008
  C   1.88200590449037      0.92387026382593     -0.30712077455880
  N   2.75194827773662      1.49672685451182     -0.85166929585603
  C   -0.87349320899101      1.41900125360135     -0.99313624745102
  N   -1.27752708426746      2.46866911757946     -1.33060382272643
  C   -1.56752774283582     -0.75047447949661     -0.04417058920364
  H   -1.25964936093179     -1.78957222668709      0.08304886262266
  H   -2.40015132281105     -0.73732520316576     -0.74892822875254
  H   -1.91602184343462     -0.34672192891529      0.90704996823494
