15
Coordinates from ORCA-job run
  C   0.85238853837458      0.20432490793568      0.21584462070639
  C   -0.61125712404616      0.33712355573126     -0.26461539512590
  Br  2.02949207386173      0.53507205508313     -1.41053496816752
  H   -0.71307129473879      1.35328360338232     -0.66607257880067
  N   1.11633658125764      1.10029468583841      1.27072155539515
  H   0.94674314162625      2.06257009915587      1.00418787711929
  H   2.05133521947422      1.00216479786682      1.64564306630968
  C   1.14735772491221     -1.16674994483267      0.62869684943154
  N   1.36394539344281     -2.27225120773278      0.96425140205387
  C   -1.49044477576113      0.21803493396058      0.90427460562768
  N   -2.23898983193807      0.09283074608485      1.80048931622187
  C   -1.02866798832883     -0.67999781795288     -1.32910641242327
  H   -0.91335902076699     -1.69786791263689     -0.95184405248630
  H   -0.43163897386203     -0.56226439054607     -2.23208874938429
  H   -2.07916966350743     -0.52656811133761     -1.58084713647750
