15
Coordinates from ORCA-job run
  C   0.84955745651768      0.36192892460498      0.25854667228693
  C   -0.33972845071225     -0.32753879309085     -0.47610494095838
  Br  0.56686410270537      2.30684921859204      0.24468430048777
  H   -0.07707904342255     -1.39492889173959     -0.48657224438955
  N   1.05344056156547     -0.03607319737448      1.62549624654011
  H   1.28222543699839     -1.02220064257740      1.68725911623696
  H   0.24775524657793      0.17838188377153      2.19860676058293
  C   2.07893133020440      0.08947198144424     -0.49263186177400
  N   3.04602009226289     -0.19352436299031     -1.09792480588845
  C   -0.41919315639147      0.11283294568352     -1.86898443727093
  N   -0.51630531814812      0.46307525685290     -2.98588792827239
  C   -1.68874499316844     -0.15839151348834      0.22328810703536
  H   -2.45309171343840     -0.71099969159351     -0.32522278134767
  H   -1.65145993590719     -0.55879832392807      1.23768840215188
  H   -1.98119161564372      0.89091520583333      0.25875939457942
