15

C	0.0	0.0	0.0
C	-0.239199	0.390932	-1.49279
Br	1.971936	0.0	0.0
H	0.176614	1.39522	-1.596925
N	-0.399694	1.094305	0.962645
O	-0.526018	0.762775	2.12912
O	-0.431424	2.228835	0.513723
C	-0.459466	-1.312833	0.400743
N	-0.545233	-2.445465	0.709474
N	-1.653474	0.510734	-2.058792
O	-2.08559	1.652102	-2.128886
O	-2.143962	-0.491547	-2.549728
C	0.457392	-0.521123	-2.403921
N	0.986534	-1.186374	-3.215979
F	-2.197979	0.0	0.0
