13

C	-0.34396	-0.080702	-1.500103
C	0.0	0.0	0.0
F	-0.132216	1.206607	-2.028663
H	1.097595	0.0	0.0
H	-1.402435	-0.292324	-1.678236
N	0.474957	-1.071334	-2.071811
H	1.452568	-0.90848	-1.835638
H	0.353992	-1.122209	-3.073783
C	-0.48684	-1.192821	0.688742
N	-0.910045	-2.14075	1.237343
C	-0.534543	1.204889	0.625118
N	-0.990292	2.160368	1.132429
Cl	3.22335	0.0	0.0
