13

C	-0.453409	0.045839	-1.465346
C	0.0	0.0	0.0
F	0.065145	-1.099072	-2.077944
H	1.095318	0.0	0.0
H	0.016693	0.902527	-1.952543
N	-1.864806	0.122868	-1.588517
H	-2.130333	0.173495	-2.563784
H	-2.296227	-0.696246	-1.175251
C	-0.517278	-1.208447	0.640916
N	-0.965172	-2.189723	1.10545
C	-0.468899	1.190645	0.708855
N	-0.833297	2.154926	1.270576
Cl	3.206414	0.0	0.0
