13

C	-0.351372	-0.069729	-1.497658
C	0.0	0.0	0.0
F	-0.114208	1.214294	-2.023669
H	1.097654	0.0	0.0
H	-1.414421	-0.258557	-1.671772
N	0.441323	-1.076836	-2.076089
H	0.300707	-1.134237	-3.07541
H	1.425555	-0.927546	-1.859562
C	-0.488818	-1.194946	0.683002
N	-0.915175	-2.142007	1.23054
C	-0.530575	1.202679	0.632675
N	-0.985408	2.157313	1.142089
Cl	3.225635	0.0	0.0
