13

C	-0.35725	0.04266	-1.514578
C	0.0	0.0	0.0
F	-0.194046	1.356214	-1.913348
H	1.095713	0.0	0.0
H	-1.406928	-0.223632	-1.677056
N	0.48444	-0.79414	-2.296308
H	1.44632	-0.731595	-1.966376
H	0.175814	-1.755677	-2.259754
C	-0.457558	-1.280055	0.534508
N	-0.855115	-2.324211	0.896706
C	-0.558839	1.110406	0.759508
N	-1.036627	1.999041	1.360324
Cl	3.211984	0.0	0.0
