13

C	-0.432809	-0.004699	-1.47442
C	0.0	0.0	0.0
F	-0.08212	-1.219149	-2.021072
H	1.095932	0.0	0.0
H	0.169111	0.749016	-1.998032
N	-1.856077	0.134407	-1.611754
H	-2.188351	0.933241	-1.086907
H	-2.093627	0.268038	-2.58688
C	-0.524183	-1.16436	0.70998
N	-0.938694	-2.100182	1.284319
C	-0.458526	1.235847	0.631763
N	-0.850778	2.251677	1.072681
Cl	3.204867	0.0	0.0
