13

C	-0.448362	-0.034726	-1.465306
C	0.0	0.0	0.0
F	-1.830579	-0.356671	-1.498076
H	1.095497	0.0	0.0
H	0.063862	-0.859006	-1.96638
N	-0.164416	1.179975	-2.113738
H	-0.372182	1.130986	-3.100272
H	-0.650873	1.960383	-1.690627
C	-0.469054	-1.19225	0.706284
N	-0.833756	-2.160071	1.261224
C	-0.499746	1.207172	0.655807
N	-0.887811	2.208313	1.131519
Cl	3.213226	0.0	0.0
