18

C	0.0	0.0	0.0
C	-0.581496	0.128469	-1.424345
Br	1.964487	0.0	0.0
H	-1.636602	0.403424	-1.26665
C	-0.464275	1.098419	0.954583
H	-0.108305	2.06803	0.610904
H	-1.558228	1.081792	0.964305
H	-0.076822	0.898257	1.954992
C	-0.36383	-1.310907	0.543034
N	-0.573727	-2.376484	0.99362
C	-0.4839	-1.124018	-2.264372
H	-0.828039	-0.914208	-3.27768
H	-1.143044	-1.876211	-1.829903
H	0.538461	-1.502252	-2.315995
N	0.066847	1.289758	-2.117517
O	0.849696	1.057633	-3.038136
O	-0.225553	2.416695	-1.717309
Br	-3.781557	0.0	0.0
