12
Coordinates from ORCA-job run
  C   0.71419676006011      0.46399626689978      0.02159694974682
  C   -0.51023758311710      0.04440501926344     -0.79516269836300
  Br  1.72607346945951      1.69337106006855     -1.13941705422126
  H   -0.20513747499319     -0.46523586559657     -1.70975003993844
  H   -1.12064600570470      0.91250138718035     -1.04636044206523
  C   0.34085806409472      1.19699974501337      1.22837072538120
  N   0.02989345496856      1.82323970019455      2.17317597874721
  C   1.57909685288063     -0.67215496059515      0.32865942613853
  N   2.28850677726427     -1.58789765616814      0.52812958101664
  N   -1.39373495865525     -0.90630111456892     -0.03997552146076
  O   -1.05848381354919     -1.22607645121462      1.09697043743447
  O   -2.38938554270838     -1.27784713047662     -0.64623734241617
