12
Coordinates from ORCA-job run
  C   0.67165624993002      0.32504458793481      0.16023505229863
  C   -0.40946387905533     -0.45573683397537     -0.59680485526080
  Br  0.49711447413010      2.23815725910892     -0.23462730758037
  H   -0.27688963084985     -0.33592090663077     -1.67064465453309
  H   -0.36206992719189     -1.51331861155869     -0.32235002927041
  C   0.63895856992291      0.12317126821752      1.60822583207717
  N   0.68464576248417     -0.07771683153829      2.76565667490600
  C   1.96764812172631     -0.12292412356214     -0.35284207755913
  N   2.99268655786836     -0.52196507887185     -0.76828111871686
  N   -1.79274118792514      0.01273687444567     -0.27361031706933
  O   -2.59557812287697     -0.01525176207433     -1.19918073983065
  O   -2.01696698816267      0.34272415850452      0.88522354053884
