12
Coordinates from ORCA-job run
  C   0.66796020902197      0.33603120568400      0.15843621205413
  C   -0.40274865704459     -0.46656828635653     -0.59069874980415
  Br  0.46674328814424      2.24285442847587     -0.25342677970666
  H   -0.27364222410682     -0.35311826416933     -1.66566435725693
  H   -0.33871002197231     -1.52129633825126     -0.30862782959729
  C   0.63921991134727      0.14695383787497      1.60828977864288
  N   0.69016741814334     -0.03813319204610      2.76810283950103
  C   1.96889304433868     -0.09871387585347     -0.35348674276761
  N   2.99064877432040     -0.48418021341945     -0.78929442685971
  N   -1.79253133172360     -0.01707891302982     -0.26864977251776
  O   -2.01849316042429      0.32532538743206      0.88614395117302
  O   -2.59750725004429     -0.07107577634095     -1.19112412286092
