12
Coordinates from ORCA-job run
  C   0.67379702410450      0.35446573090169      0.05603339375096
  C   -0.42172828842577     -0.59202018043333     -0.44926889205330
  Br  0.47554122925547      2.10580250537692     -0.80488225658832
  H   -0.35994858013462     -1.54563046901925      0.08267897800611
  H   -0.31818800921599     -0.74846776807956     -1.52164644122816
  C   0.68056131173313      0.52575545720902      1.50837156602363
  N   0.76158534643712      0.62758496724632      2.67678133792206
  C   1.95847527574595     -0.20858093857529     -0.36320619965794
  N   2.96746850511110     -0.70135465960884     -0.71185695696615
  N   -1.79882727893004     -0.05652418425978     -0.21692176323253
  O   -1.99378617755262      0.55495837756498      0.82718130515826
  O   -2.62595035812823     -0.31598883832286     -1.08326407113461
