12
Coordinates from ORCA-job run
  C   0.77642308856795      0.35344267868729      0.01245822215935
  C   -0.55745004936515      0.22901033768671     -0.72799109340645
  Br  1.86646994620538      1.58798571996761     -1.06890857242468
  H   -0.40504855742080     -0.18170598573784     -1.72666857491950
  H   -1.04778192736918      1.20023063781129     -0.80219680095532
  C   0.61124282309121      0.94739982385144      1.33635749888498
  N   0.46760739816300      1.46700875929558      2.38096281274779
  C   1.48201732976861     -0.92364422528234      0.07896564348721
  N   2.05551268585712     -1.94957587084626      0.08231250440062
  N   -1.51247444777941     -0.68865506672980     -0.02030871521428
  O   -1.13930316156582     -1.21631096946941      1.02350181903082
  O   -2.59821512815289     -0.82518583923427     -0.56748474379052
