12
Coordinates from ORCA-job run
  C   0.76667035997209      0.36946441873351      0.05070167806068
  C   -0.53384191074177      0.23243466050945     -0.74497131058706
  Br  1.86982103231002      1.65149202810983     -0.95991545151476
  H   -0.33313067007984     -0.15233031303019     -1.74549938060285
  H   -1.04276724492745      1.19417832575050     -0.81774533070067
  C   0.53504113244741      0.93064983722425      1.37897310782000
  N   0.33879705324016      1.42660469822599      2.42654741884511
  C   1.49914048301195     -0.89219571329954      0.11896843632593
  N   2.10003392519250     -1.90229720166530      0.12851496390239
  N   -1.49476166926301     -0.72163851841605     -0.09641302343368
  O   -2.55467094852444     -0.86970561198984     -0.68919700573672
  O   -1.15033154263761     -1.26565661015263      0.94903589762164
