12
Coordinates from ORCA-job run
  C   0.66915409528769      0.31158240737960      0.19706229420215
  C   -0.39831929037428     -0.40993355671675     -0.63464163254524
  Br  0.49942392559819      2.24884803713855     -0.05584179938872
  H   -0.35376698665647     -1.48510100139737     -0.43942150299623
  H   -0.24805100508198     -0.20995340269170     -1.69409583040142
  C   0.61214140273121      0.00179732150444      1.62516909304145
  N   0.64150352343247     -0.28040009473467      2.76601709582887
  C   1.97344580431508     -0.09732470564548     -0.32729718036376
  N   2.99860189965423     -0.46044450639917     -0.77419664517285
  N   -1.78733598973083      0.03267361884075     -0.30002981101434
  O   -2.03115471602120      0.27383527721636      0.87658741200977
  O   -2.57464266315410      0.07442060550545     -1.23831149319969
