12
Coordinates from ORCA-job run
  C   0.65512550050655      0.00090317747256      0.39273450102321
  C   -0.38558126445095     -0.34788125769026     -0.67828905802654
  Br  0.38638997817896     -1.14003198826854      1.96492957172947
  H   -0.28533108141101      0.33522384702335     -1.52646266281575
  H   -0.25868237615765     -1.37878161886411     -1.00410699882759
  C   1.97142911240912     -0.30954918962198     -0.16789387980682
  N   3.00767831907633     -0.56413744328692     -0.66174832617635
  C   0.63142413612068      1.40467318392209      0.80210073794103
  N   0.68899621709838      2.54005378657594      1.10147884710465
  N   -1.79054158391392     -0.21716289349221     -0.18207126935470
  O   -2.59062986041571     -1.03359504285953     -0.62395964244566
  O   -2.03127709704080      0.70928543908962      0.58328817965504
