12
Coordinates from ORCA-job run
  C   0.67670455270187      0.28326926812474      0.21374897543431
  C   -0.39995116343025     -0.38999475204270     -0.64598528268729
  Br  0.59107767588772      2.22716527239734     -0.02994965992117
  H   -0.40302047323179     -1.46725098456285     -0.45749175722758
  H   -0.21855808506965     -0.18995858405956     -1.70055794405020
  C   0.57548221328092     -0.03234038694098      1.63815170051326
  N   0.56702468540262     -0.32243516552081      2.77736926062358
  C   1.97481112224594     -0.17486120125768     -0.28479197904613
  N   2.99349540798444     -0.57600215201581     -0.71354302179815
  N   -1.77739462880781      0.10605059633388     -0.33881633599589
  O   -2.03677374942896      0.35221909745127      0.83340937479342
  O   -2.54189755753504      0.18313899209315     -1.29354333063816
