12
Coordinates from ORCA-job run
  C   0.67868936600300      0.29177430126996      0.18763654653623
  C   -0.41185111175401     -0.42663207174641     -0.61711098232191
  Br  0.58488942484452      2.21982601991136     -0.15811181509724
  H   -0.24462523732327     -0.28757095037945     -1.68365696074889
  H   -0.41502887753574     -1.49070189321079     -0.36500361592760
  C   0.60215646033380      0.05297451462348      1.62849408994177
  N   0.61751167383792     -0.17621025359044      2.78141574422102
  C   1.96909091579895     -0.19200707323859     -0.30656500012971
  N   2.98081635487327     -0.61824793655918     -0.72762727236118
  N   -1.78127319687332      0.09423819731083     -0.31809358657162
  O   -2.54956520770165      0.16075066604474     -1.27072240998543
  O   -2.03081056450347      0.37180647956449      0.84934526244455
