12
Coordinates from ORCA-job run
  C   0.69710711839325      0.39187235030335      0.06976069854903
  C   -0.38421340836762     -0.41828537408354     -0.67233654178531
  Br  0.74378395561039      2.27071414760310     -0.48402678096850
  H   -0.38787166848076     -0.15090102594855     -1.72978078031932
  H   -0.19510846778190     -1.48292215009384     -0.53633528000842
  C   0.48869717696992      0.32695081572411      1.51575311556617
  N   0.29837882767948      0.25168630368991      2.67360991850154
  C   1.99212544315431     -0.19402404868871     -0.27846128859444
  N   3.00090668362265     -0.70795680428603     -0.59493146377821
  N   -1.74818516747781     -0.15689792208890     -0.12021916723765
  O   -2.14115524003810      1.00429289255640     -0.13767909897754
  O   -2.36446525328381     -1.13452918468731      0.29464666905264
