12
Coordinates from ORCA-job run
  C   0.67609716401048     -0.19450870969023      0.38019033728315
  C   -0.38637155563385     -0.31771834533938     -0.72915434466054
  Br  0.60986911345383     -1.68078001682332      1.65559685891006
  H   -0.13914144695609      0.36237120039767     -1.54394422691621
  H   -0.44056360868795     -1.34920683108907     -1.07941578054360
  C   1.98962456138733     -0.23792114737608     -0.26337799154124
  N   3.02162429792436     -0.27674746003502     -0.82524983995625
  C   0.51914877879364      1.06405074552900      1.10845129048036
  N   0.37307496431734      2.08635556912180      1.67080548244226
  N   -1.74144467811287      0.08227153560091     -0.24119993718678
  O   -2.19184740844264     -0.53711462512595      0.71612667507773
  O   -2.29007018205359      0.99794808482966     -0.84782852338893
