12
Coordinates from ORCA-job run
  C   0.72911951402566      0.42844072067047     -0.04274072543069
  C   -0.57998624097412      0.11097770105751     -0.78014702587431
  Br  1.82369541248950      1.47923558370447     -1.29522435839201
  H   -1.15604959828989      1.02548182604448     -0.92489113882999
  H   -0.36471588879266     -0.38255700059766     -1.72545612715836
  C   0.53515059435293      1.23550412399689      1.15955516829882
  N   0.40965910526718      1.90920761922660      2.11490237878701
  C   1.44661951505590     -0.80482640275934      0.27466483822899
  N   1.99072693171592     -1.81910945571598      0.51499611855436
  N   -1.41010036470378     -0.83206725099912      0.03384597551730
  O   -1.65328005392390     -1.92732730402185     -0.46276159442966
  O   -1.77183892622274     -0.42496016060647      1.13425649072854
