12
Coordinates from ORCA-job run
  C   0.73365565248751      0.43286217796245      0.02253228627816
  C   -0.48419374071883      0.02748190457340     -0.81147363548822
  Br  1.83220931060359      1.56069446593472     -1.16223617176743
  H   -0.17587564560060     -0.53833809717495     -1.69126954215249
  H   -1.04791736389241      0.90832025768468     -1.12057378261741
  C   0.35669269962207      1.23953960800610      1.18028668035618
  N   0.04412768273131      1.92914019751099      2.07931301819901
  C   1.53825284108884     -0.72310876143499      0.40889492295341
  N   2.20048985853160     -1.65803495822370      0.67148570964490
  N   -1.43019741089393     -0.84712572654907     -0.03965702706284
  O   -2.42363987263922     -1.20444558940553     -0.65790800656562
  O   -1.14160401131992     -1.12598547888410      1.12060554822234
