12
Coordinates from ORCA-job run
  C   0.68642629131038      0.12662467985927      0.30977257078955
  C   -0.41211698710454     -0.49471695345745     -0.56139623203361
  Br  0.68577458891395     -0.72857076421121      2.07479255743010
  H   -0.46352249741639      0.02899083274024     -1.52017948008961
  H   -0.21405161417245     -1.55374276584731     -0.71736906333880
  C   1.96726772461000     -0.17208930487573     -0.33331969448345
  N   2.97115059523892     -0.42862623173845     -0.88907465295629
  C   0.56127126139527      1.57449136678418      0.47265709717245
  N   0.53219204618532      2.74610745823636      0.56504810882997
  N   -1.76841223180932     -0.39228489194974      0.06085688823631
  O   -2.51930894597118     -1.34056999830131     -0.13635543695567
  O   -2.02767023117996      0.63638657276113      0.67456733739904
