12
Coordinates from ORCA-job run
  C   0.67842766885117      0.31085178975700      0.16450353099766
  C   -0.41514941672430     -0.44875963835418     -0.59639726431450
  Br  0.54640006499782      2.22575260971666     -0.23646948883773
  H   -0.39086010630839     -1.50677775554957     -0.32044398551157
  H   -0.27544605032732     -0.33303913039700     -1.66978751308387
  C   0.63380523180503      0.11377160015281      1.61288421999416
  N   0.67152252803435     -0.08023390076835      2.77175906310032
  C   1.96649685421148     -0.16660840858940     -0.34188214351267
  N   2.97709956224574     -0.58567385677828     -0.77261740527153
  N   -1.78992310794669      0.04891058083575     -0.28016980080731
  O   -2.01244866962949      0.38593766355446      0.87695443567498
  O   -2.58892455920938      0.03586844642009     -1.20933364842793
