12
Coordinates from ORCA-job run
  C   0.67277954605260      0.31610141358915      0.17630415070873
  C   -0.40686584808117     -0.43654346274267     -0.61092394271051
  Br  0.51168862952511      2.24095147148674     -0.16427365895739
  H   -0.36602369144004     -1.50200563057812     -0.36754675777788
  H   -0.26624926065397     -0.28594123841180     -1.67983825893560
  C   0.62788171922543      0.07269320562346      1.61762740155931
  N   0.66578471262081     -0.15776923033451      2.76979662669492
  C   1.96947379747337     -0.12368664081945     -0.34181218759491
  N   2.98796386786324     -0.51161653931274     -0.78311778681855
  N   -1.79007299597081      0.02906147271889     -0.28337915496321
  O   -2.58754646337261      0.02835277832133     -1.21400645224856
  O   -2.01981401324199      0.33040240045973      0.88217002104366
