12
Coordinates from ORCA-job run
  C   0.67927402363962      0.04524984664788      0.34674838909970
  C   -0.40889529246515     -0.37805283380539     -0.64744520396876
  Br  0.58987014822120     -1.09187585272521      1.94223117393576
  H   -0.40808801716856      0.29925095278901     -1.50609442317616
  H   -0.24224473994008     -1.40353365293108     -0.97277760608258
  C   1.97049254796547     -0.19248382350053     -0.30096426302505
  N   2.98375800382093     -0.39222466779345     -0.86302795530950
  C   0.59774972608158      1.44959631488783      0.74625299040860
  N   0.60456850796410      2.58988117014879      1.03215955450362
  N   -1.78242889677052     -0.32607290456259     -0.05702676178166
  O   -2.56122946879860     -1.19070782951008     -0.44152660687659
  O   -2.02482654254998      0.58897328035481      0.72147071227261
