12
Coordinates from ORCA-job run
  C   0.68092516026857      0.26712172008404      0.22296634803066
  C   -0.40746645795903     -0.35510228116367     -0.66019931257017
  Br  0.61502371800200      2.22093471980063      0.06727681837649
  H   -0.22898361754092     -0.10867218265725     -1.70539151546681
  H   -0.42059097234590     -1.43980226574193     -0.52128372807846
  C   0.58370630056659     -0.11141859610268      1.63221616536196
  N   0.57840350414750     -0.45604047543854      2.75621300134191
  C   1.97115419084766     -0.18213108229788     -0.30323923599680
  N   2.98218737589856     -0.57556467241221     -0.75651050360248
  N   -1.77816217045486      0.13967788998366     -0.32323254094252
  O   -2.02825406634715      0.33804408652465      0.85997673747812
  O   -2.54794296508305      0.26295313942116     -1.26879223393192
