12
Coordinates from ORCA-job run
  C   0.66931071258461      0.01981683722221      0.36818581519670
  C   -0.40264694934432     -0.36415168508000     -0.65927091166917
  Br  0.48098064108102     -1.10584958072553      1.96341534542741
  H   -0.26666984383139     -1.39701729401346     -0.97520192100532
  H   -0.34715607153054      0.30869501863337     -1.51970662929125
  C   1.97004951611960     -0.27235893658296     -0.23663504505592
  N   2.99166038527585     -0.51448774441680     -0.76593307256772
  C   0.63182144007084      1.42782637339922      0.76121313270455
  N   0.67595325512976      2.56806954449197      1.04402042061693
  N   -1.79097033633098     -0.25431947793791     -0.11354265769512
  O   -2.59009278603249     -1.09204268332620     -0.51560890266528
  O   -2.02223996319197      0.67681962833609      0.64906442600419
