12
Coordinates from ORCA-job run
  C   0.67251594740102      0.31558231507966      0.18355164443024
  C   -0.40470979875340     -0.42096885858554     -0.62208913143914
  Br  0.50729595828790      2.24726928282745     -0.10990418340432
  H   -0.35940645949690     -1.49207075494798     -0.40568357674994
  H   -0.26482791851294     -0.24321287967774     -1.68693022012604
  C   0.62728721344589      0.03624512814775      1.61840034494530
  N   0.66295414029159     -0.22429388921268      2.76419291330155
  C   1.97038349723941     -0.10969597338824     -0.34375143960785
  N   2.98892681339505     -0.48819814074383     -0.79302415497557
  N   -1.78989915467200      0.03007467485620     -0.28299072309688
  O   -2.01946322328294      0.30836905034053      0.88824625825673
  O   -2.58905701534270      0.04090004530442     -1.21201773153408
