12
Coordinates from ORCA-job run
  C   0.74643845106769      0.39787106205173     -0.03767216913004
  C   -0.54060994089183      0.09730555369046     -0.82010362725702
  Br  1.86528091583320      1.50491140117921     -1.21497386337299
  H   -0.30076879342886     -0.46448748015392     -1.72133624346269
  H   -1.06167038309222      1.02718965399459     -1.04195908426154
  C   0.47290402639295      1.15656132746632      1.18109603438301
  N   0.25133044089280      1.77047920256171      2.15912482657076
  C   1.48357212268819     -0.82338401707920      0.28003158471724
  N   2.07758928025249     -1.80652711009134      0.53129095337015
  N   -1.44802146664614     -0.74722179270391      0.01710801610622
  O   -2.23530350062040     -0.14953646330691      0.74694571627707
  O   -1.30874115244785     -1.96416133760875     -0.07955214394016
