12
Coordinates from ORCA-job run
  C   0.66463662617065     -0.03905170792206      0.37572486374400
  C   -0.38946018878224     -0.24694172760412     -0.71839129695308
  Br  0.47513126986048     -1.43129873119602      1.74377311021851
  H   -0.23624704121473     -1.20572965742288     -1.21068676296025
  H   -0.33271666280546      0.56774030038743     -1.44585867469975
  C   1.97706898933665     -0.20314016915032     -0.25201851008016
  N   3.01093217587646     -0.33471850876794     -0.79644589999438
  C   0.60179349338201      1.27725209460412      1.00983965963291
  N   0.62295085169506      2.35157290196392      1.48665736461993
  N   -1.78625262232406     -0.25061626005048     -0.18279222931449
  O   -2.57174355374039     -1.00140722645920     -0.74953354726439
  O   -2.03709333745445      0.51733869161755      0.73873192305115
