12
Coordinates from ORCA-job run
  C   0.74705379117430      0.39511393860178     -0.04158265170946
  C   -0.52589042706323      0.05649999244213     -0.83105735890106
  Br  1.83860257974788      1.53404786941479     -1.21514489628852
  H   -0.27130205706725     -0.55314538618874     -1.69750332968621
  H   -1.04004829844631      0.97318222800260     -1.11308859292332
  C   0.42551279454289      1.15070921050050      1.16751317295468
  N   0.14471822565382      1.75056289900346      2.13927422030200
  C   1.53363563354216     -0.78962897832625      0.29408467517608
  N   2.19036980222535     -1.72879153372253      0.55724788390491
  N   -1.45693121224445     -0.73596857339694      0.03153911476729
  O   -2.42515871778675     -0.13982662279223      0.49535527986020
  O   -1.15856211427842     -1.91375504353857      0.21336248254340
