12
Coordinates from ORCA-job run
  C   0.64299061476072      0.31628897735370      0.26774036072173
  C   -0.81027050582601     -0.16904244101413      0.20630744154543
  Br  0.76779535161527      2.11710160558055     -0.49807444910853
  H   -0.87060705983609     -1.19953797395228      0.56765885713904
  H   -1.44956684400677      0.47963482560782      0.80270086736668
  C   1.00791390399710      0.40378329034720      1.68292182187371
  N   1.25887432242976      0.44872979402585      2.83073299768497
  C   1.58771494218954     -0.56802691007366     -0.41351727646966
  N   2.38206496911100     -1.29290463093775     -0.88853557479603
  N   -1.36300394085170     -0.16643513292514     -1.18378746654609
  O   -0.60181453771672     -0.48116902264126     -2.09122391843829
  O   -2.55209121586613      0.11257761862909     -1.28392366097298
