12
Coordinates from ORCA-job run
  C   0.68590168580870      0.27120528386478      0.20051631814408
  C   -0.42080485641548     -0.37892794615478     -0.63893132627221
  Br  0.62664770797820      2.21778282992141     -0.02998648055951
  H   -0.25919760106642     -0.17608781777268     -1.69621223456163
  H   -0.43757093212883     -1.45693170339670     -0.45538627234539
  C   0.61127542437366     -0.05147074460467      1.62486921168745
  N   0.62328590811510     -0.34810905895198      2.76237076942336
  C   1.96447650435684     -0.20582004297750     -0.32960888777276
  N   2.96581920883295     -0.62379127089184     -0.78254976360855
  N   -1.78243496631170      0.13843866804430     -0.29904222513744
  O   -2.56555179123180      0.23645757084743     -1.23653904573938
  O   -2.01284629231123      0.37825423207220      0.88049993674198
