12
Coordinates from ORCA-job run
  C   0.64018082491069     -0.00776829283825      0.41703374068198
  C   -0.37703214617971     -0.36540665976530     -0.67359476576072
  Br  0.25854510272161     -1.04597261879117      2.03649093262014
  H   -0.21348788853810      0.26499441729751     -1.55215012795036
  H   -0.28835834887057     -1.41732122822416     -0.93946714610602
  C   1.95876099317667     -0.41118563655238     -0.07484009652437
  N   2.99724342770376     -0.74403368293911     -0.51437941918635
  C   0.67061765642175      1.41599390957940      0.74966395133254
  N   0.77059602368500      2.56265186909931      0.98890751148974
  N   -1.79066901683010     -0.14260639052729     -0.23895689427655
  O   -2.01367765709952      0.83687121988022      0.46322532751771
  O   -2.61271897110147     -0.94721690621877     -0.66193301383774
