12
Coordinates from ORCA-job run
  C   0.66466986298409      0.30273233244831      0.22574748995186
  C   -0.38693820352003     -0.37245041829386     -0.66335851055742
  Br  0.48490381330354      2.25085249255492      0.09163674539069
  H   -0.33798926504696     -1.45731108873800     -0.53419823534641
  H   -0.22357147232422     -0.10672086766411     -1.70631765791004
  C   0.59107042029380     -0.09580281469975      1.63093100936151
  N   0.60614723743888     -0.44923048880706      2.75204680085682
  C   1.97785822476838     -0.06531493580424     -0.30672725246699
  N   3.00878902716121     -0.39469670897552     -0.76620174476782
  N   -1.78302725513718      0.04094555921263     -0.32126851823243
  O   -2.55756166486327      0.13941823416492     -1.26592076852805
  O   -2.04435072505823      0.20657870460177      0.86463064224828
