12
Coordinates from ORCA-job run
  C   0.69108113959688      0.11826468909318      0.30150171152805
  C   -0.41384838261289     -0.44712577844401     -0.59944989871422
  Br  0.77280481918203     -0.91578640389665      1.96596564282495
  H   -0.18538512504940     -1.47545654749450     -0.87386063759762
  H   -0.51421181759972      0.17389657252583     -1.49400136801635
  C   1.96008700659141     -0.06657563464741     -0.40469682578626
  N   2.95349774159121     -0.23031460636268     -1.01201904260995
  C   0.52468715254214      1.53603304901979      0.61910454665712
  N   0.46253896459423      2.69040207312323      0.83272666940327
  N   -1.75099321587534     -0.46094368838820      0.07025319914983
  O   -2.47099169178260     -1.41742934805088     -0.19219172892043
  O   -2.02826659117795      0.49403562352229      0.78666773208160
