12
Coordinates from ORCA-job run
  C   0.67567289804891      0.01053506272366      0.35868228640459
  C   -0.39533635648677     -0.29850821870679     -0.69434627594091
  Br  0.59157850993832     -1.32445287944868      1.79267761963224
  H   -0.39719249502629      0.48238945418256     -1.46009562319728
  H   -0.20852711818361     -1.27119190290604     -1.14613571633074
  C   1.97676863799813     -0.11973017563510     -0.29981597783423
  N   2.99749215969801     -0.22861104268462     -0.87318622856633
  C   0.56521518144353      1.35006198950183      0.93501993955280
  N   0.54865975502328      2.44367745889883      1.36610294217174
  N   -1.77597649096190     -0.34279307553928     -0.12016118495958
  O   -2.53894691836392     -1.15493674383691     -0.63022439676235
  O   -2.03940776312770      0.45456007345053      0.77248261583005
