10
Coordinates from ORCA-job run
  C   -0.11610505853502      1.36476793640577     -0.18068999512750
  C   -0.03616826524105      0.02209540901424     -0.09444118514573
  H   -1.07173098146214      1.85240811877405     -0.31991894768801
  H   0.77272457860083      1.97992127593861     -0.13792215922976
  N   1.16563231210463     -0.70529336645154     -0.16077448351089
  H   1.96494940720247     -0.10953590939905     -0.31745567173993
  H   1.31300857622230     -1.29494013992444      0.64794812386821
  N   -1.16126557557743     -0.80554960528976     -0.04008344620578
  H   -0.95677730333056     -1.78988216935052     -0.00293430589155
  H   -1.87526768998402     -0.51299154971736      0.60427207067093
