10
Coordinates from ORCA-job run
  C   -0.13245403920437      1.36420405427415     -0.17318686844689
  C   -0.00883164929718      0.02407146702914     -0.09996865003390
  H   0.61538777331868      1.96007087149408     -0.67922406548830
  H   -0.99136636568095      1.86857781006607      0.24887607930287
  N   1.12889264313447     -0.66044831901277     -0.53678572580704
  H   1.07697762313818     -1.66111046287186     -0.44686674612625
  H   2.00429318812193     -0.26898083118303     -0.23510462450392
  N   -1.03508345729511     -0.84420296886100      0.31321847371252
  H   -1.89289853352720     -0.35294913907387      0.51621240306029
  H   -0.76491718270844     -1.42823248186091      1.09382972433061
