10
Coordinates from ORCA-job run
  C   -0.24598658313045      1.28349032041805     -0.44673670257146
  C   0.06075472572836      0.06765403715783      0.04766268010735
  H   -1.22539682267312      1.71617425825921     -0.29228927027982
  H   0.49261245804318      1.86469881785153     -0.98253739943718
  N   -0.74313557963765     -0.64114417805656      0.95826000274439
  H   -1.56355332517700     -0.11990168680895      1.22954919599344
  H   -0.99927720422256     -1.56082392344875      0.62355298458165
  N   1.27385296191170     -0.57612831984114     -0.20965205652803
  H   1.56848755477411     -0.56482962308900     -1.17063314054929
  H   1.38064181438343     -1.46918970244223      0.24082370593896
