10
Coordinates from ORCA-job run
  C   -0.13732927973579      1.26751042849727     -0.43679552981749
  C   0.00024395083509      0.00067266612667     -0.00006097051224
  H   0.71514350037944      1.83238679679394     -0.79102032991632
  H   -1.10362225955406      1.75482539152987     -0.44292174238781
  N   1.16265316010289     -0.77094121635967     -0.13779837404555
  H   1.93268531731550     -0.24830304725002     -0.52741520511785
  H   1.42205281528435     -1.21224920595360      0.73399819740971
  N   -0.99949027918491     -0.73173564888769      0.65544989149550
  H   -1.11234844646887     -1.65208892510552      0.25256202417338
  H   -1.87898847897364     -0.23907723939124      0.69600203871867
