10
Coordinates from ORCA-job run
  C   -0.13233528579413      1.36677753594227     -0.14868724575542
  C   -0.00775074711846      0.02552416564331     -0.09932745414427
  H   0.61430694500392      1.97338315435698     -0.64365894334362
  H   -0.99453664104380      1.86150711539675      0.27811170895023
  N   1.13057820811489     -0.65163688455708     -0.54349562098122
  H   2.00644765388708     -0.26298497684829     -0.23998604227853
  H   1.07973023263354     -1.65377205976796     -0.47362106233371
  N   -1.03500313709318     -0.84962606610337      0.29662879333854
  H   -0.76710547495377     -1.44738326015796      1.06753983747492
  H   -1.89333175363609     -0.36178872390464      0.50549602907308
