10
Coordinates from ORCA-job run
  C   -0.06628088432185      1.34005537076308     -0.12423121981429
  C   0.00050524232770      0.00062558147217      0.00127731659023
  H   -0.96627244269846      1.88216113292871      0.13546897146742
  H   0.77652154607977      1.91048056198068     -0.49242745526928
  N   1.17350843819081     -0.75684751476352     -0.12462844231165
  H   1.04138303985756     -1.54719195414541     -0.74114863142599
  H   1.96692679896292     -0.20117000259502     -0.40685639518179
  N   -1.09391381259537     -0.83216220878967      0.27359668722682
  H   -0.89207924100400     -1.48063008643017      1.02252880385509
  H   -1.94029868479909     -0.31432088042084      0.45642036486346
