10
Coordinates from ORCA-job run
  C   -0.07701929725858      1.33647975621243     -0.15329175022091
  C   0.00034505473650      0.00065643445521      0.00122218703310
  H   -0.99405435993258      1.87193969412449      0.05551317658086
  H   0.77455538944781      1.91045462234126     -0.49487514605490
  N   1.07094555794924     -0.79347631085485     -0.43306798631567
  H   1.38789726837926     -1.42184113407792      0.29277336212681
  H   1.83447086266085     -0.24771913043580     -0.80337625737753
  N   -0.97940190719993     -0.79125501046696      0.61646833846076
  H   -1.80467876738611     -0.26637415104260      0.86417929311813
  H   -1.21305980139646     -1.59786477025527      0.05345478264936
