10
Coordinates from ORCA-job run
  C   -0.22578731582974      1.30175412034132     -0.33717061746410
  C   -0.00331576711850      0.01633423106708     -0.00464413976736
  H   -1.21832311735817      1.72943129967046     -0.28585088547067
  H   0.58312922184715      1.94187418567443     -0.66375980670046
  N   1.26612028426060     -0.57509775965751      0.08965977128329
  H   1.25634487077989     -1.50688116305212     -0.30594946582442
  H   1.98308937414588     -0.02124298063019     -0.35584182531660
  N   -1.00832224351639     -0.91694286359727      0.29509696542199
  H   -1.89653843356800     -0.47602631086998      0.48546817118909
  H   -0.73639687364273     -1.49320275894623      1.08199183264924
