10
Coordinates from ORCA-job run
  C   -0.15918310658348      1.29836819969133     -0.35272152588933
  C   -0.00158333810832      0.00841300335944     -0.00130514914242
  H   0.68175544324533      1.89183895372741     -0.68727609925078
  H   -1.12832338594038      1.77788718763401     -0.30964338409409
  N   1.16929312304695     -0.73954462355164     -0.19547607835181
  H   1.94720850589339     -0.17761949437173     -0.50744546197406
  H   1.40953841546944     -1.25489096960282      0.64127568553468
  N   -0.98333641227500     -0.78498975127825      0.61176493150330
  H   -1.88518406500857     -0.33327873598610      0.64614202757508
  H   -1.05018517973937     -1.68618376962165      0.15668505408943
