10
Coordinates from ORCA-job run
  C   -0.28971866438639      1.30002838510930     -0.36441076990308
  C   0.03727541805918      0.06666473953289      0.06969600757228
  H   -1.32432278525055      1.60616462407273     -0.44278243183905
  H   0.47838790539232      2.01991143606127     -0.61392760527532
  N   1.35009951583074     -0.41086994271345      0.09502316685703
  H   1.45144799434147     -1.34158364763605      0.46306741389080
  H   1.88361404055345     -0.24061236560942     -0.73976930170740
  N   -0.87523843633600     -0.83625291369050      0.64548495459017
  H   -1.79981727433722     -0.44054867112763      0.73001756676865
  H   -0.91072771386699     -1.72190164399915      0.15760099904593
