10
Coordinates from ORCA-job run
  C   -0.09151676224912      1.31378982792830     -0.41493748001457
  C   -0.01093791815378      0.06314578965163      0.08100288769276
  H   -0.98340806934394      1.90905106714489     -0.27116193072234
  H   0.74333832075734      1.75933434550020     -0.93912691082226
  N   1.18048844640738     -0.68116543784140      0.15828289616296
  H   1.97848194230398     -0.15661540637572     -0.16825445538995
  H   1.11887286700975     -1.57002594856103     -0.32108495382826
  N   -1.09087919542145     -0.59301218022965      0.67713107949035
  H   -1.95984767477888     -0.52965663824833      0.17575122361107
  H   -0.88359195653128     -1.51484541896888      1.02239764382024
