10
Coordinates from ORCA-job run
  C   -0.14828465319179      1.29479041969501     -0.45708309143460
  C   -0.04025210724724      0.06043458506767      0.07330727412157
  H   0.73063556316868      1.85210914571386     -0.75241467360015
  H   -1.11661443379981      1.76257683569807     -0.57526963350182
  N   1.17286498327940     -0.51897769646682      0.48745387083462
  H   1.36082925644833     -1.40284325264391      0.03230180021875
  H   1.95331186022330      0.11107727592353      0.37531091888001
  N   -1.14513230653299     -0.74034530027171      0.37410563161543
  H   -1.84649967814348     -0.78951014870190     -0.34436191461259
  H   -0.91985848420440     -1.62931186401382      0.78764981747879
