10
Coordinates from ORCA-job run
  C   -0.08461148925861      1.37321686757279     -0.11953764891986
  C   0.05581556320619      0.04650279576728      0.07259769321395
  H   -1.04780775399204      1.85246172538469     -0.00602240324513
  H   0.76981474256211      1.99042758994662     -0.36325515401682
  N   1.25225132106415     -0.63573665512899     -0.16101746462709
  H   1.71154610707602     -0.41211621546522     -1.02666437845870
  H   1.22491616846812     -1.61943148078375      0.04710787892334
  N   -0.93644570904667     -0.78105549361608      0.62833583895300
  H   -1.75648331435278     -0.26118680961061      0.90343692292364
  H   -1.18899563572651     -1.55208232406673      0.02401871525367
