11

C	-0.558088	-0.02718	-1.402376
C	0.0	0.0	0.0
Cl	-0.24454	1.612449	-2.200215
H	1.089384	0.0	0.0
H	-0.00209	-0.719098	-2.033618
H	-0.341784	-0.904745	0.510496
H	-0.365809	0.874498	0.54416
N	-1.944889	-0.369597	-1.427156
H	-2.313472	-0.30563	-2.367888
H	-2.464224	0.273266	-0.840744
Br	3.795323	0.0	0.0
