16

C	0.0	0.0	0.0
C	-0.641606	-0.063235	-1.347182
F	1.332543	0.0	0.0
H	-0.423104	-1.067193	-1.725864
H	-1.723169	0.01117	-1.161798
N	-0.368684	1.240347	0.817168
O	-1.125211	2.064027	0.322908
O	0.210553	1.327907	1.896102
N	-0.413787	-1.213655	0.837341
O	0.076024	-2.265409	0.438547
O	-1.16332	-1.056601	1.786079
C	-0.12908	0.995122	-2.320275
H	-0.564077	0.810853	-3.30413
H	0.958934	0.957884	-2.420864
H	-0.426903	1.994212	-2.004185
Cl	-3.861799	0.0	0.0
