16

C	0.0	0.0	0.0
C	-0.684829	-0.201647	-1.307134
F	1.341236	0.0	0.0
H	-1.761561	-0.263009	-1.077106
H	-0.365519	-1.178323	-1.680262
N	-0.398816	1.329893	0.634918
O	-1.36887	1.342472	1.373046
O	0.3026	2.282079	0.301786
N	-0.347997	-1.079791	1.027685
O	0.097159	-0.885406	2.153409
O	-0.926136	-2.079852	0.626445
C	-0.393455	0.908315	-2.312548
H	0.678937	1.094167	-2.421987
H	-0.798079	0.617698	-3.283882
H	-0.878063	1.840242	-2.019704
Cl	-3.964972	0.0	0.0
