16

C	0.0	0.0	0.0
C	-0.679863	0.052633	-1.321761
F	1.348199	0.0	0.0
H	-0.350483	0.977317	-1.804011
H	-1.755782	0.155037	-1.09963
N	-0.339777	1.201675	0.885922
O	0.180266	1.186334	1.996788
O	-1.005185	2.103655	0.397845
N	-0.392384	-1.240388	0.801401
O	0.239813	-2.250214	0.50267
O	-1.273185	-1.135102	1.63991
C	-0.409945	-1.160424	-2.203921
H	0.657778	-1.372667	-2.297448
H	-0.816152	-0.965189	-3.198494
H	-0.905495	-2.048095	-1.811853
Cl	-3.909538	0.0	0.0
