16

C	0.0	0.0	0.0
C	-0.585611	0.088501	-1.378054
F	1.334879	0.0	0.0
H	-0.431366	1.115233	-1.720641
H	0.043089	-0.5686	-1.988917
N	-0.402771	1.126594	0.94298
O	0.135373	1.087448	2.043535
O	-1.163109	1.986236	0.519199
N	-0.43786	-1.29239	0.675288
O	0.190629	-2.284643	0.322246
O	-1.390695	-1.239169	1.438897
C	-2.055094	-0.3193	-1.465257
H	-2.429485	-0.099984	-2.465808
H	-2.716517	0.187405	-0.760491
H	-2.176658	-1.392031	-1.298421
Cl	-5.230942	0.0	0.0
