14

C	-0.477983	-0.005811	-1.432556
C	0.0	0.0	0.0
Cl	0.114722	1.391475	-2.280519
H	1.091827	0.0	0.0
H	-0.310982	0.95749	0.43008
N	-0.06852	-1.263109	-2.197982
O	0.475939	-2.147662	-1.553794
O	-0.358694	-1.275139	-3.387066
N	-2.016279	-0.026167	-1.45463
O	-2.53984	-1.128554	-1.557121
O	-2.578988	1.042433	-1.268993
C	-0.557985	-1.079244	0.800862
N	-1.015445	-1.908661	1.494835
Cl	3.223945	0.0	0.0
