14

C	-0.559092	0.032946	-1.401493
C	0.0	0.0	0.0
Cl	-2.297952	0.28305	-1.436399
H	1.09187	0.0	0.0
H	-0.3115	0.915303	0.508037
N	0.047829	1.179267	-2.207706
O	0.40421	2.155781	-1.567299
O	0.040826	1.045276	-3.423502
N	-0.180608	-1.255227	-2.14164
O	-1.059481	-2.072502	-2.371478
O	1.013407	-1.341082	-2.386365
C	-0.522923	-1.156481	0.714472
N	-0.952873	-2.08153	1.295864
Cl	3.239189	0.0	0.0
