14

C	-0.452491	-0.009754	-1.435813
C	0.0	0.0	0.0
Cl	-0.074269	1.449536	-2.289252
H	1.094866	0.0	0.0
H	-0.337397	-0.922705	0.475309
N	0.165391	-1.242464	-2.121984
O	0.90467	-1.089907	-3.075689
O	-0.190965	-2.296461	-1.606854
N	-1.959936	-0.28613	-1.587911
O	-2.357078	-0.44138	-2.735746
O	-2.629425	-0.338378	-0.565103
C	-0.508526	1.151797	0.72755
N	-0.885369	2.086765	1.32916
Cl	3.203215	0.0	0.0
