14

C	-0.463168	-0.043132	-1.434876
C	0.0	0.0	0.0
Cl	0.186366	-1.442191	-2.240301
H	1.093933	0.0	0.0
H	-0.309095	-0.938536	0.465899
N	-1.991683	-0.116156	-1.572523
O	-2.447447	0.151818	-2.675831
O	-2.616652	-0.48802	-0.588507
N	-0.096388	1.245518	-2.180568
O	-0.721523	2.221621	-1.779479
O	0.742435	1.20669	-3.060623
C	-0.534436	1.107304	0.779395
N	-0.935218	1.993804	1.436711
Cl	3.223052	0.0	0.0
