14

C	-0.453862	0.009329	-1.440186
C	0.0	0.0	0.0
Cl	-0.034055	1.515976	-2.2081
H	1.091575	0.0	0.0
H	-0.325456	0.94365	0.443815
N	0.116809	-1.167939	-2.238615
O	0.324829	-2.180595	-1.58458
O	0.251044	-1.020428	-3.443309
N	-1.98224	-0.163787	-1.519007
O	-2.420899	-1.114333	-2.153662
O	-2.626859	0.672491	-0.903658
C	-0.563915	-1.091746	0.780878
N	-1.050072	-1.920377	1.455887
Cl	3.222565	0.0	0.0
