17

C	0.0	0.0	0.0
C	-0.565489	0.098827	-1.432994
Cl	1.795237	0.0	0.0
H	-1.650065	-0.081573	-1.305589
C	-0.50439	1.124965	0.892606
H	-0.197261	0.938684	1.922956
H	-1.597394	1.141345	0.833433
H	-0.082123	2.076339	0.566503
C	-0.37374	-1.303142	0.565838
N	-0.612244	-2.361154	1.018431
C	-0.011993	-0.95575	-2.282106
N	0.424651	-1.77091	-3.006766
C	-0.368812	1.471806	-2.074797
H	-0.982863	2.208411	-1.556558
H	-0.699179	1.434795	-3.114825
H	0.679703	1.778662	-2.052538
Br	-3.823308	0.0	0.0
