17

C	0.0	0.0	0.0
C	-0.414168	0.357709	-1.4557
Cl	1.796922	0.0	0.0
H	0.074116	-0.381047	-2.10071
C	-0.562115	0.957896	1.034587
H	-0.203688	0.686599	2.028876
H	-1.655345	0.897397	1.020943
H	-0.243429	1.97645	0.805353
C	-0.408233	-1.379177	0.27878
N	-0.68316	-2.50005	0.499718
C	0.140969	1.665309	-1.813896
N	0.548632	2.719848	-2.131883
C	-1.924961	0.334774	-1.6936
H	-2.442119	1.175979	-1.235109
H	-2.391719	-0.559503	-1.278786
H	-2.113475	0.356017	-2.770623
Br	-4.88844	0.0	0.0
