17

C	0.0	0.0	0.0
C	-0.579502	0.097411	-1.424103
Cl	1.795025	0.0	0.0
H	-1.659373	-0.097693	-1.280476
C	-0.493609	1.123963	0.900258
H	-1.587409	1.126623	0.871293
H	-0.151092	0.95015	1.921347
H	-0.094286	2.0788	0.555926
C	-0.365174	-1.304136	0.573169
N	-0.578273	-2.363366	1.034706
C	-0.020246	-0.943612	-2.284703
N	0.425258	-1.74663	-3.01754
C	-0.415804	1.476825	-2.061337
H	-0.748151	1.436928	-3.100061
H	0.6257	1.807874	-2.040926
H	-1.046127	2.196015	-1.537802
Br	-3.819414	0.0	0.0
