17

C	0.0	0.0	0.0
C	-0.427985	0.27536	-1.469368
Cl	1.797026	0.0	0.0
H	0.019406	-0.521202	-2.074105
C	-0.565114	1.009826	0.981913
H	-0.181991	0.812218	1.983724
H	-1.657033	0.929212	0.992237
H	-0.273335	2.018229	0.680511
C	-0.406229	-1.362787	0.355404
N	-0.681735	-2.46942	0.637018
C	0.155905	1.53979	-1.92494
N	0.581701	2.560288	-2.319869
C	-1.944567	0.291254	-1.656263
H	-2.180206	0.233294	-2.720667
H	-2.433294	-0.542911	-1.153178
H	-2.398877	1.190897	-1.249709
Br	-4.901517	0.0	0.0
