17

C	0.0	0.0	0.0
C	-0.574328	0.078004	-1.428285
Cl	1.795075	0.0	0.0
H	-1.654147	-0.117774	-1.288313
C	-0.49642	1.1351	0.883955
H	-0.102309	2.086747	0.524184
H	-0.151986	0.977875	1.907417
H	-1.590319	1.129971	0.855075
C	-0.367014	-1.296288	0.588412
N	-0.585466	-2.349683	1.060497
C	-0.010507	-0.973476	-2.273335
N	0.421399	-1.802585	-2.985053
C	-0.409667	1.450084	-2.082373
H	-1.044783	2.174734	-1.572364
H	-0.735401	1.396373	-3.12273
H	0.630892	1.783405	-2.059312
Br	-3.817716	0.0	0.0
