15
Coordinates from ORCA-job run
  C   0.34837975957096     -0.45405000909551      0.39161639912079
  C   -0.53112276884637      0.26155468926890     -0.65158663942620
  Cl  -0.64219524274418     -1.30804570806301      1.54934188106553
  H   0.10990395838468      0.93429907067336     -1.22962341148535
  N   1.21656619847091     -1.34638588529360     -0.27925958144233
  H   1.90203084934805     -0.83735469301754     -0.82606754850344
  H   1.67530235941266     -1.97778886264395      0.36560789739382
  N   1.17204606718904      0.66735981468732      1.12366708582215
  O   1.90192173929886      1.28153173102618      0.35190501298473
  O   1.08730198719255      0.80571372705587      2.32921154067267
  N   -1.54208727269105      1.15622210521270      0.03977613222303
  O   -2.72845375961057      0.88763225975555     -0.07975708304887
  O   -1.04958142076418      2.08252834277600      0.67362354166223
  C   -1.19646322461819     -0.69893899076452     -1.51501609301716
  N   -1.72354922959314     -1.45227759157775     -2.24543913402160
