15
Coordinates from ORCA-job run
  C   0.41027409619626     -0.35312342592002      0.38861196749374
  C   -0.48184701734297      0.35506357982844     -0.63607144755994
  Cl  -0.55824527399771     -1.55271310904965      1.29314031180690
  H   0.05629481218615      1.23885468895769     -0.98960027421448
  N   1.55443285161353     -0.87188341896903     -0.25988877358000
  H   2.18628370807167     -1.28811254622753      0.41597788804647
  H   1.30870289393473     -1.56764240423549     -0.95489850237817
  N   0.98272380603474      0.69071597108729      1.37560222727309
  O   1.33260521377880      0.27257880989364      2.46677552021133
  O   1.13315019219776      1.81823129507092      0.92997041439352
  N   -1.76659978115726      0.88409694084945     -0.02446219332405
  O   -1.68305852574306      1.30276612658594      1.12093162896678
  O   -2.74823637668351      0.90600499471866     -0.75377592682291
  C   -0.78444772762595     -0.54122649642602     -1.74055842335673
  N   -0.94203287146312     -1.29361100616423     -2.62875441695550
