15
Coordinates from ORCA-job run
  C   0.45542751639075     -0.29380087513152      0.38791453294302
  C   -0.56547623852500      0.25152894559683     -0.61542294320825
  Cl  -0.39461918144202     -1.21457643218949      1.66361080968370
  H   -0.06151696571908      1.00431587821726     -1.22772620193830
  N   1.45853851124550     -1.01274415620744     -0.30189969130910
  H   1.07772159943242     -1.81732972425487     -0.78675069230349
  H   2.17644845100100     -1.32410104685033      0.34385862707487
  N   1.22061107255634      0.88335544011710      1.03291869271843
  O   1.76030321628557      0.65430060410062      2.10295862105395
  O   1.30845397336660      1.89962275230410      0.36049816262114
  N   -1.71517422760549      0.98439902443325      0.05357502083199
  O   -2.79084720624638      0.94866903575333     -0.52758485139296
  O   -1.44224090412119      1.60027758547166      1.07334605413666
  C   -1.07736565898356     -0.82849938443444     -1.44413129497890
  N   -1.40926395763548     -1.73441764692606     -2.11416484593276
