15
Coordinates from ORCA-job run
  C   0.58818891870381     -0.56869633075734      0.08868485907634
  C   -0.66724834563600     -0.14214451240031     -0.69199120076074
  Cl  0.57008051047243     -2.33215598984734      0.24528747709621
  H   -0.45997578185252     -0.37224637452041     -1.74265549777428
  N   1.77324288415171     -0.17638724109713     -0.55796311809625
  H   1.85071423643406      0.83341251308823     -0.56348664956605
  H   2.58022368510275     -0.58253739120580     -0.10136115776175
  N   0.47123540301522     -0.03124949324981      1.54746334883309
  O   1.52520461797671      0.05093101344916      2.16004635428173
  O   -0.64953227553290      0.24496767726226      1.95453144645209
  N   -0.87459719584677      1.36918019423039     -0.65886738860442
  O   -1.96166805431002      1.76978499283086     -1.04007123059557
  O   0.08030382823092      2.05541541674448     -0.31149675337661
  C   -1.90514549522428     -0.79453182832820     -0.29042297835727
  N   -2.92202693568513     -1.32374264619903     -0.03669751084650
