15
Coordinates from ORCA-job run
  C   0.56997771013011     -0.47255166221379      0.22391685719614
  C   -0.60494080998519     -0.20490508681867     -0.72398998227355
  Cl  0.74868399442854     -2.27386631475303      0.31659100001712
  H   -0.31625947472370     -0.57985684881259     -1.70934193773159
  N   1.68913900072106      0.23702529708115     -0.21881064113860
  H   2.40763002559394      0.29579051121041      0.49121909343665
  H   2.05664774976785     -0.12327766338509     -1.08946144907352
  N   0.26261257961891     -0.03646978370534      1.66706588796392
  O   -0.83865790944579     -0.33070078853638      2.09711903498315
  O   1.17085308833525      0.51980205515351      2.26864796008753
  N   -0.73496079830722      1.29620247346723     -0.88982847783482
  O   -0.55730940789214      1.73127781216424     -2.01981368962513
  O   -0.99234388668010      1.92961839769071      0.12408643856105
  C   -1.89445338902980     -0.77139860590142     -0.35710123345434
  N   -2.96661847253177     -1.21668979264094     -0.18029886111402
