15
Coordinates from ORCA-job run
  C   0.60224687957394     -0.43625815603622     -0.00467769311514
  C   -0.83161637713679     -0.06346650520961     -0.41937063891436
  Cl  1.29418545503017     -1.61781217539304     -1.12344175952978
  H   -1.40371655004093     -0.97041210505061     -0.60807669300191
  N   1.42847568736155      0.67815771783412      0.10352667465275
  H   2.35421624889989      0.43544919375744      0.43079293526331
  H   1.02684612509200      1.41701493536117      0.66809119540237
  N   0.43643293587031     -1.23887042742070      1.34335159841850
  O   1.31719907761858     -1.06408750745485      2.17236789986532
  O   -0.53398998794054     -1.97911464695247      1.43365695511538
  N   -0.78693230747871      0.71573882239788     -1.71733606471438
  O   -0.61650384807162      1.92487478033746     -1.63435858119791
  O   -0.91508132502794      0.04738600253059     -2.73571516520802
  C   -1.45426894888826      0.75052099283159      0.61578294234501
  N   -1.91749306486162      1.39987907846726      1.47840639461888
