15
Coordinates from ORCA-job run
  C   0.43527990889227     -0.29815041194767      0.40754553995821
  C   -0.52539876166968      0.26184345687212     -0.64577411615001
  Cl  -0.47292879787552     -1.31124646425790      1.56727499751212
  H   -0.00315304321715      1.05860691962874     -1.18240095505805
  N   1.51539538630214     -0.94550700936371     -0.23540052734852
  H   2.19400728111625     -1.26333030466462      0.44852457326719
  H   1.20440672175889     -1.73749493560575     -0.78629281216505
  N   1.10297009478076      0.87109026382136      1.16590427944550
  O   1.19867805561551      1.92380295073646      0.55334471009499
  O   1.57183913988333      0.60582009866844      2.26061384324209
  N   -1.74826323968365      0.92539147857838     -0.03672106017489
  O   -1.58067649035696      1.48821076731120      1.03508796018902
  O   -2.76955359962163      0.89613363102402     -0.70916547864086
  C   -0.93440984067502     -0.79345126367500     -1.55919483846712
  N   -1.18919281524951     -1.68171917712605     -2.28434611570465
