15
Coordinates from ORCA-job run
  C   0.60857598072446     -0.45946313017107      0.24676829326642
  C   -0.80974530484575     -0.13396865194105     -0.31200578721679
  Cl  1.09021494084621     -2.01379997684803     -0.44724121759932
  H   -1.50445415786065     -0.93127365616288     -0.04660998326296
  N   1.63220065124354      0.48648616755065      0.10417402543269
  H   1.49717403183603      1.29035945397963      0.70359302626031
  H   1.75543520075824      0.75671259620948     -0.86237822997664
  N   0.34126974100337     -0.66067531381958      1.76166313604330
  O   0.88834494681429      0.12051974571042      2.52710539492862
  O   -0.43880992874349     -1.55640820183236      2.05125561449296
  N   -0.76489944985103     -0.09360101696262     -1.82003285516253
  O   -0.01909446317461      0.73976482493522     -2.32520098071433
  O   -1.46962093309339     -0.90484748318335     -2.40579531747215
  C   -1.24629822792857      1.15938996499414      0.19091270396370
  N   -1.55929302772861      2.20180467754138      0.63379217701675
