15
Coordinates from ORCA-job run
  C   0.51331921798221     -0.43687214177454      0.21426087725790
  C   -0.86773429087083      0.02194265877037     -0.26934607151608
  Cl  0.87477890971711     -1.99705246154370     -0.66042893907858
  H   -1.59981281295966     -0.75708334892546     -0.06538114434614
  N   1.48151773830302      0.55292870424871      0.15695069360186
  H   1.54540163464422      0.99035033316253     -0.75239865375337
  H   2.37623025154458      0.24346386776637      0.51216430551545
  N   0.38620734480461     -0.86575521740970      1.68638027859022
  O   -0.73872193598676     -1.09541049042537      2.11103441444917
  O   1.44023164274848     -0.95842893050891      2.29493790150769
  N   -0.85547500214807      0.19495456769739     -1.77551812609922
  O   -1.68291198240773     -0.45413473374521     -2.39949135210052
  O   -0.03026102938830      0.97688433585196     -2.23716385994326
  C   -1.25766257949209      1.28386942282896      0.34526602386626
  N   -1.58410710649077      2.29934343400660      0.83673365204863
