15
Coordinates from ORCA-job run
  C   0.56630480887302     -0.47831161544628      0.22117464154233
  C   -0.61726542604642     -0.20437228910322     -0.71407241634944
  Cl  0.72101786820168     -2.28202118167721      0.32922296158561
  H   -0.34691079987596     -0.59434819611285     -1.69876278538484
  N   1.68875644053877      0.21168637111436     -0.24168090049765
  H   2.42055844740084      0.25974666412540      0.45541074095372
  H   2.03506687652121     -0.15398644440808     -1.11874888573252
  N   0.28408013668814     -0.02571147084789      1.66474389223696
  O   -0.81592491390328     -0.29869671904153      2.11147278964452
  O   1.21000583362955      0.51844882730095      2.25018684731435
  N   -0.72806157783669      1.29669862186780     -0.89428578788587
  O   -0.54689024397062      1.71819718357679     -2.02886751529766
  O   -0.97144257042743      1.94345620369986      0.11459582476332
  C   -1.90956704511450     -0.74823032243240     -0.32344184244351
  N   -2.98972783467836     -1.16455563261568     -0.12594756444929
