17
Coordinates from ORCA-job run
  C   -0.95511037322401     -0.09923575393536      0.02178205061603
  C   0.58078652226725     -0.10229677830488      0.19344320484422
  Br  -1.45833905664642     -1.21960059083868     -1.48637643900656
  H   0.73619864330983      0.52465126817326      1.08003976929820
  N   -1.69707469948628     -0.52035148297929      1.16526465827474
  H   -1.28462344759387     -1.39576630719327      1.47263287976053
  H   -1.57398462503068      0.17350033293029      1.89599491047495
  N   -1.34914562559929      1.35263784555430     -0.25470097601450
  O   -1.63088936339892      1.71605383911552     -1.38561693821430
  O   -1.26784822223727      2.07657299177110      0.73745154099416
  C   1.34942578481580      0.49661380197188     -0.97807906615126
  H   2.41775067653659      0.48347125871614     -0.74813596437301
  H   1.18545113457834     -0.08431706599271     -1.88783136422554
  H   1.06403765575999      1.53199750072049     -1.17773262994138
  N   0.95971732222412     -1.46144984663641      0.56246624240168
  H   1.83931373125494     -1.44799262903687      1.06324680279470
  H   1.08533394246989     -2.02348838403549     -0.27184868153266
