17
Coordinates from ORCA-job run
  C   -0.95050661776457     -0.10687083756564     -0.08721490261461
  C   0.56010789259800     -0.11990509980446      0.23906847344008
  Br  -1.27968216649776     -1.05387075750998     -1.75388933717611
  H   0.61416797079810      0.40454623463749      1.20101769592602
  N   -1.79647743115414     -0.65844160069035      0.92083270290009
  H   -1.75739327527459     -0.05110631981747      1.73341576127381
  H   -1.40189372279282     -1.56072611404431      1.16826862121975
  N   -1.34045222842303      1.36443879917677     -0.23952923618343
  O   -1.37258454196932      1.97248542666891      0.83011338083523
  O   -1.51262313396525      1.85101312690397     -1.34578047883019
  C   1.43203645461811      0.61165648926329     -0.77396645094108
  H   1.37168692596126      0.13545254941011     -1.75456897232780
  H   2.47185248012007      0.58104414423811     -0.43891862384467
  H   1.14911241544063      1.66086320913270     -0.88565875892466
  N   0.92324656900320     -1.50956726760910      0.49183216774366
  H   1.14073708128820     -1.97408889209003     -0.38265743437557
  H   1.74866532801393     -1.54692309030000      1.07663539187949
