17
Coordinates from ORCA-job run
  C   -0.87270692849672     -0.11383444994476      0.40294341386487
  C   0.45747793156135     -0.47611194534974     -0.28841827167955
  Br  -1.42975695161225     -1.53562424422238      1.60600891573144
  H   0.34953836547223     -1.47979960283827     -0.71152339814625
  N   -0.93220090767095      1.12382596121942      1.08360825542213
  H   -0.51395321595170      1.83779555180630      0.49584348822042
  H   -0.46634023315005      1.07080782673896      1.97848405572171
  N   -1.92087502743618     -0.07945792948859     -0.73736252367152
  O   -1.92625416140276     -1.05581569067863     -1.48202697717244
  O   -2.61900793057839      0.91581073356627     -0.84765522904273
  C   1.61852840508871     -0.44485898172803      0.68963541814082
  H   1.44709719440581     -1.10179312417738      1.54230755522077
  H   1.78434158074486      0.57302534485818      1.05051185996942
  H   2.52933275950728     -0.77899117546403      0.18621277577775
  N   0.64459386551293      0.55724406897258     -1.30787413055354
  H   0.22070643072892      0.27313289909887     -2.18302826455245
  H   1.62947882327692      0.71464475763124     -1.47866694325083
