17
Coordinates from ORCA-job run
  C   -0.83630259356534      0.06727292661399      0.24522591166356
  C   0.67590479116434     -0.13874677791543      0.07054069986399
  Br  -1.74569761128838     -0.25926961896601     -1.54028253444393
  H   1.09709294573498      0.22640721885938      1.01267704980882
  N   -1.32624764928285     -0.71462993306163      1.28361906446124
  H   -2.33331162656066     -0.68931978611392      1.36646076604083
  H   -0.94223900360728     -1.64988086775240      1.21520136852716
  N   -1.21405327759352      1.50409471346502      0.59562722408556
  O   -2.40394855729267      1.71346926118687      0.78696145569327
  O   -0.30561949286410      2.31748589762856      0.73005823741122
  C   1.32644766273054      0.60283847213163     -1.09049967775205
  H   1.01689370957264      0.17396833733152     -2.04454294346629
  H   1.08908806107384      1.66522985072333     -1.08874926793941
  H   2.41104266149666      0.49522337933642     -1.00440760581432
  N   0.88304029690424     -1.58882000037568      0.03517142632676
  H   1.82083035637750     -1.80714659537342      0.34664826994961
  H   0.78807932700004     -1.92017647771823     -0.91870944441603
