17
Coordinates from ORCA-job run
  C   -0.72814243403287     -0.15268236681115      0.43484139611498
  C   0.58695532826303     -0.51150460089060     -0.28752339096347
  Br  -1.23216919812371     -1.51176046715557      1.73704466561533
  H   0.46536225601081     -1.53390789721467     -0.64993371226546
  N   -0.69025577135139      1.10234294084605      1.06598092181290
  H   -0.45303197420632      1.81948318113830      0.39046200690343
  H   -1.58234489214708      1.33750189827732      1.48230715720433
  N   -1.86216921991587     -0.23878710474931     -0.64226017512495
  O   -1.85824371745522     -1.21142164188636     -1.38631907304621
  O   -2.65847987407875      0.69387091026818     -0.67739466707797
  C   1.77305232184008     -0.43597458184803      0.66083545484285
  H   1.92096887646601      0.58649931936071      1.01439664669588
  H   1.63147381001233     -1.07411519809822      1.53239860071675
  H   2.66600070300231     -0.75686654584915      0.12300850124976
  N   0.84530282847018      0.32593311660336     -1.44419905424504
  H   1.05247859079820      1.28623732927843     -1.20613012918376
  H   0.12224236644827      0.27715170873071     -2.14851514924935
