17
Coordinates from ORCA-job run
  C   -0.88254291038337     -0.18625120510303      0.24766242297051
  C   0.55951458197097     -0.59206307365648     -0.09795481456947
  Br  -2.15463290832553     -1.60199199398662     -0.36564072588036
  H   0.75058282364827     -1.43219436095488      0.58278573894974
  N   -1.01195557552457      0.12610295403717      1.61291627852211
  H   -0.80434354130836     -0.68244225025223      2.18462540533707
  H   -1.93911041843744      0.47381895212618      1.82395377881116
  N   -1.33859902587130      1.05027075433521     -0.52460711956288
  O   -2.22726276281616      1.72101709623821     -0.01478923065021
  O   -0.80458187796222      1.27162648175974     -1.60590443654617
  C   1.53458846184326      0.53969697227398      0.24994506352229
  H   2.55589201379723      0.16283173796265      0.15319815924001
  H   1.41871607849164      1.37174219963768     -0.44710879299624
  H   1.39130055801733      0.90713032005821      1.26632813514378
  N   0.68965482815243     -1.12038459449251     -1.44161041280897
  H   1.55166613895941     -1.64461923625878     -1.51428273864308
  H   0.71111353574842     -0.36329075372449     -2.11151671083929
