17
Coordinates from ORCA-job run
  C   -0.87302107204812     -0.10548090086513      0.31854662285166
  C   0.50773780263919     -0.63750036640791     -0.09920439472221
  Br  -2.28494292161939     -1.45124973780004     -0.12163416764237
  H   0.68801224725095     -1.44969531227910      0.61739758989180
  N   -0.88070525479049      0.28945029385768      1.66847942037862
  H   -1.76022953407497      0.72401805575814      1.91884439069482
  H   -0.69862632946595     -0.50191378043737      2.27203107250846
  N   -1.29226922977038      1.11786680132145     -0.49417638701251
  O   -2.08455980191060      1.88684168892674      0.03570027855359
  O   -0.83079808560470      1.23160339232334     -1.62442674908308
  C   1.58248020573547      0.43647628749601      0.11134897544701
  H   1.47189092199807      1.23706938994925     -0.62248392681709
  H   2.56487236496524     -0.01867687374077     -0.03740243764479
  H   1.54239471738865      0.86619719768610      1.11246467742330
  N   0.50262888583441     -1.24926803146933     -1.41332752853578
  H   0.52780147048165     -0.53552851358271     -2.12912403682774
  H   1.31833361299098     -1.83920959073627     -1.51203339946380
