17
Coordinates from ORCA-job run
  C   -0.87201335954409     -0.07264437758866     -0.07514973677008
  C   0.64824937415993     -0.06653180183224      0.25228840801684
  Br  -1.25041465536573     -1.19948729835563     -1.60181464042081
  H   0.71231386673286      0.57756474317755      1.13902656878106
  N   -1.74966711202495     -0.46527643905256      0.98793191807294
  H   -1.74203082244284     -1.46667235680323      1.11796635315463
  H   -1.50117156497446      0.01498438507473      1.84482938473728
  N   -1.23639339156843      1.38058637182295     -0.38963917076627
  O   -1.43586923270338      1.74704681823742     -1.53706603195349
  O   -1.22270221162983      2.09609051671264      0.61110354390356
  C   1.50302975892630      0.53757489898090     -0.85026613550757
  H   2.54078119353746      0.54059243924102     -0.51513577103457
  H   1.43710653679158     -0.05463658623586     -1.76566838086350
  H   1.21087981464401      1.56180583639333     -1.08597176577620
  N   1.17221930739883     -1.36370909581723      0.62374668834899
  H   0.66211822481323     -1.76283311697023      1.40143410054544
  H   1.12356427324952     -2.00445493698489     -0.15961533246825
