17
Coordinates from ORCA-job run
  C   -0.75258569052431     -0.04423616715133      0.30265379217556
  C   0.57182702510669     -0.55045490807209     -0.29368409601189
  Br  -1.44152220341010     -1.39026696297172      1.64493498266602
  H   0.41412668597149     -1.58959925057426     -0.58525157816574
  N   -0.66483403181641      1.26368735901273      0.78919277781647
  H   -1.57608107278254      1.65583535091638      0.99070681715975
  H   -0.06458524245159      1.31687114281377      1.60078901544917
  N   -1.84944452689557     -0.07021116725405     -0.76163115447456
  O   -2.71749723141055      0.79218118415678     -0.68896334599138
  O   -1.79288532545831     -0.96708654805516     -1.59308721258110
  C   1.69750180284248     -0.46369991726629      0.72892942394473
  H   1.44525504649034     -0.95519679023117      1.66948548016739
  H   2.58088209277235     -0.94127899998398      0.30518513870116
  H   1.95928356300720      0.58022055899965      0.92390266315884
  N   0.95002538752367      0.19606583538142     -1.47994104183338
  H   0.33974982637989     -0.02409755389993     -2.25597690303939
  H   0.90178389465527      1.19126683417926     -1.29524475914162
