17
Coordinates from ORCA-job run
  C   -0.94144411805857     -0.24921907974779      0.26136165147089
  C   0.53013614225397     -0.54824449648607     -0.10793355724939
  Br  -1.99270885655113     -1.85792804257252     -0.08233399722983
  H   0.76514500257160     -1.46146210899873      0.46496994065613
  N   -1.22472289110942      0.16784323670154      1.59689084349132
  H   -0.78342835039946      1.06036607024118      1.78013146921433
  H   -0.91668320179553     -0.52965204013701      2.26184089261679
  N   -1.42629669427222      0.87838097421254     -0.65360443194452
  O   -1.07268145605137      1.99492545853763     -0.27582110271058
  O   -2.04998283743682      0.62447295012245     -1.66806395590615
  C   1.49346685887970      0.54704472082855      0.33251191423017
  H   1.43046672424823      0.73909370645168      1.40414521947010
  H   2.51529328642532      0.21806784093665      0.12344584132660
  H   1.30934727544429      1.47122458942541     -0.21416204183596
  N   0.63659109157314     -0.70738078944030     -1.54798716611663
  H   1.60659422003642     -0.82907939942694     -1.81021634241258
  H   0.11890780424185     -1.51845359064828     -1.86417517707070
