17
Coordinates from ORCA-job run
  C   -0.85400904883657     -0.31602877947654      0.32199936935255
  C   0.59550504554455     -0.56629171121866     -0.12862902621432
  Br  -1.91976998082432     -1.91820164474059      0.03173979210713
  H   0.86948699788730     -1.50102619951123      0.38308988822061
  N   -0.93041738645326      0.02571276984031      1.69465124148691
  H   -0.55108452734545      0.95613856175909      1.82848743316799
  H   -1.88914995898753      0.01145373983788      2.02096028091416
  N   -1.43410110878786      0.80540528917807     -0.59742981358040
  O   -1.14023641849891      1.93840334101364     -0.21584424854007
  O   -2.06206933359122      0.52451895923941     -1.60253827936655
  C   1.55411223560490      0.52564928982847      0.33138666564915
  H   1.28504034058417      1.49029696643357     -0.09901742174020
  H   1.58797914483356      0.59425807539773      1.41901712824080
  H   2.56214690038561      0.26983174283823     -0.00625662158028
  N   0.63415488133846     -0.64295440712859     -1.58026108218068
  H   1.59174472881995     -0.76096475209325     -1.88618487330801
  H   0.09966748832666     -1.43620124119752     -1.91517043262875
