17
Coordinates from ORCA-job run
  C   -0.83940818749945     -0.13938757471815      0.37381616891496
  C   0.52307889139495     -0.53625006156495     -0.26407243784202
  Br  -1.42260249796746     -1.54303577563695      1.60121325309622
  H   0.40955318530185     -1.56363041602822     -0.61937707243489
  N   -0.94652202101595      1.10725629331141      1.04274334002860
  H   -0.84435868391197      1.88855587775639      0.40953411366982
  H   -0.30374255835702      1.16276937694910      1.81996362717855
  N   -1.82290952416213     -0.11757522820304     -0.79935219874474
  O   -2.00034679508669     -1.17605072525055     -1.38839538866580
  O   -2.26243125879095      0.97746065611012     -1.13642065066188
  C   1.64983395338782     -0.45883501705377      0.75395471548066
  H   1.43563887773038     -1.03869699613142      1.65192129477808
  H   1.84012687803480      0.57976603393925      1.04069835871916
  H   2.56004715312089     -0.84191525293539      0.29231452665490
  N   0.86907662544066      0.28242976273748     -1.41046441205673
  H   0.91942679455284      1.26614749483494     -1.17718292832051
  H   0.23753916782742      0.15199155188378     -2.18989430979441
