17
Coordinates from ORCA-job run
  C   -0.77119607515493     -0.17312119057841      0.44164992273525
  C   0.54341099450036     -0.43762088507544     -0.29838314580197
  Br  -1.25282823801533     -1.65672278797029      1.61384546543926
  H   0.45580741882451     -1.41758625656057     -0.77603636557634
  N   -0.73625913000008      1.02908011640849      1.15574126917607
  H   -0.40012078055226      1.74976141440344      0.52309229297004
  H   -1.64762898510974      1.27553426788843      1.51966605270800
  N   -1.91510387103421     -0.18840784894658     -0.63000201620497
  O   -1.78678048435971     -0.93838251626097     -1.59191982903430
  O   -2.86547985368336      0.55446779228755     -0.41874351376709
  C   1.72801235531942     -0.42763264449086      0.65378417041744
  H   2.63594553982832     -0.68948080185582      0.10357851105688
  H   1.85162990598799      0.56076641016511      1.09815487639783
  H   1.59795363421535     -1.15080248658415      1.45796724523352
  N   0.66837655398614      0.65455879516810     -1.26826815552239
  H   1.64371322117064      0.86811357639030     -1.43247748396246
  H   0.25154779407693      0.38747504561163     -2.15164929626478
