17
Coordinates from ORCA-job run
  C   -0.83929970456985      0.12450265198548      0.21071878233593
  C   0.66960320203483     -0.14463365155480      0.10801796208597
  Br  -1.71796798060532     -0.43398711268230     -1.53209989389104
  H   1.08007429220963      0.34241802764221      0.99829667236677
  N   -1.37556062673388     -0.48439627917922      1.33804972453255
  H   -2.38299472433491     -0.42059994102835      1.38980087418905
  H   -1.01800518780750     -1.42925624456442      1.41679758604730
  N   -1.18119100149193      1.60674582254083      0.33878440349828
  O   -0.25181394810389      2.40652685167854      0.37823766686720
  O   -2.36813941340738      1.87340950579866      0.46691863641453
  C   1.36824244562016      0.40222362018676     -1.13054052088597
  H   2.44682228063110      0.27875466183106     -1.00110066902730
  H   1.06686207936812     -0.15249970841390     -2.02015486894227
  H   1.16363084267984      1.45959290283918     -1.28904899559878
  N   0.83351983556839     -1.58958578207544      0.28858071210834
  H   0.74790582846085     -2.05318333841574     -0.60950787282157
  H   1.75831178048172     -1.78503198658859      0.65024980072105
