17
Coordinates from ORCA-job run
  C   -0.84113218693028     -0.37951572107177      0.21802104987004
  C   0.67503821152768     -0.57984810561611     -0.07168089365361
  Br  -1.92763922928796     -1.78166675890998     -0.58107234440232
  H   0.94746198743384     -1.39793147792937      0.60317403484209
  N   -1.10520155580694     -0.35694677561186      1.60070297532389
  H   -0.56038046631476      0.36039977698082      2.06066776507087
  H   -2.08567052926505     -0.19639638836439      1.79411983556661
  N   -1.26736447316602      0.93674019144379     -0.49634621006986
  O   -1.60439358606269      1.86572419819879      0.23180576935259
  O   -1.15392521920822      0.98703566525777     -1.71589088719515
  C   1.45684663740265      0.67650934219664      0.31392570897071
  H   2.51897350075143      0.44593189363974      0.23430091230566
  H   1.25819332465150      1.02466001768990      1.32939524065235
  H   1.24132734251188      1.49525393184398     -0.37813005884385
  N   1.06227248342685     -0.96224998612437     -1.40945877511739
  H   0.72489848785760     -0.28165182310963     -2.07952155100848
  H   0.65969527047850     -1.85804798051401     -1.65301257166415
