17
Coordinates from ORCA-job run
  C   -0.85354280305824      0.08992937377935      0.16557401691408
  C   0.66048498843664     -0.16744210764696      0.13022275089681
  Br  -1.59093300859251     -0.11930733857853     -1.71502141571007
  H   0.99808341272484      0.13947444521749      1.12531880912323
  N   -1.47156159241211     -0.71754726616940      1.11152833508647
  H   -2.48036423115213     -0.65684361441969      1.09666333415671
  H   -1.11410333023284     -1.66283726044131      1.03774462098268
  N   -1.21443127558724      1.52359058899757      0.54548967496216
  O   -2.40962338871014      1.76843340359155      0.63471854799690
  O   -0.29660292602330      2.29637352756155      0.80071308368497
  C   1.44883524316400      0.59627958342507     -0.92631101457170
  H   2.51526139208194      0.44919058280479     -0.73534869100691
  H   1.24415455774722      1.66521492762880     -0.90528700515885
  H   1.22639679192297      0.21472346531294     -1.92377090409496
  N   0.81954934423249     -1.62192833771127      0.04806678103585
  H   1.71632154947831     -1.88913811159233      0.43359044507449
  H   0.80307527598012     -1.90816586175962     -0.92489136937186
