17
Coordinates from ORCA-job run
  C   -0.95761718005031     -0.02934414414886      0.07019467003696
  C   0.57887174157788     -0.18861690581743      0.12068407007917
  Br  -1.64397654865201     -0.72300769763529     -1.61301480596598
  H   0.83898675153316      0.19918848077448      1.11333954893675
  N   -1.66977881961955     -0.65026989785551      1.13903311295428
  H   -1.31840963532351     -1.60041728350479      1.20817375039416
  H   -1.44748492776669     -0.15574258323719      1.99728600708874
  N   -1.23294299985666      1.47248220671048      0.16347166668549
  O   -1.53668260953933      2.11150991405866     -0.83145162726175
  O   -1.03652373632993      1.93524147805100      1.28702001101333
  C   1.33290475061924      0.60844077441428     -0.93653505879169
  H   2.40673040427380      0.46059314852215     -0.79707730965837
  H   1.06603900316556      0.27206101061576     -1.94031476012423
  H   1.13299961786159      1.68037980750755     -0.87088195277027
  N   0.85210078264142     -1.62125675071963      0.13924315360938
  H   0.87762492578272     -1.97972151290489     -0.80877363960749
  H   1.75715847968263     -1.79152004483074      0.55960316338153
