17
Coordinates from ORCA-job run
  C   -0.93612691963500     -0.24240748936514      0.28410975042310
  C   0.52511686265203     -0.55143960120625     -0.11675138243046
  Br  -2.00332211914369     -1.84766208207709     -0.02498452054886
  H   0.76865433294876     -1.46340789605879      0.45446993130756
  N   -1.18727406308778      0.18528659741440      1.62270539109369
  H   -0.73620884078887      1.07624507648217      1.78939929327323
  H   -0.86775760134183     -0.50906650068646      2.28559605911856
  N   -1.43630284467066      0.88153592460807     -0.62757906083604
  O   -2.08277319892616      0.62365315050720     -1.62671727847246
  O   -1.07011893782352      1.99920148671877     -0.26524529750823
  C   1.50368490734157      0.54077965478792      0.29695743739542
  H   2.51866508985905      0.20770350490745      0.06268142443648
  H   1.46828272244464      0.73394267074179      1.36968525486383
  H   1.30935702679161      1.46492731280268     -0.24617844583807
  N   0.59811934597887     -0.71852155566806     -1.55824359138505
  H   0.06685447132075     -1.52728338718787     -1.85764920181794
  H   1.56114976608031     -0.85148686672082     -1.84025576307474
