17
Coordinates from ORCA-job run
  C   -0.91270609014817     -0.23492259561981      0.28070127258976
  C   0.56261605466745     -0.61754693265391     -0.07526711381262
  Br  -2.10821995798709     -1.68734734294407     -0.26320544129961
  H   0.79037768874252     -1.42104873006406      0.63712367050172
  N   -1.18490833019149      0.06498682682655      1.64144033095799
  H   -0.84624252419074      0.98321611595495      1.89366898424682
  H   -0.81284792792611     -0.65165632530252      2.25003349910738
  N   -1.25331894902554      1.00145148988139     -0.54294510154558
  O   -1.27581497499015      2.07401983846081      0.05576409978745
  O   -1.35764565255992      0.85804521736892     -1.75550152431884
  C   1.48719449050386      0.56569169835037      0.19852463628214
  H   1.32828078626272      1.36415915101985     -0.53200437630307
  H   2.51659094139142      0.22253082393190      0.09606394170272
  H   1.35472819452176      0.98294042199125      1.19706797542324
  N   0.83544965008809     -1.12420990400830     -1.39870905159982
  H   0.28181117957621     -1.95045798072451     -1.58548265910473
  H   0.59465542126517     -0.43185177246883     -2.09827314261494
