18
Coordinates from ORCA-job run
  C   0.77421339500327      0.18995562648877      0.22014109852584
  C   -0.51780750890050      0.28277038397457     -0.62445280158880
  Br  1.93183078575564      1.77259468522749     -0.52768742126494
  H   -0.20353208918022      0.35408838741962     -1.67136772023787
  C   1.62273584316497     -1.03917717120172     -0.02136827823731
  H   2.59945781129291     -0.93122436881017      0.45406499619469
  H   1.11318678326172     -1.90597400978756      0.40901487812214
  H   1.78383684108994     -1.19957643658060     -1.08886770426763
  N   0.47365859446527      0.37505117421110      1.57193535223935
  H   1.29386944281031      0.40011859977502      2.16419697068703
  H   -0.09531879814652      1.20927183230392      1.67739357742742
  N   -1.22905601824925      1.49240073227277     -0.19259082759882
  H   -1.00307410425955      2.28812860347786     -0.77467912803035
  H   -2.22830538737895      1.33825862051901     -0.20131529965024
  C   -1.40096496528037     -0.93483326206476     -0.39424283673508
  H   -1.65903662945446     -1.00023608593097      0.66590506354531
  H   -2.32992445122724     -0.82542876761174     -0.96303632472207
  H   -0.92376954476696     -1.86518854368264     -0.70204359440870
