18
Coordinates from ORCA-job run
  C   0.78713339371199      0.25896636846102      0.07289467021255
  C   -0.66744161842826      0.35467718479556     -0.42048897916633
  Br  1.98095629756834      0.35188089947478     -1.58217527282826
  H   -0.73851128769464      1.30867746676969     -0.97243438660889
  C   1.12106172049383     -1.04084719003073      0.77478034104297
  H   1.02019546067738     -1.89003163851081      0.10106383276277
  H   0.43636288565844     -1.16078547937128      1.61559163430140
  H   2.15146106510977     -1.02096684384814      1.13756066753279
  N   1.04799848308032      1.36845817389222      0.92322665223217
  H   1.97517077669138      1.31818404813466      1.32695378869106
  H   0.96176666921714      2.24426234496963      0.42030094180498
  N   -1.50977323790358      0.31817049476624      0.77527144348477
  H   -1.26433165914635      1.08705839281850      1.38641802630777
  H   -2.48236908209067      0.41062964981013      0.50716261650603
  C   -1.10747501005725     -0.76836047965873     -1.34572933904584
  H   -0.47233342198330     -0.84521445120152     -2.22697418471770
  H   -1.10972655089512     -1.71854739660596     -0.80926940238795
  H   -2.13014488400943     -0.57721154466526     -1.68415305012430
