18
Coordinates from ORCA-job run
  C   0.77123686782092      0.34129300605905      0.15140265399214
  C   -0.48260934386614      0.32665239478031     -0.73758723700198
  Br  1.90568377139991      1.84692974949555     -0.41723128211924
  H   -0.13864464173181      0.23688072701518     -1.77514250564034
  C   1.61597647092037     -0.91780244869060      0.00121321205585
  H   2.55078217164028     -0.80823014660097      0.55348791268473
  H   1.07897233896841     -1.77976468403726      0.40749783360153
  H   1.85384246631259     -1.11493445838254     -1.04667322796510
  N   0.37080238715213      0.61594070133742      1.53165481541765
  H   0.12171830012721     -0.26131483207229      1.97854145003924
  H   1.14961736910866      1.00785816067450      2.04699948878917
  N   -1.17428190816746      1.59852024531934     -0.59952156394241
  H   -1.31376560419699      1.77195642362150      0.39010744689828
  H   -2.07887384119833      1.54992610976296     -1.05216400984219
  C   -1.37177632001176     -0.88222098469971     -0.41265747597735
  H   -0.88464295598014     -1.84229733182770     -0.59913457020464
  H   -1.71177874252669     -0.84494831594261      0.62617545016212
  H   -2.26225878577116     -0.84444431581215     -1.04596839094746
