19

C	0.0	0.0	0.0
C	-0.273777	0.043998	-1.544664
Cl	1.789808	0.0	0.0
H	0.361345	-0.727263	-1.972241
C	-0.639614	1.0253	0.875582
H	-0.372979	2.020868	0.529749
H	-0.315471	0.881324	1.905498
H	-1.732356	0.824952	0.74755
N	-0.391257	-1.400309	0.485896
O	-0.45531	-2.29635	-0.349531
O	-0.531786	-1.547591	1.691229
N	0.325156	1.309699	-2.104673
O	-0.137578	2.390265	-1.74622
O	1.207564	1.177544	-2.954274
C	-1.667133	-0.064574	-2.129833
H	-2.383841	0.571641	-1.61352
H	-2.03819	-1.071313	-1.959316
H	-1.574141	0.119505	-3.208113
F	-3.062358	0.0	0.0
