19

C	0.0	0.0	0.0
C	-0.663905	-0.150715	-1.361023
Cl	1.793887	0.0	0.0
H	-1.747151	-0.267464	-1.056723
C	-0.509719	1.237419	0.701048
H	-0.132475	2.12586	0.193316
H	-0.151582	1.238427	1.728917
H	-1.606799	1.148608	0.647508
N	-0.380307	-1.221656	0.85206
O	-0.642478	-2.259811	0.258832
O	-0.335944	-1.093903	2.069182
N	-0.263046	-1.341479	-2.171645
O	-1.166268	-1.867608	-2.8203
O	0.918364	-1.677397	-2.236386
C	-0.480027	1.06509	-2.25396
H	-1.059211	1.894214	-1.849576
H	0.570978	1.353473	-2.352187
H	-0.88028	0.837684	-3.244638
F	-2.907872	0.0	0.0
