19

C	0.0	0.0	0.0
C	-0.428433	-0.398435	-1.443191
Cl	1.78116	0.0	0.0
H	0.407198	-0.067833	-2.07098
C	-0.341935	1.42291	0.430283
H	-1.425159	1.479985	0.483741
H	0.066247	2.116147	-0.30028
H	0.124503	1.605778	1.397564
N	-0.41316	-0.960701	1.114226
O	-0.718297	-0.473302	2.192001
O	-0.287699	-2.164089	0.90853
N	-1.556991	0.424772	-2.0513
O	-1.383315	1.641346	-2.093567
O	-2.434191	-0.16129	-2.67002
C	-0.693279	-1.862766	-1.71736
H	-1.592566	-2.15677	-1.183468
H	0.151187	-2.469248	-1.39688
H	-0.847775	-1.992907	-2.788913
F	-2.463241	0.0	0.0
