19

C	0.0	0.0	0.0
C	-0.385684	-0.164087	-1.495523
Cl	1.795196	0.0	0.0
H	0.419161	0.35755	-2.02397
C	-0.338178	1.354467	0.614211
H	0.045879	2.136243	-0.038649
H	0.14837	1.423924	1.58609
H	-1.420949	1.395368	0.690547
N	-0.429798	-1.105095	0.952579
O	-0.451183	-2.25807	0.540365
O	-0.597343	-0.785159	2.121335
N	-1.581815	0.642141	-1.981631
O	-1.487298	1.863235	-1.876282
O	-2.429815	0.073228	-2.655405
C	-0.48362	-1.571013	-2.048516
H	0.395759	-2.149184	-1.76674
H	-0.545299	-1.512329	-3.136922
H	-1.377797	-2.049344	-1.662067
F	-2.445478	0.0	0.0
