19

C	0.0	0.0	0.0
C	-0.421933	0.134419	-1.492209
Cl	1.794437	0.0	0.0
H	0.414891	0.665375	-1.96051
C	-0.335092	1.182532	0.902084
H	0.077816	2.086553	0.461985
H	-1.417759	1.223565	0.972219
H	0.129484	1.011721	1.8724
N	-0.407133	-1.29176	0.706637
O	-0.692804	-1.215828	1.891645
O	-0.293054	-2.345337	0.088376
N	-1.549274	1.120071	-1.773484
O	-1.372479	2.273218	-1.385895
O	-2.427291	0.789819	-2.55758
C	-0.685115	-1.139093	-2.265382
H	-1.583749	-1.605659	-1.869557
H	0.161575	-1.817188	-2.179282
H	-0.839544	-0.883368	-3.31391
F	-2.45421	0.0	0.0
