19

C	0.0	0.0	0.0
C	-0.335797	-0.252834	-1.532646
Cl	1.787224	0.0	0.0
H	0.550937	-0.719278	-1.954114
C	-0.598572	1.22596	0.616007
H	-0.299832	1.290815	1.662934
H	-0.243846	2.113833	0.087722
H	-1.696584	1.067108	0.508972
N	-0.369196	-1.240624	0.804854
O	-0.230866	-2.323709	0.246577
O	-0.655652	-1.088246	1.984589
N	-0.327599	1.116904	-2.166157
O	0.770172	1.575722	-2.500016
O	-1.398169	1.698725	-2.304783
C	-1.577914	-0.997836	-1.975844
H	-1.667471	-0.869058	-3.059014
H	-1.443056	-2.055332	-1.758187
H	-2.445074	-0.607649	-1.413022
F	-2.985589	0.0	0.0
