19

C	0.0	0.0	0.0
C	-0.398543	-0.238451	-1.483568
Cl	1.791894	0.0	0.0
H	0.418461	0.225549	-2.046412
C	-0.336154	1.379837	0.555779
H	0.140995	1.48279	1.529205
H	-1.418789	1.42984	0.622614
H	0.060352	2.132993	-0.121244
N	-0.421367	-1.061541	1.008517
O	-0.590781	-0.687938	2.159911
O	-0.431696	-2.233263	0.654587
N	-1.57214	0.57754	-2.00619
O	-2.432731	0.004657	-2.659487
O	-1.447824	1.799448	-1.951594
C	-0.550524	-1.668644	-1.955125
H	-0.634899	-1.669586	-3.042954
H	0.316428	-2.2578	-1.661759
H	-1.451291	-2.094201	-1.522059
F	-2.443791	0.0	0.0
