16

C	0.0	0.0	0.0
C	-0.372137	-0.186164	-1.507319
Cl	1.751184	0.0	0.0
H	-1.405917	-0.53977	-1.500049
C	-0.810585	1.082892	0.577834
N	-0.786741	2.16519	1.086306
N	-0.363792	-1.278967	0.774676
O	-0.479222	-2.319521	0.135892
O	-0.374815	-1.181009	1.9947
C	0.447921	-1.167695	-2.210823
N	1.038276	-1.921345	-2.89278
C	-0.30815	1.162104	-2.227126
H	-0.53068	1.025948	-3.288574
H	0.682591	1.611079	-2.131977
H	-1.044444	1.836185	-1.78805
H	-2.165986	0.0	0.0
