16

C	0.0	0.0	0.0
C	-0.263433	0.055822	-1.558308
Cl	1.76366	0.0	0.0
H	0.407805	-0.720291	-1.938192
C	-0.472352	1.154281	0.751931
N	-0.599668	2.158582	1.358031
N	-0.613633	-1.228045	0.558169
O	-0.662321	-1.307326	1.803901
O	-0.575326	-2.224965	-0.208716
C	0.226148	1.344758	-2.059923
N	0.54651	2.379296	-2.514276
C	-1.634555	-0.223765	-2.175322
H	-2.338939	0.589789	-2.027804
H	-1.473647	-0.359678	-3.256158
H	-2.039372	-1.143152	-1.758046
H	-1.97209	0.0	0.0
