16
Coordinates from ORCA-job run
  C   -0.40275592545569      0.15936543433989      0.27687507849869
  C   1.06123029454513      0.51424662983190      0.03127480044130
  F   -0.61325224510900      0.21966162566314      1.65880181107235
  H   1.32432832473752      1.39574366409350      0.61545353328322
  H   1.25186349089775      0.66727657137132     -1.02996979315510
  C   -1.28054508740297      1.22184204666882     -0.35824796074456
  H   -1.20826977581515      1.19223953310752     -1.44744402173436
  H   -0.99416182360243      2.21634929608975     -0.00891140700468
  H   -2.31892785875070      1.04571387994200     -0.07200063043972
  C   -0.76148342113674     -1.24108089867843     -0.17473036494768
  H   -0.21769664467023     -1.98266580314254      0.41161765868653
  H   -0.52191897345471     -1.39064198190872     -1.22908293974713
  H   -1.83023960766128     -1.40382610380686     -0.02480659493363
  N   1.95869726040820     -0.58577529571963      0.47228764932514
  O   2.29619356867285     -1.40552751279795     -0.38227754218753
  O   2.25693842379746     -0.62392108505371      1.66316072358714
