16
Coordinates from ORCA-job run
  C   -0.48743874141005     -0.02613884973394      0.45394248302963
  C   1.00176740492384     -0.01179455729654      0.81098828859960
  F   -1.10980725142425     -0.09344121028625      1.71265044093796
  H   1.26223594669461     -0.92525200082789      1.34359449459182
  H   1.23175660753797      0.86964532564848      1.40779198843103
  C   -0.94334298255907      1.25674489986004     -0.20708441330726
  H   -0.67258217729416      2.11828634908588      0.40584416702202
  H   -2.02920858259828      1.23560287503999     -0.31743208628811
  H   -0.49263674990669      1.37924055272818     -1.19265467089557
  C   -0.89257049032048     -1.26427636249573     -0.31665072236394
  H   -0.57169907566283     -2.16489942669114      0.20969601257189
  H   -0.45443974638856     -1.27397588087596     -1.31540667701242
  H   -1.98003944103629     -1.28418071728141     -0.41026009559973
  N   1.84210725815083      0.04641927021940     -0.41212941722199
  O   2.12604145586839      1.16189538894499     -0.84770319067041
  O   2.16885656542501     -1.02487565603813     -0.92218660182451
