14

C	-0.60277	0.005259	-1.387505
C	0.0	0.0	0.0
Cl	-0.025614	-1.446783	-2.233007
H	1.106658	0.0	0.0
H	-0.323977	-0.899569	0.525173
C	-2.063687	-0.003316	-1.364806
N	-3.231878	-0.087888	-1.272276
N	-0.146929	1.205209	-2.237371
O	-0.894756	1.503628	-3.161243
O	0.926527	1.700107	-1.952413
N	-0.491528	1.150697	0.794843
O	-0.97161	2.10883	0.184233
O	-0.366475	1.069855	2.011033
Br	3.396326	0.0	0.0
