14

C	-0.630388	0.032345	-1.378714
C	0.0	0.0	0.0
Cl	-2.400968	0.066425	-1.259137
H	1.090904	0.0	0.0
H	-0.343618	0.871526	0.556646
C	-0.18908	1.226502	-2.091335
N	0.129015	2.211658	-2.647961
N	-0.187347	-1.175853	-2.260817
O	1.013906	-1.194238	-2.464282
O	-1.037528	-1.940972	-2.67613
N	-0.449883	-1.187246	0.765674
O	-0.708787	-1.019824	1.954287
O	-0.4902	-2.259931	0.166566
Br	3.373318	0.0	0.0
