14

C	-0.511431	-0.006049	-1.419641
C	0.0	0.0	0.0
Cl	-0.136907	1.578602	-2.134981
H	1.093177	0.0	0.0
H	-0.36579	0.871238	0.537726
C	0.035213	-1.053133	-2.27254
N	0.499022	-1.859891	-2.989165
N	-2.051899	-0.118029	-1.439555
O	-2.561724	-0.662609	-2.407959
O	-2.634845	0.402314	-0.498591
N	-0.477635	-1.192482	0.737386
O	-0.352498	-1.168331	1.95504
O	-0.95279	-2.123691	0.081666
Br	3.359019	0.0	0.0
