14

C	-0.586469	0.001565	-1.394279
C	0.0	0.0	0.0
Cl	0.102068	-1.384443	-2.266142
H	1.087876	0.0	0.0
H	-0.318838	-0.907684	0.516585
C	-2.043282	-0.10423	-1.413875
N	-3.206199	-0.272294	-1.401178
N	-0.186536	1.252404	-2.194679
O	0.814283	1.837605	-1.826639
O	-0.89162	1.502667	-3.164356
N	-0.511879	1.138767	0.801669
O	-1.184683	1.997223	0.223937
O	-0.229591	1.135433	1.993848
Br	3.404143	0.0	0.0
