16

C	-0.568332	-0.000528	-1.413209
C	0.0	0.0	0.0
F	-1.917571	0.212874	-1.388409
H	1.088797	0.0	0.0
C	0.047394	1.079494	-2.196715
N	0.437177	1.975963	-2.848375
N	-0.322367	-1.288252	-2.210848
O	0.814116	-1.722316	-2.145283
O	-1.257216	-1.709382	-2.871103
N	-0.472916	-1.233736	0.745474
O	-0.203241	-1.281215	1.934428
O	-1.078917	-2.101293	0.110198
N	-0.402226	1.167716	0.709744
H	-1.221076	1.629638	0.347581
H	0.376089	1.796624	0.837649
Cl	3.184507	0.0	0.0
