16

C	-0.650796	0.077515	-1.37544
C	0.0	0.0	0.0
F	-2.005384	-0.040687	-1.229754
H	1.091151	0.0	0.0
C	-0.355461	1.355146	-2.02808
N	-0.163223	2.353551	-2.615812
N	-0.200382	-1.022758	-2.348625
O	0.960799	-0.934783	-2.710217
O	-1.039063	-1.84596	-2.679019
N	-0.407449	-1.342077	0.600984
O	-1.002767	-1.336982	1.675963
O	-0.088866	-2.341526	-0.034532
N	-0.448304	1.112408	0.759864
H	-1.32891	0.921787	1.218329
H	0.253344	1.348458	1.448687
Cl	3.18314	0.0	0.0
