16

C	-0.47674	0.052484	-1.453477
C	0.0	0.0	0.0
F	0.136209	1.084974	-2.062363
H	1.093221	0.0	0.0
C	-0.339191	-1.142408	-2.291991
N	-0.261803	-2.01536	-3.075629
N	-1.982415	0.376025	-1.437065
O	-2.373844	1.328243	-2.089227
O	-2.654751	-0.385917	-0.750571
N	-0.404346	-1.302244	0.659966
O	-0.082046	-2.334417	0.082554
O	-0.981153	-1.239759	1.743069
N	-0.478565	1.152821	0.679977
H	0.258446	1.5106	1.272866
H	-1.284292	0.923335	1.247927
Cl	3.174811	0.0	0.0
