16

C	-0.476615	-0.0136	-1.450263
C	0.0	0.0	0.0
F	-0.277618	1.216332	-1.994154
H	1.094181	0.0	0.0
C	0.144462	-1.00672	-2.331028
N	0.607116	-1.733685	-3.128868
N	-2.004911	-0.216288	-1.542573
O	-2.462993	-0.332093	-2.67169
O	-2.646959	-0.173725	-0.498753
N	-0.399917	-1.309519	0.645633
O	-0.563434	-2.279864	-0.092937
O	-0.504552	-1.320403	1.865798
N	-0.43279	1.146883	0.704366
H	-1.322435	1.007436	1.159809
H	0.27616	1.411614	1.374008
Cl	3.163853	0.0	0.0
