16

C	-0.489594	0.008181	-1.44806
C	0.0	0.0	0.0
F	0.139272	1.00231	-2.102703
H	1.09181	0.0	0.0
C	-0.390512	-1.221609	-2.242596
N	-0.356528	-2.114543	-3.004917
N	-1.988554	0.363953	-1.43183
O	-2.669562	-0.35863	-0.713481
O	-2.367413	1.299527	-2.113631
N	-0.406205	-1.276536	0.704537
O	-0.979203	-1.176619	1.785513
O	-0.087524	-2.327629	0.162426
N	-0.467445	1.178458	0.64525
H	0.281628	1.559905	1.207325
H	-1.258463	0.970111	1.240949
Cl	3.176118	0.0	0.0
