16

C	-0.657036	-0.020471	-1.374011
C	0.0	0.0	0.0
F	-2.014404	-0.068071	-1.211896
H	1.089806	0.0	0.0
C	-0.316456	1.181902	-2.138598
N	-0.140179	2.133996	-2.802766
N	-0.264928	-1.218107	-2.250717
O	0.894577	-1.208441	-2.630929
O	-1.140061	-2.032477	-2.502588
N	-0.411975	-1.284565	0.713438
O	-0.140533	-2.336802	0.141333
O	-0.956611	-1.184913	1.812114
N	-0.434185	1.174834	0.668862
H	0.269459	1.458447	1.337164
H	-1.319417	1.037309	1.136719
Cl	3.180898	0.0	0.0
