16

C	-0.575277	0.045692	-1.412277
C	0.0	0.0	0.0
F	-1.939265	0.139411	-1.358514
H	1.092367	0.0	0.0
C	-0.06042	1.227192	-2.116362
N	0.320723	2.158431	-2.722925
N	-0.229371	-1.150174	-2.311572
O	0.955373	-1.432782	-2.347437
O	-1.148438	-1.651604	-2.937984
N	-0.455724	-1.282241	0.680634
O	-0.389928	-1.316884	1.899131
O	-0.814281	-2.211784	-0.045467
N	-0.409358	1.127992	0.752054
H	0.352302	1.764967	0.918993
H	-1.252379	1.583493	0.446301
Cl	3.185514	0.0	0.0
