15

C	0.0	0.0	0.0
C	-0.630616	0.216968	-1.376709
F	1.412419	0.0	0.0
H	-1.696447	-0.043635	-1.207522
N	-0.493173	0.971492	0.87382
H	-0.502964	1.876189	0.423258
H	-0.023226	0.961832	1.766357
C	-0.316032	-1.366251	0.490008
N	-0.454288	-2.454453	0.907655
C	-0.034656	-0.678259	-2.373259
N	0.452886	-1.334655	-3.217526
N	-0.563934	1.624523	-1.755687
H	0.181307	1.794581	-2.418272
H	-1.450876	1.893474	-2.165208
Br	-3.858499	0.0	0.0
