15

C	0.0	0.0	0.0
C	-0.63374	0.185867	-1.381503
F	1.412821	0.0	0.0
H	-1.69803	-0.072907	-1.202232
N	-0.49056	0.996701	0.848482
H	-0.025388	1.009559	1.743502
H	-0.491072	1.888658	0.371499
C	-0.325461	-1.350034	0.520203
N	-0.478176	-2.432743	0.9469
C	-0.037789	-0.727721	-2.359642
N	0.455444	-1.401943	-3.186158
N	-0.569836	1.584447	-1.792243
H	0.171573	1.740467	-2.463083
H	-1.460292	1.847144	-2.197036
Br	-3.869457	0.0	0.0
