15

C	0.0	0.0	0.0
C	-0.20972	0.004599	-1.540085
F	1.397462	0.0	0.0
H	0.340558	0.919868	-1.810205
N	-0.490736	1.177803	0.61036
H	-1.513484	1.149365	0.484612
H	-0.319154	1.125141	1.609792
C	-0.360521	-1.283176	0.648205
N	-0.50938	-2.266648	1.272524
C	-1.507812	0.145723	-2.214365
N	-2.216218	0.277319	-3.146057
N	0.412421	-1.215599	-2.066138
H	0.204882	-1.295227	-3.052951
H	1.414482	-1.147186	-1.947814
Br	-3.540762	0.0	0.0
