15

C	0.0	0.0	0.0
C	-0.307545	0.390228	-1.490361
F	1.408355	0.0	0.0
H	0.5022	-0.115162	-2.029337
N	-0.541733	0.891624	0.9467
H	-1.538074	1.010753	0.74017
H	-0.476404	0.50412	1.882572
C	-0.344909	-1.433988	0.188252
N	-0.548853	-2.581482	0.338031
C	-0.056214	1.835052	-1.64323
N	0.158655	2.975579	-1.819
N	-1.546518	0.021728	-2.121055
H	-2.358903	0.316652	-1.57463
H	-1.606734	-0.989927	-2.167913
Br	-4.017445	0.0	0.0
