15

C	0.0	0.0	0.0
C	-0.353819	-0.579241	-1.430164
F	1.376017	0.0	0.0
H	0.594811	-0.975899	-1.804886
N	-0.499013	1.277671	0.363388
H	-0.379148	1.92606	-0.408522
H	-1.505357	1.180318	0.525606
C	-0.386375	-0.985718	1.039422
N	-0.526481	-1.758986	1.911199
C	-0.707237	0.538699	-2.333748
N	-0.934904	1.399786	-3.101248
N	-1.295522	-1.675197	-1.379106
H	-2.196637	-1.333339	-1.030597
H	-1.431461	-2.0416	-2.313998
Br	-3.768869	0.0	0.0
