15

C	-0.155088	-0.04879	0.023918
C	-0.64349	0.304073	-1.390122
F	1.210886	-0.399757	-0.008806
H	-1.360061	1.125778	-1.271049
H	-0.714982	-0.92469	0.33772
C	-0.368732	1.077866	1.001222
H	-1.45272	1.169261	1.088282
H	0.08251	2.00917	0.643936
H	0.068315	0.826443	1.971478
N	-1.295815	-0.872152	-1.972949
H	-1.641214	-0.608281	-2.892272
H	-2.122813	-0.899288	-1.330925
C	0.465085	0.783896	-2.228925
N	1.305746	1.205272	-2.93247
F	-2.880486	-0.214321	-0.009815
