15

C	-0.101147	-0.000808	-0.026377
C	-0.270483	-0.234338	-1.533069
F	1.278953	-0.134647	0.255076
H	0.396304	0.482791	-2.033208
H	-0.648818	-0.763947	0.523731
C	-0.597276	1.356269	0.39856
H	-0.253645	1.565071	1.415315
H	-0.235847	2.149985	-0.265364
H	-1.686521	1.265125	0.396925
N	-1.634713	-0.090702	-2.021717
H	-2.268023	-0.308168	-1.198891
H	-1.774961	0.894553	-2.213584
C	0.25294	-1.57333	-1.87964
N	0.672766	-2.633204	-2.160405
F	-2.882657	-0.363479	0.243947
