15

C	-0.122196	-0.008893	-0.025834
C	-0.305985	0.255721	-1.525656
F	1.247584	-0.303542	0.172157
H	0.40384	1.053619	-1.787452
H	-0.714663	-0.874015	0.266446
C	-0.535022	1.170752	0.814739
H	-0.179423	1.027107	1.838684
H	-0.12573	2.111229	0.428396
H	-1.627827	1.147085	0.805565
N	-1.658942	0.626164	-1.917119
H	-1.738683	1.627471	-1.781819
H	-2.304055	0.194806	-1.193908
C	0.134874	-0.932141	-2.288197
N	0.502516	-1.863305	-2.901544
F	-2.920253	-0.278696	0.170177
