15

C	-0.121471	-0.012245	-0.023332
C	-0.30297	0.120827	-1.540781
F	1.247182	-0.291829	0.201818
H	0.408893	0.891474	-1.870021
H	-0.716674	-0.847017	0.342471
C	-0.532603	1.237286	0.710411
H	-0.121444	2.139598	0.243405
H	-0.177816	1.183378	1.743258
H	-1.625429	1.215014	0.702247
N	-1.654628	0.45818	-1.964702
H	-1.731638	1.467815	-1.920815
H	-2.301884	0.095032	-1.206338
C	0.135898	-1.130526	-2.195434
N	0.493661	-2.11646	-2.723033
F	-2.920616	-0.256594	0.191584
