13
Coordinates from ORCA-job run
  C   0.36907377900938     -0.47601116277029     -0.22654694834356
  C   -0.63652644782042      0.49972411982415      0.33847423515208
  F   -0.12516222493029     -0.91497386877171     -1.45358488806081
  H   -0.83093619749689      1.31677979887068     -0.35427505233700
  H   0.43062829497205     -1.35233426862229      0.42193152992859
  H   -0.31134160931877      0.88062343811019      1.30839592525877
  C   1.72308631629661      0.15912497455167     -0.44126773230529
  H   2.16204757548441      0.47295282326045      0.50829501949538
  H   2.39430392694893     -0.56110132373960     -0.91050546915616
  H   1.63776279831363      1.02726203661866     -1.09786952187574
  N   -1.94601854083014     -0.18201168540106      0.57150612691383
  O   -1.91966242378718     -1.19799509006427      1.26094521165448
  O   -2.94625524684132      0.32696020813341      0.07550156367543
