13
Coordinates from ORCA-job run
  C   0.46761345646419     -0.43858549222924     -0.05388336811846
  C   -0.74133404243389      0.44384704095584      0.15240916935446
  F   0.14704622834444     -1.35110277639749     -1.05733258830027
  H   -1.04456337897577      0.92694421376230     -0.77492772120540
  H   0.65493967904362     -1.01735019972826      0.85287629774378
  H   -0.55842317709934      1.18292823592904      0.93461155731666
  C   1.68485930825625      0.34982332966034     -0.47770974839377
  H   2.51178675893563     -0.33300534240657     -0.67617229448337
  H   1.47674424717627      0.91133934287406     -1.39064561041979
  H   1.99177358976876      1.04580032093235      0.30602472144577
  N   -1.90699659689512     -0.37264217887941      0.60874133435696
  O   -2.95266389559255     -0.27219438781687     -0.02530458024517
  O   -1.72978217699247     -1.07380210665609      1.60131283094861
