13
Coordinates from ORCA-job run
  C   0.55210223854899     -0.72549165383180      0.11247663671699
  C   -0.72855085532339     -0.29848977759510      0.81257870240780
  F   0.23779903698868     -1.68857948481590     -0.83883609856413
  H   -0.50480145328631      0.28052299154070      1.70753097686367
  H   1.17895691324199     -1.21644023913310      0.86490916484514
  H   -1.33476765330554     -1.17292716553449      1.04577521388932
  C   1.30307597917883      0.39823581671499     -0.56279185218540
  H   2.23638355810895      0.01371579740555     -0.97539835715974
  H   1.52862110841125      1.20043429944565      0.14210415274406
  H   0.71063347371213      0.81132815808147     -1.38010062871117
  N   -1.53876327024155      0.57854320698811     -0.07534310618522
  O   -2.25035980218743      0.02588043119010     -0.90981653619217
  O   -1.39032927384660      1.79326761954382      0.05691173153084
