16

C	0.0	0.0	0.0
C	-0.389861	-0.098308	-1.498836
Cl	1.732827	0.0	0.0
H	0.132684	-1.001481	-1.824716
N	-0.432133	1.291097	0.680407
O	-0.856451	2.184434	-0.036987
O	-0.205874	1.384624	1.878906
N	-0.477252	-1.245982	0.745562
O	-0.457024	-2.26255	0.061576
O	-0.723103	-1.184142	1.934273
N	0.19525	1.007105	-2.2636
H	0.13954	0.726457	-3.235575
H	-0.417192	1.805547	-2.152123
C	-1.821231	-0.304959	-1.819411
N	-2.599976	-0.50011	-2.692784
F	-2.370274	0.0	0.0
