16

C	0.0	0.0	0.0
C	-0.814476	0.307344	-1.262027
Cl	1.720359	0.0	0.0
H	-1.714312	0.80698	-0.828689
N	-0.360878	1.021157	1.104133
O	-0.059298	0.711844	2.247089
O	-0.810216	2.095055	0.738185
N	-0.407226	-1.404651	0.54494
O	0.235824	-2.336605	0.08794
O	-1.329823	-1.457023	1.337954
N	-1.340406	-0.920203	-1.859255
H	-1.476256	-0.772514	-2.850902
H	-2.259977	-0.944058	-1.383512
C	-0.063781	1.139259	-2.18577
N	0.49405	1.815138	-2.969416
F	-2.985412	0.0	0.0
