16

C	0.0	0.0	0.0
C	-0.547218	-0.138274	-1.433226
Cl	1.723118	0.0	0.0
H	-1.668274	-0.102701	-1.181561
N	-0.533884	1.256657	0.684044
O	-0.665121	2.215983	-0.06204
O	-0.691654	1.253703	1.891344
N	-0.412728	-1.238959	0.835585
O	-1.075005	-2.111518	0.303105
O	0.037313	-1.275632	1.975339
N	-0.052243	-1.392739	-2.015098
H	-0.824591	-2.044067	-2.059978
H	0.305419	-1.227705	-2.947203
C	-0.13112	0.964022	-2.286648
N	0.207495	1.745532	-3.099563
F	-2.604466	0.0	0.0
