15

C	-0.483301	0.067576	-1.452965
C	0.0	0.0	0.0
Cl	-0.15959	-1.495291	-2.27752
H	1.095035	0.0	0.0
H	-1.571349	0.188414	-1.46855
C	0.210462	1.191535	-2.194224
H	1.291057	1.047229	-2.141641
H	-0.107056	1.214834	-3.239064
H	-0.041611	2.137847	-1.714561
C	-0.496418	-1.200118	0.688556
N	-0.944599	-2.088399	1.314331
N	-0.420514	1.225967	0.686692
H	-1.314052	1.087615	1.146338
H	0.272118	1.446272	1.394838
Br	3.531341	0.0	0.0
