15

C	-0.4423	0.011051	-1.479176
C	0.0	0.0	0.0
Cl	0.071229	1.559299	-2.224216
H	1.095382	0.0	0.0
H	0.127446	-0.764502	-1.995858
C	-1.93255	-0.174224	-1.702984
H	-2.164331	-0.142965	-2.769117
H	-2.255524	-1.136967	-1.300937
H	-2.504343	0.619979	-1.216517
C	-0.464291	-1.268638	0.580489
N	-0.877574	-2.287099	0.995354
N	-0.437907	1.110245	0.831288
H	0.236806	1.856597	0.726769
H	-1.346571	1.452235	0.546249
Br	3.484391	0.0	0.0
