15

C	-0.308599	-0.020205	-1.497716
C	0.0	0.0	0.0
Cl	-2.091284	0.122196	-1.793832
H	1.097939	0.0	0.0
H	0.123607	0.891179	-1.917213
C	0.246694	-1.245573	-2.189674
H	0.097949	-1.18337	-3.269407
H	1.317662	-1.297296	-1.971899
H	-0.238563	-2.150265	-1.819268
C	-0.506924	-1.214851	0.646631
N	-0.915278	-2.198744	1.140843
N	-0.434192	1.180565	0.730097
H	-1.320398	1.513789	0.371816
H	0.270012	1.89879	0.616785
Br	3.465837	0.0	0.0
