15

C	-0.505932	0.007028	-1.446798
C	0.0	0.0	0.0
Cl	0.061288	1.514655	-2.248729
H	1.100806	0.0	0.0
H	-0.003141	-0.804887	-1.977384
C	-2.015293	-0.086079	-1.571022
H	-2.481767	0.729646	-1.017317
H	-2.316221	-0.031181	-2.619387
H	-2.362898	-1.036654	-1.155024
C	-0.452343	-1.246969	0.624332
N	-0.821976	-2.24573	1.119606
N	-0.55293	1.138248	0.756175
H	-0.070149	1.960086	0.404154
H	-0.237997	1.033835	1.715827
Br	3.517372	0.0	0.0
