14
Coordinates from ORCA-job run
  C   -0.70004895240790      0.30618733620268     -0.17311747040510
  C   0.57842764234817     -0.55823315189530     -0.20256491371481
  Br  -0.86169085179908      1.14649757703881     -1.99319872396652
  H   0.43990727478635     -1.36513396107074     -0.92621423420556
  N   -1.77828775338193     -0.54479352843912      0.16622628760544
  H   -2.62177705606257     -0.03046104122684      0.38577736485995
  H   -1.96811946587064     -1.22851406607225     -0.55678473237998
  C   -0.62150163094268      1.40386822260118      0.78729122090367
  N   -0.65038796338091      2.26881466203737      1.58285042355836
  C   0.86292228751020     -1.08808229369417      1.12558761285595
  N   1.10943564600297     -1.52182019493532      2.18925445189616
  N   1.78140455188159      0.22093965521627     -0.68265875956056
  O   2.34933058009319     -0.22059565441356     -1.67393170453801
  O   2.07838569122325      1.21232643865099     -0.02851682290899
