14
Coordinates from ORCA-job run
  C   -0.58318990981722      0.49833238456097     -0.11553468121125
  C   0.48687652728323     -0.48686666028868      0.41866199962336
  Br  0.37707785618772      1.74282207554770     -1.38909301966891
  H   -0.04539053103235     -1.27192788340928      0.96754148991292
  N   -1.68993142064102     -0.18299275188158     -0.65751848089400
  H   -1.42489241500801     -0.80679191554466     -1.40916822328081
  H   -2.42106078701861      0.45343445633180     -0.94838093174973
  C   -1.02499033359409      1.34808490595605      0.98988515693919
  N   -1.40677567452673      2.00942494118742      1.88383210267814
  C   1.46880648299344      0.16552017744990      1.27003212692986
  N   2.23074740032181      0.67852761619032      2.00237425025618
  N   1.18600547648237     -1.20108101658643     -0.72839394758069
  O   0.44233088505731     -1.80566778649512     -1.49458252960386
  O   2.40338644331218     -1.14081854301839     -0.78765531235037
