14
Coordinates from ORCA-job run
  C   -0.68599013328987      0.44774101663908     -0.17345021240956
  C   0.57729914165492     -0.30640614345918      0.37646994324400
  Br  -0.02807426961714      1.87811040691225     -1.35262579479284
  H   0.21714918520796     -1.18153307612711      0.92745247160731
  N   -1.64713687074432     -0.33246701862287     -0.87804472276809
  H   -1.21363048542536     -0.91037933309165     -1.58711811358648
  H   -2.20157071678191     -0.89970995943900     -0.24761201892156
  C   -1.33312877805862      1.07098486482509      0.98245138701512
  N   -1.86255189783639      1.51474491515562      1.93384731381089
  C   1.40776676346747      0.52990738983536      1.22698165509965
  N   2.04308546955341      1.19660729739628      1.95676676817109
  N   1.39143073971793     -0.86267857071364     -0.77254547892946
  O   0.82484899394582     -1.73289145045910     -1.42945156476057
  O   2.51050285820610     -0.41203033885113     -0.96512163277947
