14
Coordinates from ORCA-job run
  C   -0.65220557363371      0.25938279028870     -0.38422909384122
  C   0.64806527883983     -0.55125462184443     -0.18581956240360
  Br  -0.67337359421336      0.93280884974269     -2.21531341608652
  H   0.65447769325294     -1.34934498125281     -0.92950274524658
  N   -1.74305561666133     -0.67857157335488     -0.23697308677872
  H   -2.60911801998917     -0.25324920352752     -0.54912689778746
  H   -1.84785928670270     -0.93016356145211      0.74302095227314
  C   -0.73083451913865      1.41609640330898      0.51681828049800
  N   -0.90501228635544      2.29610190445719      1.27831143066505
  C   0.68943077314661     -1.08715379235868      1.16938484209667
  N   0.66025826045782     -1.53380395924560      2.25584126149231
  N   1.87780437020033      0.29029768239851     -0.42697944763563
  O   2.53102273731622      0.01375835483896     -1.42568618908732
  O   2.10039978348059      1.17509570800096      0.39125367184190
