14
Coordinates from ORCA-job run
  C   -0.69405664669943      0.11965583020810     -0.50971075001037
  C   0.72831915258058     -0.42605538206475     -0.27592225883842
  Br  -1.36894709730177     -0.85047443885877     -2.07607757984715
  H   1.31758067491243     -0.33642245726040     -1.19127480256018
  N   -1.55777332748451     -0.17345442348519      0.59487358895617
  H   -1.26231836539973      0.35759397114873      1.40683170623358
  H   -2.51919191668245      0.05131213773201      0.36897823762527
  C   -0.60005235419281      1.53552348256456     -0.90204417686144
  N   -0.54232339830722      2.67793888566326     -1.17737405758519
  C   0.71559317360702     -1.80807584329431      0.18841411768055
  N   0.75482549758562     -2.92014190977053      0.56389507778647
  N   1.48892315179366      0.40110758298219      0.75528075949428
  O   0.83281726892146      1.01505816153516      1.59028393918880
  O   2.70660418666715      0.35743440289988      0.66284619873764
