14
Coordinates from ORCA-job run
  C   -0.67762507910734      0.24757166711363     -0.30256050887691
  C   0.60582242939023     -0.56680001801978     -0.03355562433727
  Br  -0.63511702556453      0.75195445927388     -2.24921599995687
  H   0.56467739451971     -1.48954369860599     -0.61716285795514
  N   -1.77848173156477     -0.56504550943389      0.05839245626267
  H   -2.64896732742509     -0.04853089425077      0.07559521011489
  H   -1.86905872693489     -1.37482474338798     -0.54375611381462
  C   -0.72466769784965      1.49880221072727      0.44988240225441
  N   -0.85927039533100      2.49074618473894      1.06622293814546
  C   0.73733610103265     -0.85080239663011      1.39033402518823
  N   0.85605868108491     -1.08290452669386      2.53584576842115
  N   1.84660037752020      0.15873324446192     -0.50102700303425
  O   2.06160463482797      1.24697878260367      0.01662621992484
  O   2.52108836540163     -0.41533476189696     -1.34662091233659
