14
Coordinates from ORCA-job run
  C   -0.78578418985813      0.14055939664141     -0.35908429239182
  C   0.63952564205489     -0.44606408695360     -0.45830634176920
  Br  -1.81410015297419     -0.69491301736344     -1.80956426617584
  H   1.01261077489751     -0.34102833377974     -1.47793107265750
  N   -1.40076742284716     -0.20588536154151      0.88243695873553
  H   -2.33312334112231      0.18358815529456      0.95024487284028
  H   -0.83026372295204      0.10496830124891      1.66181819087810
  C   -0.71986126689833      1.57943321526279     -0.66409147572259
  N   -0.67057841240819      2.74255973228582     -0.83675460966686
  C   0.68701320138139     -1.83389070859868     -0.01865660839954
  N   0.77671177653511     -2.95627690269737      0.31515901100306
  N   1.58609595653849      0.37816285177074      0.39976567212203
  O   1.33943632126472      0.42588571465302      1.60116741393453
  O   2.51208483638822      0.92390104377709     -0.18520345273013
