14
Coordinates from ORCA-job run
  C   -0.67772439848348      0.23036916206435     -0.31600000911007
  C   0.62084274890991     -0.55099512161962     -0.02224756178199
  Br  -0.60710875034375      0.74518434982768     -2.25898391188296
  H   0.61667675677969     -1.47189552600767     -0.61018921131385
  N   -1.76404746710056     -0.61295322098163      0.01770503660708
  H   -2.64824789347468     -0.11996212711987      0.01732041733384
  H   -1.81962266171443     -1.42227481411462     -0.58929595629023
  C   -0.77379091531724      1.47646346162893      0.44032288864958
  N   -0.94249421388750      2.46585927378904      1.05233099238214
  C   0.72859134325207     -0.83767889807103      1.40307505423792
  N   0.82899705226981     -1.07108052998536      2.55007265316464
  N   1.85190546745502      0.20953905917591     -0.45985071910093
  O   2.02996276919641      1.29785583558271      0.07162577803366
  O   2.55606016245875     -0.33943090416879     -1.29788545092877
