14
Coordinates from ORCA-job run
  C   -0.61959711262996      0.43617433486977     -0.19584353072848
  C   0.66411446056995     -0.19412373240027      0.40028772160795
  Br  -0.20232807562831      1.66843468549605     -1.64910779270909
  H   0.37483891221493     -0.76773815576524      1.28635982955042
  N   -1.44004538152978     -0.61626621157235     -0.72654765043585
  H   -1.69423302576256     -1.28265405866456     -0.00347605057704
  H   -2.27991836994037     -0.23809544874463     -1.14808836387848
  C   -1.23425581363151      1.23756542611325      0.87550017962990
  N   -1.77104534762517      1.80904088331443      1.75318217299805
  C   1.67631456557490      0.78956378641301      0.74674141893901
  N   2.50734400932513      1.56408994533605      1.04524412855458
  N   1.21755468816715     -1.21960341998739     -0.56529504079767
  O   1.91386404486795     -0.80688080468799     -1.48128108547952
  O   0.88739244602760     -2.37750722972010     -0.33767593667377
