14
Coordinates from ORCA-job run
  C   -0.70023642195564      0.30379815423239     -0.17482286796545
  C   0.57257165567339     -0.56949458615295     -0.18990683590247
  Br  -0.88082335997873      1.08220893854464     -2.02024716263795
  H   0.42114062401442     -1.39823165177229     -0.88562807421942
  N   -1.77938734215893     -0.52784478043088      0.20811777017744
  H   -1.97814217663687     -1.23919030468830     -0.48539526471594
  H   -2.61893491089678     -0.00020248706421      0.41183642531239
  C   -0.60163700390173      1.43419905702098      0.74518880191013
  N   -0.61010641089445      2.33118966820006      1.50505705595515
  C   0.86905850095698     -1.05708784939592      1.15161082364429
  N   1.12236295994797     -1.45684323429336      2.22683908073680
  N   1.77407336921722      0.18704071151382     -0.70892907454593
  O   2.31122806965283     -0.27335417089989     -1.70845889482659
  O   2.09883244696038      1.18281253518586     -0.07526178292242
