14
Coordinates from ORCA-job run
  C   -0.81011756420022      0.26978675997508     -0.33840005770960
  C   0.59406638297802     -0.40448668279379     -0.50840736287636
  Br  -1.89578420713519     -0.47866088281477     -1.79369787534803
  H   0.96289026835232     -0.27652994753973     -1.52696116723874
  N   -1.50016049783786      0.05560963682932      0.89001297841061
  H   -1.66646271194303     -0.93184278988542      1.05014382917166
  H   -0.98016639093891      0.44698656449069      1.66798156818109
  C   -0.64525131062907      1.70515258157053     -0.57783726498278
  N   -0.47006673440836      2.85532996076840     -0.74692057355125
  C   0.53101376730648     -1.80509260087644     -0.12299281337215
  N   0.44522559918613     -2.93001263562243      0.20491061278101
  N   1.58201456897305      0.31511854998889      0.38616503759981
  O   2.46650484587182      0.94622183900541     -0.17903049695331
  O   1.38529398442487      0.23341964690422      1.59503358588808
