14
Coordinates from ORCA-job run
  C   -0.63683824962352      0.17850197928264     -0.44888841976211
  C   0.65913918352869     -0.56700572313339     -0.05932339259575
  Br  -0.58536429231013      0.52127391111701     -2.36874954687928
  H   0.70236919451834     -1.48207630936414     -0.65156577247196
  N   -1.72655139735060     -0.73497118469086     -0.18344516722764
  H   -2.58000918827703     -0.38671226733007     -0.60615948201484
  H   -1.87554012853190     -0.80699755648968      0.82016859325259
  C   -0.76171366502940      1.47365064630579      0.23157977174059
  N   -0.97575774234690      2.47562087445913      0.81022538245227
  C   0.64618195404993     -0.85755349459807      1.36923805985173
  N   0.57856715149638     -1.10247576679878      2.51647478821156
  N   1.89253147312687      0.23654359515339     -0.39328045303515
  O   2.07321602307454      1.25496296489989      0.26421865410733
  O   2.59076968367474     -0.20176166881285     -1.29949301562923
