15
Coordinates from ORCA-job run
  C   -0.31919768107697     -0.42279596181428      0.36047436924641
  C   0.89572134568472      0.52374972013186      0.45321986441185
  F   -0.14273800790955     -1.38406774355025      1.31294877179527
  H   0.94639942224859      0.86309147300291      1.49419834667975
  C   -0.55921682259490     -1.04224198347403     -0.98193860418519
  H   0.30820739354136     -1.65005069554688     -1.24446102570326
  H   -0.71907652166029     -0.27997958211167     -1.74374526393364
  H   -1.44136711155338     -1.67923664446428     -0.93278753303291
  N   -1.52059908740175      0.40197544398110      0.83306335317794
  O   -2.50284621302919      0.45883990748113      0.10296629042871
  O   -1.38928169176529      0.92827429591771      1.93367321188875
  C   0.70581972113515      1.68227048145992     -0.42167599188728
  N   0.52083979165886      2.60198421452991     -1.12775696108949
  C   2.12180532163196     -0.20160039258006      0.11658293268542
  N   3.09453014109067     -0.80021253296309     -0.15476176048233
