15
Coordinates from ORCA-job run
  C   -0.24686623008514     -0.32856891351546      0.30698265087856
  C   0.75288506068305      0.71136399856145     -0.23911540007075
  F   0.28101159083358     -0.90542051215468      1.41024057646136
  H   0.26699692706779      1.24065092122171     -1.06555648003598
  C   -0.67034429504234     -1.37526793715828     -0.68936688078824
  H   -1.11097825913327     -0.91210951754607     -1.57208272174606
  H   -1.40676094800104     -2.02848762373465     -0.21742866598205
  H   0.19572668722141     -1.97331199648988     -0.97580823362563
  N   -1.48123249538975      0.45847296104988      0.74086579072401
  O   -1.96308260625576      1.17642503115396     -0.13065552573083
  O   -1.89237532432580      0.28940797116994      1.87728039372705
  C   1.95081838834348      0.03133930765306     -0.73619930314572
  N   2.88840779934759     -0.53783162447178     -1.15453577182651
  C   1.09375470192980      1.68501496839906      0.80287999483416
  N   1.34103900280640      2.46932296586173      1.64049957632661
