15
Coordinates from ORCA-job run
  C   -0.27748085807834     -0.32847571309022      0.27970787612238
  C   0.76590386966987      0.71980293287024     -0.15741599975318
  F   0.12013329257879     -0.88046036769238      1.44839108233692
  H   0.37765890571541      1.22805312657298     -1.04635255356542
  C   -0.56105554014430     -1.39650754119982     -0.74315569394481
  H   -0.90001621599966     -0.95428778291977     -1.67978691781380
  H   -1.33778713296926     -2.05623428179565     -0.35193085534204
  H   0.34277267196948     -1.98270410935862     -0.91418568154356
  N   -1.56687661531843      0.44468583298172      0.54728131634339
  O   -1.94975010929322      1.14110968657392     -0.38840437342555
  O   -2.10990169647072      0.28712828641446      1.62871049942036
  C   2.02629721274333      0.05318526655826     -0.49202738432966
  N   3.01700493867297     -0.50538305298715     -0.78285617788242
  C   0.96188205798528      1.71496104682369      0.90157637872842
  N   1.09321521893879      2.51612667024834      1.74944848464899
