15
Coordinates from ORCA-job run
  C   -0.31362418555538     -0.43338887154069      0.35216528404062
  C   0.86674360377881      0.55257603602710      0.47517563533650
  F   -0.12902920395998     -1.38949119530657      1.30837982925095
  H   0.88034490783736      0.89223497994626      1.51719118935791
  C   -0.50001061201853     -1.05893787928278     -0.99591448261389
  H   0.39386044200437     -1.63608204627225     -1.23811222145258
  H   -0.66808283842676     -0.30162632187004     -1.76094190631968
  H   -1.36060214742837     -1.72606229770229     -0.96800464175840
  N   -1.55295232112505      0.35042642979482      0.79550505334201
  O   -1.46565887229171      0.88048002177985      1.89872444682416
  O   -2.51907679630246      0.37401896093321      0.04239843541610
  C   0.66018075595137      1.70523768962885     -0.40362049198912
  N   0.46254263100939      2.61906104458662     -1.11391858839653
  C   2.12404232365145     -0.13143338274024      0.16867877699507
  N   3.12232231287551     -0.69701316798183     -0.07970631803313
