15
Coordinates from ORCA-job run
  C   -0.23661938315338     -0.58608198883669      0.07540593595013
  C   1.10897125361925      0.16981650344046      0.02365627159313
  F   0.03818184057869     -1.83649687085320      0.52827630499411
  H   1.78536362609285     -0.49927115468276     -0.52443828082245
  C   -0.97408091559695     -0.64503892592217     -1.23521658696480
  H   -1.25817970805584      0.35366246363980     -1.56559081589590
  H   -1.86863031245496     -1.25594614321359     -1.10100900684634
  H   -0.33883058893574     -1.11336572519697     -1.98960743168039
  N   -1.13373330301906      0.08112165375372      1.10881715538859
  O   -1.22469341868303      1.29917681249372      0.99782965209948
  O   -1.70107965432226     -0.64071271487516      1.91368824559614
  C   1.65419572652832      0.35215670261525      1.37212969096399
  N   2.08504644434061      0.47067354239451      2.45766856247597
  C   1.04049199824342      1.43458285780631     -0.70969358556612
  N   1.02359639481807      2.41572298743678     -1.35391611128555
