15
Coordinates from ORCA-job run
  C   -0.24498320998386     -0.32764951987737      0.31096153022775
  C   0.75507838065068      0.70335143981474     -0.25085407053892
  F   0.29663767097306     -0.91193368272004      1.40375251887360
  H   0.26028980898726      1.23787039322715     -1.06868953706769
  C   -0.69616661783120     -1.36852555886798     -0.67909457963443
  H   0.15924308649877     -1.97348652946394     -0.98255152520931
  H   -1.14915816689385     -0.90030632322124     -1.55273368672314
  H   -1.42884043755242     -2.01656587343954     -0.19441417477470
  N   -1.46295697437828      0.47172911177534      0.76819586145834
  O   -1.85405192544984      0.30692126298107      1.91227281676864
  O   -1.95307517458208      1.19545868787739     -0.09374657454627
  C   1.93810048736737      0.01370241754975     -0.77045762164349
  N   2.86400789846051     -0.55964675994244     -1.20858719748436
  C   1.12317401047942      1.67283341152660      0.78570347602140
  N   1.39270116325446      2.45524752278050      1.61824276427258
