15
Coordinates from ORCA-job run
  C   -0.24181714940386     -0.32556801226015      0.31333064008640
  C   0.74682349855967      0.71318215026122     -0.25422884897068
  F   0.29957832594631     -0.88687941631110      1.41808235600791
  H   0.24992565427596      1.23147832560478     -1.08107939058663
  C   -0.66954209715484     -1.38616377293992     -0.66629706679158
  H   -1.12136607329034     -0.93621581608825     -1.55012198978598
  H   -1.39749477557017     -2.03733998455063     -0.17874852353367
  H   0.19640452889988     -1.98365530165300     -0.95432989838930
  N   -1.47662852083589      0.45942258176286      0.74988027899563
  O   -1.87773147568589      0.29920909931130      1.89125052211183
  O   -1.97030742083873      1.16542567901103     -0.12481369532399
  C   1.94245247090716      0.03367488164083     -0.75792587037609
  N   2.87835666742114     -0.53386681700188     -1.18226455896702
  C   1.09501776518768      1.69858907030864      0.77410083282115
  N   1.34632860158193      2.49070733290426      1.60316521270203
