12
Coordinates from ORCA-job run
  C   -1.29018988843420     -0.24660880523783      0.22539032537581
  C   0.03178896644406      0.12692589082483     -0.44820616181585
  Cl  -1.58475712844337     -1.99992300876194      0.11341457744840
  H   -0.00093697760864     -0.23165668956343     -1.48305507462441
  H   -2.12623415734425      0.25465992323537     -0.26082405852868
  H   -1.26920885671633      0.02211263426041      1.28214416050261
  C   1.25622450421431     -0.46074630372536      0.25678788225564
  H   1.30004554477751     -0.11695399578719      1.29268244796711
  H   1.20743671820278     -1.54958641303531      0.25002209593772
  H   2.17260489925874     -0.15046443448609     -0.24716319030499
  C   0.11818108648276      1.59002437254612     -0.48806226697875
  N   0.18604528916661      2.76221682973043     -0.49113073723462
