12
Coordinates from ORCA-job run
  C   -1.28667018941445     -0.42193362826120      0.02379087566834
  C   0.04473232078331      0.15055360756177     -0.45905603142919
  Cl  -1.53724830091671     -0.16170641879411      1.76583484190656
  H   0.08947795863681     -0.05961926268676     -1.53575206918938
  H   -2.11986954299976      0.04673301368143     -0.49942117476920
  H   -1.30278038451145     -1.49778331984285     -0.15559500748556
  C   1.26013272217037     -0.48827366602979      0.21679683383140
  H   2.18307334193512     -0.11291100447489     -0.22764794265520
  H   1.22809559811308     -1.57283880948626      0.08698855108963
  H   1.27301614939074     -0.26490381179790      1.28323751223698
  C   0.06827620300018      1.60829809451250     -0.30868238298572
  N   0.09976412381274      2.77538520561806     -0.18849400621865
