15

C	-0.594993	-0.066444	-1.403476
C	0.0	0.0	0.0
Br	-0.096292	1.648463	-2.245421
H	1.091344	0.0	0.0
H	-0.359785	0.891812	0.512779
C	-0.033579	-1.120598	-2.247579
N	0.344797	-1.929561	-3.011772
C	-2.119696	-0.158027	-1.404155
H	-2.535456	0.653476	-0.802215
H	-2.423344	-1.119739	-0.985258
H	-2.505694	-0.078283	-2.421284
N	-0.441021	-1.152451	0.830081
O	-0.596641	-2.24097	0.276013
O	-0.591255	-0.946999	2.031086
Cl	3.256862	0.0	0.0
