15

C	-0.600015	-0.009182	-1.402504
C	0.0	0.0	0.0
Br	-0.135484	1.750525	-2.160012
H	1.091252	0.0	0.0
H	-0.362802	0.86758	0.549476
C	-0.035178	-1.016097	-2.299152
N	0.347931	-1.780944	-3.105159
C	-2.122716	-0.12356	-1.391363
H	-2.54535	0.651976	-0.749642
H	-2.408065	-1.107253	-1.014234
H	-2.521558	-0.005178	-2.39919
N	-0.450806	-1.18611	0.771514
O	-0.507105	-2.265539	0.182328
O	-0.718138	-1.016973	1.959786
Cl	3.263925	0.0	0.0
