15

C	-0.465129	0.050851	-1.451475
C	0.0	0.0	0.0
Br	-0.126653	-1.686743	-2.307395
H	1.088568	0.0	0.0
H	-0.357748	0.899697	0.512227
C	-1.887981	0.344731	-1.617999
N	-3.001594	0.667785	-1.811254
C	0.380524	1.10636	-2.166544
H	0.177588	2.085881	-1.722395
H	1.437301	0.869103	-2.024712
H	0.131733	1.138981	-3.22784
N	-0.561626	-1.143529	0.765943
O	-1.756511	-1.392965	0.593853
O	0.181038	-1.730703	1.546298
Cl	3.364278	0.0	0.0
