15

C	-0.5706	-0.01457	-1.423074
C	0.0	0.0	0.0
Br	0.160872	1.460091	-2.497134
H	1.088164	0.0	0.0
H	-0.375856	-0.888969	0.510638
C	-0.139086	-1.261523	-2.058329
N	0.15809	-2.289691	-2.544598
C	-2.096942	0.065931	-1.466993
H	-2.51978	-0.745369	-0.867222
H	-2.445863	-0.026404	-2.496139
H	-2.440777	1.016129	-1.057751
N	-0.54418	1.152593	0.760662
O	0.042882	2.227393	0.690433
O	-1.582288	0.952657	1.403518
Cl	3.295718	0.0	0.0
