15

C	-0.585075	-0.003682	-1.416396
C	0.0	0.0	0.0
Br	0.234368	1.369955	-2.553432
H	1.088374	0.0	0.0
H	-0.370545	-0.888432	0.514579
C	-0.266153	-1.295164	-2.023467
N	-0.088284	-2.356516	-2.496723
C	-2.09861	0.199378	-1.433874
H	-2.345058	1.192781	-1.057228
H	-2.479762	0.103864	-2.451355
H	-2.574441	-0.548705	-0.794729
N	-0.537063	1.151378	0.763114
O	-0.078446	2.26583	0.529635
O	-1.452204	0.916878	1.560801
Cl	3.296342	0.0	0.0
