15

C	-0.483806	0.034725	-1.444257
C	0.0	0.0	0.0
Br	-0.10179	-1.692623	-2.302216
H	1.08859	0.0	0.0
H	-0.364406	0.896702	0.51235
C	-1.918566	0.277616	-1.593087
N	-3.043399	0.567547	-1.770642
C	0.311242	1.119474	-2.172358
H	0.044678	1.140749	-3.229616
H	1.377936	0.921991	-2.047012
H	0.076007	2.090758	-1.726184
N	-0.545323	-1.150577	0.770113
O	0.224838	-1.774626	1.491426
O	-1.752649	-1.372351	0.654547
Cl	3.372358	0.0	0.0
