15

C	-0.601477	-0.0646	-1.400739
C	0.0	0.0	0.0
Br	-0.098325	1.646638	-2.245501
H	1.088677	0.0	0.0
H	-0.356406	0.892922	0.512941
C	-0.050496	-1.121255	-2.246454
N	0.304716	-1.964916	-2.983713
C	-2.126239	-0.146749	-1.395757
H	-2.515412	-0.065056	-2.41114
H	-2.433951	-1.105649	-0.975491
H	-2.533394	0.667833	-0.792861
N	-0.437337	-1.150068	0.835447
O	-0.547181	-0.944759	2.04134
O	-0.624607	-2.234407	0.283914
Cl	3.25948	0.0	0.0
