11
Coordinates from ORCA-job run
  C   -0.53026561904036      0.30508969877160      0.06074559309189
  C   0.82362654371080     -0.39668965254628     -0.00744672820832
  Br  -0.92041357941525      0.79836956736750      1.90589148027705
  H   0.97646413699618     -0.76622764541491     -1.02831865443533
  H   -0.48775364842567      1.26302065317046     -0.46958713408108
  H   0.80436004220879     -1.26180618481716      0.65890724261751
  N   -1.54826320011122     -0.61473875872309     -0.39300361284028
  H   -1.41235149447171     -0.80483065965496     -1.38070759891284
  H   -2.46857040630331     -0.20919532931852     -0.27455113299003
  C   1.93571233653554      0.48474680058640      0.33611061387034
  N   2.82745488831622      1.20226151057896      0.59295993161110
