11
Coordinates from ORCA-job run
  C   -0.52878342470401      0.46489694249630     -0.11187850120873
  C   0.81959855937717      0.18681826670010      0.54643111312601
  Br  -1.61270597469150      1.48265074551743      1.26472785920265
  H   1.24959771739985      1.11479888069723      0.92744172088231
  H   -0.42897615350480      1.18627684642927     -0.92160251179001
  H   0.68124430041478     -0.48093294908368      1.40209532379593
  N   -1.13238126563483     -0.71291579071251     -0.58140031833156
  H   -1.98043682098285     -0.54003657104667     -1.10284202586686
  H   -1.31432520202114     -1.38086125022167      0.15650928190015
  C   1.74656875704356     -0.42424750886549     -0.40701622331767
  N   2.50159950730378     -0.89544761191030     -1.17146571839222
