11
Coordinates from ORCA-job run
  C   -0.59120853631820      0.54823125167785     -0.14102869129184
  C   0.76233075343187      0.30650124620392      0.55120934908650
  Br  -1.61874654275447      1.73481839270375      1.03542410733504
  H   0.59821786384051     -0.17375932454734      1.52004848458035
  H   -0.43585953389165      1.11501843444409     -1.06018171692302
  H   1.28248616299625      1.25052736879456      0.73087734154830
  N   -1.36496861805424     -0.61338858136475     -0.44639967711576
  H   -0.97381187571284     -1.11042714566973     -1.23695765249020
  H   -1.44067911414661     -1.23701659952476      0.34725820467516
  C   1.58527430548208     -0.56091462170793     -0.29121372935538
  N   2.19796513512730     -1.25859042100967     -1.00903602004914
