11
Coordinates from ORCA-job run
  C   -0.55489974174137      0.22549344296720      0.13998538154317
  C   0.85902547391946     -0.28754723762374     -0.12005653805222
  Br  -0.86222024691600      0.35574610395406      2.06044031006014
  H   0.98174399907337     -1.24837734613652      0.38459103610587
  H   -0.65607630006859      1.25602017906161     -0.21846334361061
  H   0.97765183080509     -0.45929819940788     -1.19642108783502
  N   -1.49611424610138     -0.72226480877908     -0.41167566792677
  H   -2.44435238565332     -0.45539959021038     -0.17684699879085
  H   -1.41172995389454     -0.72847306639588     -1.42310684422721
  C   1.89076811618599      0.64968320525284      0.31464058592996
  N   2.71620345439129      1.41441731731776      0.64591316680354
