11
Coordinates from ORCA-job run
  C   -0.65963592938525      0.54257195198312     -0.07144886444549
  C   0.86155973913028      0.43333853475449     -0.27918559839696
  Br  -0.97619830941977      1.30368343055104      1.70517471798123
  H   1.35309343131183      1.39036781035736     -0.08852959845633
  H   -1.05266024375723      1.27884031145186     -0.77479101326357
  H   1.04517588655941      0.16137697823567     -1.32523502647657
  N   -1.41039942298011     -0.66870064851696     -0.20405954128437
  H   -1.03802376873091     -1.40499012402679      0.38362324673787
  H   -1.43227247885515     -0.97630233532689     -1.16852449529405
  C   1.44233434904709     -0.59992074795137      0.57382994740372
  N   1.86702674707982     -1.46126516151153      1.24814622549452
