11
Coordinates from ORCA-job run
  C   -0.59376127001415      0.36600864309391      0.08741062120180
  C   0.77853277342118     -0.31068052766164     -0.06244863863729
  Br  -0.96276943115796      0.57999799361084      1.99717748100682
  H   0.76594539242610     -1.27574505166131      0.45245557208795
  H   -0.55500111881991      1.37853203365066     -0.31728173010485
  H   0.94765638036165     -0.50208824732022     -1.12802450386573
  N   -1.68442767352621     -0.33338477394238     -0.52621575200631
  H   -1.63739694082448     -0.26093455084886     -1.53504726198140
  H   -1.70518946110073     -1.30763053257888     -0.25202165911636
  C   1.88168237897776      0.49857203424722      0.44827826592980
  N   2.76372897025676      1.16835297941067      0.83571760548557
