11
Coordinates from ORCA-job run
  C   -0.57967628349387      0.49957291746985     -0.20647078312648
  C   0.94082639932252      0.40297981604667     -0.28563944583936
  Br  -1.04228956202428      1.31887616041670      1.58125194882404
  H   1.20475499158761      0.12961679240083     -1.31221701134818
  H   -0.93796320958577      1.24720661983250     -0.91299638434923
  H   1.39836202159593      1.36485216234063     -0.04887484467726
  N   -1.18935223848763     -0.74354444914144     -0.46287539115541
  H   -2.19728529119320     -0.67616219295813     -0.49910945637402
  H   -0.92457089048301     -1.44882173236473      0.21461268406761
  C   1.46081753289485     -0.62178153075539      0.61690483362311
  N   1.86637652986684     -1.47279456328750      1.31541385035517
