13

C	-0.565035	0.004407	-1.413346
C	0.0	0.0	0.0
Br	0.012678	1.581373	-2.421787
H	1.093181	0.0	0.0
H	-1.655718	0.085212	-1.38613
H	-0.328664	0.927671	0.479577
C	-0.240518	-1.19477	-2.180122
N	-0.051259	-2.186849	-2.780293
C	-0.504546	-1.213012	0.778565
H	-0.127651	-2.139523	0.339785
H	-0.130068	-1.163754	1.803069
H	-1.598991	-1.262946	0.813556
Br	3.645548	0.0	0.0
