13

C	-0.44771	0.021604	-1.457371
C	0.0	0.0	0.0
Br	0.012499	-1.647279	-2.373354
H	1.093118	0.0	0.0
H	0.096433	0.799662	-1.99797
H	-0.362097	-0.914091	0.477769
C	-1.883696	0.23528	-1.617837
N	-3.040154	0.424333	-1.708861
C	-0.484727	1.241804	0.744338
H	-1.574536	1.288481	0.825351
H	-0.133326	2.150579	0.247423
H	-0.05922	1.242674	1.750009
Br	3.626811	0.0	0.0
