13

C	-0.394361	-0.017965	-1.469016
C	0.0	0.0	0.0
Br	-2.311438	-0.456138	-1.734659
H	1.096479	0.0	0.0
H	0.142226	-0.812222	-1.993394
H	-0.317593	-0.952842	0.434822
C	-0.159884	1.250534	-2.153028
N	0.009396	2.275599	-2.702281
C	-0.543867	1.175094	0.795234
H	-0.184964	1.112961	1.825051
H	-1.637385	1.192835	0.810355
H	-0.183332	2.120265	0.383138
Br	3.594056	0.0	0.0
