13

C	-0.399947	-0.007777	-1.465855
C	0.0	0.0	0.0
Br	-2.313208	-0.474697	-1.71555
H	1.096504	0.0	0.0
H	0.1435	-0.788459	-2.001175
H	-0.314954	-0.956065	0.429605
C	-0.183034	1.270048	-2.137383
N	-0.019965	2.298367	-2.682973
C	-0.549055	1.169994	0.798291
H	-1.642862	1.187586	0.803652
H	-0.198878	1.101121	1.830332
H	-0.185771	2.117676	0.394248
Br	3.596509	0.0	0.0
