13
Coordinates from ORCA-job run
  C   -0.36252233885743      0.61179784850983      0.03609637219711
  C   0.42115986428860     -0.56226100006605     -0.61425722164546
  Cl  -0.14252144205232      2.03545335187557     -1.09106604867931
  H   -0.03128721242973     -0.73626181391692     -1.59931479081357
  C   0.24108053592302      0.97509049017373      1.31914483545842
  N   0.71666052986970      1.26028216274499      2.35499195850090
  N   -1.70827226441177      0.21989104269558      0.22475186990257
  H   -2.18038642087580      0.06181441280778     -0.65785906405549
  H   -2.22898714520712      0.89090339914919      0.77541621002880
  C   0.28110764576803     -1.77644544639261      0.19543864919663
  N   0.18532373872082     -2.76307931845974      0.82474058054695
  C   1.83529387446786     -0.23346955585148     -0.80725745822021
  N   2.97235063479615      0.01528442673012     -0.96082589241733
