13
Coordinates from ORCA-job run
  C   -0.23136750743067      0.71416989633209      0.01385913756014
  C   0.91626342985489     -0.31836407564665     -0.17463721613166
  Cl  0.13879219290703      2.13255094501249     -0.99873557985843
  H   1.85564494866017      0.15300804106923      0.13761006697859
  C   -0.23001054170156      1.15710975129126      1.42090915039020
  N   -0.27904094457276      1.47329500410228      2.55279089585371
  N   -1.46320657567919      0.13279571464489     -0.43844964518491
  H   -2.19951297194727      0.82872328550438     -0.46262627757141
  H   -1.74673423710926     -0.62572828393459      0.17470245362134
  C   1.02570631224293     -0.72041476041204     -1.57908489828414
  N   1.15768519524317     -1.05144565149874     -2.69747109237334
  C   0.65626079721143     -1.48334480824513      0.67714233896018
  N   0.39951990232111     -2.39335505821945      1.37399066603973
