15
Coordinates from ORCA-job run
  C   -0.40327286211413      0.33215551491838     -0.01269003302822
  C   0.74542226336696     -0.55311520028590      0.45998680634443
  F   -0.45293234330882      1.37297388073500      0.94937588299243
  H   0.79843182794934     -1.42791125123647     -0.19475589359650
  H   0.52356757951657     -0.89755668020399      1.47996488859031
  N   -0.16694610087533      0.93006716405404     -1.28287177644797
  H   -0.64318166166423      0.44769890837470     -2.02968002454959
  H   0.82909012416305      0.98271467337531     -1.45856594247207
  C   -1.74651930122937     -0.35992405049266      0.03535634787041
  H   -1.76563757845150     -1.22628831934353     -0.63023678754420
  H   -2.52079108270440      0.34553349134180     -0.27101600838521
  H   -1.96210975987645     -0.69118140182405      1.05183598779432
  N   1.99368054747376      0.19565374483633      0.33935007493860
  H   2.78470089833404     -0.39927136024366      0.54760026173616
  H   1.98449744942051      0.94945088599469      1.01534621575709
