15
Coordinates from ORCA-job run
  C   -0.36088243463480      0.31305276022875      0.02641678830587
  C   0.75634865995266     -0.49694115586366      0.66751208813747
  F   -0.63342552891807      1.41584818030336      0.82592191775624
  H   0.91401679458805     -1.38299382031216      0.02788918382093
  H   0.39893812901188     -0.85519632351309      1.63772789397263
  N   0.11862769604702      0.86352779991343     -1.23057688708692
  H   0.16453808653100      0.13183101808236     -1.93043239836280
  H   -0.53952558159845      1.56424701201090     -1.55248458488097
  C   -1.65552948007543     -0.47492955331226     -0.07691892776951
  H   -1.98384777981517     -0.80340189744646      0.91144237619757
  H   -1.52759331735525     -1.35227597680978     -0.71530347600674
  H   -2.43329907530563      0.16064861674392     -0.50594556714370
  N   1.93647498038730      0.33103702774569      0.86005680835234
  H   2.73965585493587     -0.25235057515524      1.05473558037163
  H   2.10550299624902      0.83689688738425     -0.00104079566402
