15
Coordinates from ORCA-job run
  C   -0.45335948392319      0.42490658014409      0.00665977282572
  C   0.76125635917326      0.14170191974038      0.87564009852081
  F   -1.18131282973838      1.43161409656590      0.69529150167578
  H   0.40809734136071     -0.14458028450266      1.86933928661349
  H   1.31246417720640      1.09056594538855      0.98575166237478
  N   -0.01884055244246      0.90486042626430     -1.26390358016922
  H   0.45291733659087      1.79510373863151     -1.15305660632412
  H   -0.80474666716663      1.03449892852655     -1.88888720839006
  C   -1.37591698473059     -0.76099397730640     -0.14690750224477
  H   -0.85159406544871     -1.58433852424539     -0.62701250313642
  H   -2.24902339631515     -0.47665949326541     -0.74010750929837
  H   -1.72178299728906     -1.08357041760774      0.83584306695127
  N   1.53085940919276     -0.95292574827046      0.30032382478892
  H   1.84833696151056     -0.67424261522364     -0.61985644873918
  H   2.34264539201961     -1.14794057483956      0.87188214455137
