15
Coordinates from ORCA-job run
  C   -0.43703845445199      0.28390350795911     -0.03835734201955
  C   0.78172670828195     -0.45470507131285      0.50551719742817
  F   -0.64584186627331      1.33333699919616      0.89257961074711
  H   0.96211175586605     -1.33180038839695     -0.12292804216798
  H   0.55448034712067     -0.79991353375212      1.52406040197996
  N   -0.21336553421042      0.87682169062473     -1.31307248057424
  H   0.77715990786328      1.03941834557582     -1.44781147215412
  H   -0.59772159005387      0.32716291407261     -2.06626929136677
  C   -1.69473986664784     -0.55494266921438     -0.02786621371124
  H   -2.52880997100474      0.05085210733453     -0.38617560583549
  H   -1.91733561838587     -0.88548172938910      0.98732652151163
  H   -1.58607456322953     -1.43262558070837     -0.66962710166696
  N   1.94191142807392      0.42816146363052      0.41743089519787
  H   2.78487925680946     -0.06897019051857      0.67300492874142
  H   1.81865806024225      1.18978213489889      1.07318799389018
