15
Coordinates from ORCA-job run
  C   -0.41600495050770      0.41059357428738     -0.06008182636793
  C   1.05450811833904      0.05572748028011      0.12238394236833
  F   -0.78161810649825      1.03308493697522      1.15399039289575
  H   1.60260359236592      1.00937900173546      0.20624194106742
  H   1.40015666317493     -0.44606589786299     -0.78640415382677
  N   -0.64726546108151      1.36048301808213     -1.10515051578727
  H   -0.86794598719494      0.91261594755917     -1.98194212246796
  H   0.13329858221838      1.99219963276152     -1.22715027423415
  C   -1.31341559656328     -0.79386591133308     -0.22691161528455
  H   -1.05193491372199     -1.34715430907205     -1.13258817816011
  H   -1.19423371202307     -1.45756840212847      0.62652117564501
  H   -2.34950725005956     -0.45827434379426     -0.29422713757056
  N   1.23778254696706     -0.83629174230177      1.26007430144585
  H   2.21142517172818     -1.09999301703290      1.34233085103747
  H   0.98115130285680     -0.33586996815547      2.10191321923947
