15
Coordinates from ORCA-job run
  C   -0.32609383692864      0.46048488061817     -0.09410400373965
  C   1.07887052885581     -0.09427891853210      0.08901718330252
  F   -0.56934426345645      1.23240454621431      1.07259631307756
  H   1.29545636501634     -0.77254333376262     -0.74205524782759
  H   1.76929441883665      0.76160165524231      0.02078963371017
  N   -0.37067727743839      1.32684794256506     -1.22177616203231
  H   0.45004382524562      1.29127766133682     -1.80540878264393
  H   -1.21164278229858      1.23595974840370     -1.76949904706521
  C   -1.40257607200452     -0.60372217633767     -0.10502865106281
  H   -1.34020322434400     -1.20882528742292      0.79730972348624
  H   -2.38287302104209     -0.12165058753181     -0.14660223525263
  H   -1.28564210281624     -1.25010660529259     -0.97768901516834
  N   1.17176425152498     -0.83562121621783      1.33915765491009
  H   1.02731222803085     -0.18937818298443      2.10456242761013
  H   2.09731096281868     -1.23245012629841      1.43773020869576
