15
Coordinates from ORCA-job run
  C   -0.46644297530968      0.44526109496590     -0.04078960198193
  C   0.80677279895008      0.21354877099147      0.76681157526032
  F   -1.22042292317091      1.37425460783482      0.74140817414928
  H   0.50523314845628      0.05699123021487      1.80747384368927
  H   1.38024769029789      1.14778750981328      0.74600242582026
  N   -0.16203077731203      0.99898383838075     -1.31066299177987
  H   -1.00666696268696      1.15070121172289     -1.84767834453594
  H   0.31754616013754      1.88465797202143     -1.20469932179456
  C   -1.31325252386104     -0.79627686132638     -0.18043306198935
  H   -2.23831512544060     -0.55911747379808     -0.71186148048032
  H   -0.75706803005195     -1.55334292725695     -0.73000273707997
  H   -1.58083426406448     -1.17780138918104      0.80688990323003
  N   1.58310049432124     -0.90228301338525      0.23677815841788
  H   1.62438664126717     -1.66019928810466      0.90210318332951
  H   2.52774664846746     -0.62516528289307      0.01866027574539
