15
Coordinates from ORCA-job run
  C   -0.45905448406159      0.23209864527915     -0.05966635112654
  C   0.74770191727072     -0.41533338195155      0.61104888566561
  F   -0.83685659902991      1.31952086753790      0.78395681320432
  H   0.88005003966309     -1.41749053251457      0.19120668634577
  H   0.49964400371603     -0.52630773696077      1.67018204706554
  N   -0.09052348839642      0.69826117607107     -1.34449519485989
  H   0.71932954995014      1.29906491148174     -1.23392786831917
  H   -0.84878080068223      1.22303433923055     -1.76203696112792
  C   -1.65915273108549     -0.68663394517051     -0.11587760786224
  H   -1.89533194826366     -1.06483078962131      0.88080722793220
  H   -2.52854219586628     -0.13477840885080     -0.48068231308411
  H   -1.46484146530995     -1.52337025100801     -0.78734211915409
  N   1.94232284408295      0.41141321725838      0.43650214171414
  H   2.63811279862445     -0.07210872839020     -0.11206268828373
  H   2.35392255938813      0.65546061760892      1.32438730189011
