15
Coordinates from ORCA-job run
  C   -0.33061872187863      0.46072156261325     -0.04871830579587
  C   1.08880416594669     -0.07756959987126      0.05373435754822
  F   -0.56276542971342      1.13767937790012      1.17353503989427
  H   1.29599513547986     -0.68708981928841     -0.83165594720150
  H   1.75992188373839      0.79494586024125      0.03462150614138
  N   -0.40537157579916      1.42220401547390     -1.10112566140716
  H   -1.30897694443251      1.43945851260067     -1.55047158766600
  H   0.32510055175648      1.31668432085134     -1.78872637271314
  C   -1.38704516665878     -0.62236255727054     -0.11723028118334
  H   -2.37731866491059     -0.15980629664281     -0.09042385671728
  H   -1.28534577232966     -1.18914510032365     -1.04544057131593
  H   -1.28658644788837     -1.30150701932731      0.72753889117206
  N   1.22544545103174     -0.91191123616818      1.24010844578628
  H   2.16245222866308     -1.29089397578326      1.28820119183908
  H   1.08530930699486     -0.32940804500509      2.05605315161894
