15
Coordinates from ORCA-job run
  C   -0.55012805735640      0.48878241004178      0.02665828362082
  C   0.77107498002717      0.24481142748407      0.75454021764843
  F   -1.23430715877110      1.42808136846095      0.80046462739327
  H   0.55884945691083     -0.07270951658913      1.78478548701717
  H   1.29082433595299      1.20585662941505      0.80804551498839
  N   -0.39752938032677      1.07224640988699     -1.28456860923753
  H   0.24745666358903      0.48403716332151     -1.80215398679234
  H   0.04364614741248      1.98052391239573     -1.17831213041583
  C   -1.40174554578050     -0.75794425540841     -0.06240500762395
  H   -1.56201848971686     -1.18320985577444      0.93106247781427
  H   -2.36333765285369     -0.49008172313821     -0.49959028500086
  H   -0.92476851174010     -1.50386809491187     -0.70133785624361
  N   1.58370346026148     -0.69983302630794     -0.01314924728977
  H   1.37273851610141     -1.64904911586212      0.26682751043110
  H   2.56654123629003     -0.54864373301396      0.16913300369044
