15
Coordinates from ORCA-job run
  C   -0.42898645646544      0.22975237011193     -0.01364268496421
  C   0.79323624065470     -0.45485631413015      0.60783762488761
  F   -0.71117050113708      1.30643114930462      0.84646854345275
  H   1.05228141463688     -1.32948685765026      0.00270619535549
  H   0.50822186732144     -0.81678832603146      1.60062872910159
  N   -0.22284370561415      0.80736925117746     -1.31353034494068
  H   0.67502216452939      1.27216235251537     -1.36234769989351
  H   -0.27244826807961      0.10173453459085     -2.03593693111226
  C   -1.64524964278736     -0.66841769879210     -0.03518286092796
  H   -1.88587623497700     -0.99241211240529      0.97816472459530
  H   -1.46887723845852     -1.55414357482993     -0.65105393763638
  H   -2.49222613693963     -0.11378556632173     -0.44059650758117
  N   1.97673513799223      0.37811611462829      0.75604302273743
  H   1.72065549989784      1.25144575080829      1.19900816679660
  H   2.40152585942632      0.58287892702411     -0.13856603987060
