16
Coordinates from ORCA-job run
  C   0.89818021044209      0.15517811861363      0.31097718334923
  C   -0.45379936885804      0.00309219742217     -0.37574132751554
  F   1.68946695008917      1.01639139262556     -0.46014664151627
  H   -0.28704258347503     -0.58002685748874     -1.28966082841065
  H   0.75279913356947      0.65595965959648      1.27781943559799
  C   1.64332024796180     -1.14556200665308      0.48772483304628
  H   1.04239848529105     -1.84198690499468      1.07072259690278
  H   2.59577353173165     -0.97139487455430      0.99178622768202
  H   1.84687841963785     -1.58591197451478     -0.49140115952430
  C   -1.04824637554786      1.35747758937662     -0.75189719201241
  H   -2.02207563331296      1.22340067922293     -1.23046435557511
  H   -1.19252854624986      1.96859837617656      0.14560065046948
  H   -0.39796446680817      1.90622399927335     -1.43410538900879
  N   -1.30250611427169     -0.80444604441017      0.50451873977032
  H   -1.65632850286498     -0.21800559975088      1.25373272227695
  H   -2.10832538733448     -1.13798774994067     -0.01046549553199
