16
Coordinates from ORCA-job run
  C   0.55474574269157     -0.78009291624322      0.32024264627954
  C   -0.49582520759852      0.00692750691732     -0.45691086215068
  F   0.13667911531478     -0.93473153071879      1.64100668049388
  H   -0.02520253434604      0.28236761287976     -1.41699626939124
  H   0.61813610814718     -1.79220727568320     -0.09931917126058
  C   1.92839408132484     -0.14396398048077      0.33378152121583
  H   2.61535475774288     -0.76506914295110      0.91087649100098
  H   2.32152230166727     -0.04394181727687     -0.68056690292196
  H   1.89537771785325      0.84275366249845      0.79786690424384
  C   -0.91083350296859      1.27993135212851      0.26564643720691
  H   -1.36894781044759      1.02123121384860      1.21993994293992
  H   -0.06333233094928      1.94366605962103      0.44369000306615
  H   -1.64068477633705      1.83208862170925     -0.33304255176740
  N   -1.67934474748809     -0.83573644716120     -0.63097011199030
  H   -2.41816636456697     -0.29906846808288     -1.07020002101109
  H   -1.46687255003963     -1.61315445100489     -1.24604473595379
