16
Coordinates from ORCA-job run
  C   0.90252065403138     -0.34522426786574     -0.49780362626143
  C   -0.56410606277698      0.05000773295606     -0.58430405205212
  F   1.01727505048634     -1.61092458811176     -1.10254616775362
  H   -0.80547738289697      0.06129980449254     -1.66035513961552
  H   1.49513421942005      0.33835874973837     -1.11606876143826
  C   1.46774681408527     -0.44060213858822      0.89963579053162
  H   2.47080487326022     -0.86876228243400      0.85576193055906
  H   1.53888185337234      0.54790750911049      1.35759869281306
  H   0.83109007037483     -1.07114685284581      1.51863243852669
  C   -0.80610241978921      1.44008095025149     -0.01649663199880
  H   -0.65252869571350      1.43997301390131      1.06372411642757
  H   -1.83482952504927      1.75642081520735     -0.20918548068901
  H   -0.14238094589720      2.17894342162779     -0.47363818713331
  N   -1.35745175591930     -0.92923548076681      0.15487703819954
  H   -2.34145012977152     -0.70296046557183      0.07007565440102
  H   -1.21912661721648     -1.84313592110125     -0.26090761451649
