16
Coordinates from ORCA-job run
  C   0.60289063662275     -0.81647580827526      0.19757271775478
  C   -0.44157047980175     -0.04613831089506     -0.59514799979701
  F   0.02380473891710     -1.17655995296077      1.42876271080528
  H   0.01227738787819      0.18097939635328     -1.56816152753632
  H   0.79863248294902     -1.75571852649147     -0.32761299964745
  C   1.88441462635471     -0.07015604226909      0.48515460031506
  H   1.69485269480358      0.79169440722138      1.12603866213193
  H   2.58990750351992     -0.72583400991692      0.99821040664195
  H   2.34522506962807      0.27395360459257     -0.44407285606457
  C   -0.84668763249017      1.26153452848515      0.08577813715307
  H   -1.65549172372506      1.73749612852437     -0.47472421726583
  H   -1.20457583845856      1.06267378654387      1.09847038776298
  H   -0.02153463973719      1.97585265573777      0.14293980832682
  N   -1.55319308671129     -0.96462692108094     -0.84283118404284
  H   -2.28337383930435     -0.48966592467937     -1.36049725654987
  H   -1.94657790044498     -1.24000901088952      0.05012061001203
