16
Coordinates from ORCA-job run
  C   0.98101240390622     -0.28817626217454     -0.47959092728196
  C   -0.51031571010609     -0.00913181194117     -0.63735073046129
  F   1.30515461984099     -1.39939348733766     -1.25945135043577
  H   -0.70985434347839     -0.11264962878553     -1.70958682432100
  H   1.54584652979650      0.55293333526370     -0.89939963323957
  C   1.42135476021194     -0.57692668089381      0.93740921948871
  H   0.90775032627631     -1.46969990317787      1.29470430411026
  H   2.49638476339894     -0.76202543980035      0.96046747878461
  H   1.20571500064978      0.26131800289450      1.60460376087774
  C   -0.85729561211713      1.41705096407561     -0.20798630938263
  H   -0.28028297811055      2.16378528970920     -0.76113926834856
  H   -0.66296271331732      1.56124247893321      0.85910035872477
  H   -1.91810331627710      1.61293745707303     -0.38109681681464
  N   -1.28821346450532     -1.04259927753596      0.04598486191289
  H   -1.43461923846765     -0.78281512411942      1.01492511754250
  H   -2.20157102770115     -1.12584991218294     -0.38159324115606
