12

C	0.0	0.0	0.0
C	-0.555796	-0.18251	-1.39293
Cl	1.770783	0.0	0.0
H	-1.66605	-0.155233	-1.257363
H	-0.359592	-0.819275	0.619907
H	-0.361535	0.942377	0.401246
C	-0.143903	-1.42494	-2.027507
N	0.156164	-2.456482	-2.501719
N	-0.214648	0.981255	-2.281855
O	-0.150173	2.081859	-1.744394
O	-0.092596	0.764428	-3.484963
Br	-3.525629	0.0	0.0
