12

C	0.0	0.0	0.0
C	-0.285168	-0.334654	-1.476145
Cl	1.772606	0.0	0.0
H	0.463749	0.187312	-2.073283
H	-0.390737	-0.755575	0.668843
H	-0.394365	0.98156	0.247474
C	-1.544539	-0.074832	-2.189803
N	-2.144144	0.127873	-3.187304
N	0.062863	-1.795926	-1.735187
O	-0.0975	-2.601507	-0.827534
O	0.475247	-2.050268	-2.863514
Br	-3.261428	0.0	0.0
