12

C	0.0	0.0	0.0
C	-0.439135	0.64394	-1.327371
Cl	1.770916	0.0	0.0
H	0.463073	0.884015	-1.904118
H	-0.365217	0.571844	0.846815
H	-0.367167	-1.01817	0.051657
C	-1.160398	1.905811	-1.201832
N	-1.462571	3.041803	-1.174819
N	-1.124279	-0.317795	-2.278365
O	-0.838925	-1.501474	-2.159449
O	-1.762081	0.185142	-3.191162
Br	-3.224367	0.0	0.0
