12

C	0.0	0.0	0.0
C	-0.438893	-0.274875	-1.448883
Cl	1.772482	0.0	0.0
H	0.46246	-0.430735	-2.054892
H	-0.368087	-0.783412	0.651657
H	-0.359688	0.965554	0.335929
C	-1.151264	0.823592	-2.0915
N	-1.44452	1.784473	-2.701011
N	-1.129287	-1.611433	-1.641844
O	-1.746598	-1.74851	-2.687135
O	-0.864117	-2.489021	-0.833378
Br	-3.228119	0.0	0.0
