12

C	0.0	0.0	0.0
C	-0.41515	-0.166331	-1.462012
Cl	1.770526	0.0	0.0
H	-1.51808	-0.126386	-1.531803
H	-0.398376	-0.832455	0.573078
H	-0.4001	0.933649	0.377133
C	0.069691	-1.422112	-2.012888
N	0.390801	-2.463988	-2.441705
N	0.087603	0.993447	-2.276112
O	0.573918	0.772086	-3.371014
O	-0.070193	2.096686	-1.786384
Br	-3.403055	0.0	0.0
