12

C	0.0	0.0	0.0
C	-0.438701	0.516114	-1.381414
Cl	1.770502	0.0	0.0
H	0.462897	0.69647	-1.980937
H	-0.371987	0.646826	0.788413
H	-0.366592	-1.009421	0.145914
C	-1.15936	1.783913	-1.378717
N	-1.496395	2.906981	-1.447225
N	-1.128289	-0.531775	-2.232752
O	-1.783033	-0.116518	-3.176788
O	-0.827954	-1.697104	-2.013627
Br	-3.244031	0.0	0.0
