13

C	0.0	0.0	0.0
C	-0.458929	0.044103	-1.460036
Cl	1.792063	0.0	0.0
H	-1.518365	-0.228249	-1.374083
H	-0.379207	0.859832	0.543348
H	0.130349	-0.680205	-2.033936
C	-0.440947	-1.212997	0.695588
N	-0.602509	-2.206468	1.302951
C	-0.334746	1.448259	-2.031105
H	0.67314	1.863339	-1.928566
H	-0.596937	1.460475	-3.094527
H	-1.045209	2.090905	-1.506444
F	-2.576006	0.0	0.0
