13

C	0.0	0.0	0.0
C	-0.419172	0.093961	-1.473691
Cl	1.791964	0.0	0.0
H	-1.488508	-0.135531	-1.427543
H	-0.373004	0.84907	0.562225
H	0.152005	-0.650663	-2.0398
C	-0.463282	-1.240686	0.620044
N	-0.594349	-2.304699	1.101276
C	-0.196672	1.491935	-2.032388
H	-0.489699	1.535261	-3.086268
H	-0.827949	2.195537	-1.483808
H	0.846206	1.816723	-1.961141
F	-2.522448	0.0	0.0
