13

C	0.0	0.0	0.0
C	-0.443059	-0.129006	-1.464267
Cl	1.792376	0.0	0.0
H	0.133836	0.599571	-2.045934
H	-0.356223	0.94046	0.406972
H	-1.506208	0.130818	-1.397248
C	-0.466383	-1.092697	0.851277
N	-0.589542	-2.041842	1.532681
C	-0.265474	-1.535212	-2.01677
H	-0.957834	-2.209588	-1.508772
H	-0.498734	-1.555718	-3.085983
H	0.752613	-1.916139	-1.88806
F	-2.546076	0.0	0.0
