18

C	0.0	0.0	0.0
C	-0.308499	-0.34553	-1.486695
F	1.39488	0.0	0.0
H	0.557379	0.066878	-2.013095
C	-0.371767	1.373014	0.393389
N	-0.472329	2.450898	0.848463
C	-0.500852	-0.978141	1.038029
H	-0.120289	-1.978509	0.832736
H	-1.595538	-0.964872	1.020234
H	-0.145382	-0.6537	2.018015
N	-1.43724	0.40043	-2.162873
O	-2.203535	-0.249638	-2.861599
O	-1.392448	1.623689	-2.085938
C	-0.41258	-1.831826	-1.74344
H	-1.322281	-2.233063	-1.296845
H	0.466506	-2.330202	-1.328296
H	-0.441926	-2.020259	-2.816346
Cl	-3.621999	0.0	0.0
