18

C	0.0	0.0	0.0
C	-0.401052	-0.116054	-1.481773
F	1.390815	0.0	0.0
H	-0.22932	-1.151169	-1.783957
C	-0.390985	1.296117	0.590013
N	-0.62563	2.303146	1.146132
C	-0.563657	-1.138914	0.817544
H	-0.220926	-2.089404	0.402512
H	-1.657362	-1.093557	0.797516
H	-0.221792	-1.052125	1.850406
N	0.593543	0.662775	-2.297179
O	0.688966	1.865339	-2.072773
O	1.222146	0.047002	-3.157753
C	-1.788601	0.365727	-1.830796
H	-1.872099	1.436968	-1.644424
H	-1.986079	0.167788	-2.887296
H	-2.573319	-0.111083	-1.235605
Cl	-4.558856	0.0	0.0
