18

C	0.0	0.0	0.0
C	-0.445677	-0.045375	-1.468614
F	1.386677	0.0	0.0
H	-1.537493	0.042166	-1.478212
C	-0.403509	1.281821	0.603866
N	-0.548979	2.336282	1.099748
C	-0.407326	-1.204652	0.826709
H	-0.051789	-1.058012	1.849031
H	-1.489612	-1.330768	0.806792
H	0.10175	-2.077973	0.412107
N	-0.136197	-1.420637	-1.993608
O	-1.062557	-2.224233	-2.061247
O	1.03036	-1.66878	-2.306919
C	0.292236	0.976529	-2.313973
H	0.089601	1.981318	-1.939156
H	-0.03699	0.920525	-3.352845
H	1.364251	0.789851	-2.275191
Cl	-3.48163	0.0	0.0
