18

C	0.0	0.0	0.0
C	-0.527957	0.136911	-1.433972
F	1.386394	0.0	0.0
H	-1.618252	0.029474	-1.368113
C	-0.38332	1.214213	0.754539
N	-0.556494	2.197096	1.37344
C	-0.482137	-1.24739	0.709851
H	-0.098694	-1.243299	1.732096
H	-1.574282	-1.248672	0.711304
H	-0.105474	-2.13099	0.191443
N	-0.020634	-1.04228	-2.20953
O	-0.728746	-2.048566	-2.236777
O	1.0788	-0.94114	-2.75813
C	-0.100021	1.420408	-2.116875
H	0.980299	1.555255	-2.058286
H	-0.394477	1.399746	-3.167673
H	-0.607065	2.259828	-1.639323
Cl	-3.659211	0.0	0.0
