18

C	0.0	0.0	0.0
C	-0.410323	0.071408	-1.47939
F	1.3907	0.0	0.0
H	-0.209459	-0.906061	-1.920313
C	-0.390465	1.205601	0.757058
N	-0.602281	2.124264	1.456277
C	-0.563349	-1.232825	0.671775
H	-0.270179	-2.123483	0.11212
H	-1.654269	-1.156058	0.70476
H	-0.17676	-1.302738	1.689613
N	0.543264	0.986179	-2.189261
O	0.603566	2.147646	-1.803253
O	1.174301	0.515697	-3.133956
C	-1.821522	0.542687	-1.741179
H	-2.580693	-0.111456	-1.30641
H	-1.981134	1.526354	-1.301147
H	-1.979403	0.602871	-2.821316
Cl	-4.59948	0.0	0.0
