18

C	0.0	0.0	0.0
C	-0.426636	-0.009873	-1.475905
F	1.391113	0.0	0.0
H	-0.272545	-1.021365	-1.854469
C	-0.391694	1.244058	0.691848
N	-0.608861	2.200955	1.337281
C	-0.546885	-1.202987	0.73726
H	-0.192813	-1.189422	1.769605
H	-0.201745	-2.115513	0.247444
H	-1.640829	-1.165782	0.730492
N	0.56355	0.814697	-2.251965
O	0.673923	1.999292	-1.948067
O	1.174371	0.251523	-3.160158
C	-1.814465	0.510472	-1.76353
H	-1.885996	1.559351	-1.472231
H	-2.603731	-0.018688	-1.222585
H	-2.005906	0.427524	-2.836307
Cl	-4.607064	0.0	0.0
