14
Coordinates from ORCA-job run
  C   0.82833179219243     -0.65969499096662     -0.01450505584092
  C   -0.56376922276689     -0.04529387081865     -0.37235591397743
  Cl  0.81445304350110     -2.41000147956861     -0.36139683693855
  H   -0.79504947948606     -0.41404065975667     -1.38151350762178
  C   1.09698348721502     -0.44211295938115      1.40637254273529
  N   1.27060859049354     -0.26924592558649      2.55511191423633
  C   1.86961120065128     -0.03245845743259     -0.83010846547302
  N   2.64994774246975      0.49891804550039     -1.52993108102837
  N   -0.42136173249160      1.39632911430828     -0.25828880487228
  H   0.12130199240857      1.78846739044492     -1.01983400166166
  H   -1.33817918638991      1.82580430875380     -0.26704527675080
  N   -1.53174005019697     -0.57948346974292      0.53804859622780
  H   -1.54445973680772     -0.04567363477553      1.39936656261682
  H   -2.45667844079252     -0.61251341097816      0.13507932834856
