14
Coordinates from ORCA-job run
  C   0.79651984332989     -0.62378846937091      0.31325070230226
  C   -0.62493294133365      0.02408477979009      0.25890219821876
  Cl  0.68009131380191     -2.25848448953204      1.01925855155552
  H   -1.05158845722084     -0.12374148193762      1.26093434893944
  C   1.67616388508862      0.18563633112362      1.15816691670724
  N   2.31979776092340      0.87118766172715      1.86299552017937
  C   1.33541130917436     -0.71132763740111     -1.04332165427606
  N   1.72750773460294     -0.78536507326994     -2.14802691995055
  N   -1.41327679407975     -0.71361747490021     -0.68230453152037
  H   -2.39852596559430     -0.67649658814937     -0.46539971814501
  H   -1.24992191134375     -0.37833145364478     -1.62460345628582
  N   -0.43333764311701      1.41009610540312     -0.13354640270003
  H   -1.32635195995133      1.81216973232538     -0.39090523793685
  H   -0.03655617428050      1.96797805783660      0.61459968291211
