14
Coordinates from ORCA-job run
  C   0.79740520497994     -0.65029423681614     -0.05144657326731
  C   -0.55586702772727      0.05645466331695     -0.34939525023910
  Cl  0.60981755716823     -2.43300331201457     -0.18037619285878
  H   -0.79740744959290     -0.19758727496416     -1.39221639051793
  C   1.23979911585479     -0.30776796852477      1.30044790547257
  N   1.59249351557798     -0.00192005344298      2.37822093290463
  C   1.79191224327357     -0.22190937037657     -1.03550127212567
  N   2.57418226192833      0.09411600035349     -1.85250922322357
  N   -0.30003649837060      1.46820163074798     -0.26751244721196
  H   -0.86616325902040      2.00345881708399     -0.90934241135220
  H   -0.43513553874906      1.79825341530608      0.68076343756238
  N   -1.52645981419868     -0.38231881967970      0.63316984983609
  H   -2.38312592384111      0.14363923770877      0.50923354857468
  H   -1.74141438728281     -1.36732272869838      0.53646408644618
