14
Coordinates from ORCA-job run
  C   0.79376709168557     -0.62415651669203      0.20437126919906
  C   -0.59202191982937      0.07846793133716      0.27868518637207
  Cl  0.61259193072191     -2.38895738674248      0.49207143035115
  H   -0.94543614380925     -0.07569866927738      1.30907527522046
  C   1.66758154081876     -0.07789118884216      1.24316089103410
  N   2.35001897218623      0.33520677736835      2.10511897937089
  C   1.38033112100230     -0.40822659948256     -1.11851315708820
  N   1.84803099642195     -0.20353802939322     -2.17631943131363
  N   -1.44209543935349     -0.47758295508548     -0.75479548873903
  H   -2.31287989588138      0.03899083888477     -0.77981398552578
  H   -1.65565470995852     -1.45253009793575     -0.58271346779648
  N   -0.34434829463369      1.48037013101195      0.08235055358972
  H   -0.98393221586745      2.06430466897187      0.60091687981059
  H   -0.37695303350358      1.71124109587697     -0.90359493448493
