14
Coordinates from ORCA-job run
  C   0.83087169595762     -0.67050347603990     -0.06573520465654
  C   -0.55731735685605     -0.04550678279195     -0.40245057957078
  Cl  0.78166110390368     -2.44796461555441     -0.21845947435304
  H   -0.78880575511513     -0.37917404587077     -1.41806076268092
  C   1.16579751740514     -0.30863420285271      1.31378139106200
  N   1.34690493697748      0.02904687752934      2.42481589219367
  C   1.84941573569550     -0.15560132975476     -0.98245953908314
  N   2.67167404205750      0.21231863015916     -1.73618483040719
  N   -0.35061290010525      1.38983868944705     -0.43164903029811
  H   -1.04690531783625      1.84710502623341     -1.00538515872854
  H   -0.39249634585975      1.78402775909064      0.50149887224221
  N   -1.54108772175856     -0.60538900630706      0.49273893059551
  H   -1.49515253252004     -0.16770384246632      1.40609405540477
  H   -2.47394710194589     -0.48185968082174      0.12245543828010
