14
Coordinates from ORCA-job run
  C   -0.44177811376997      0.26975728915729     -0.09373934964740
  C   0.86242693087391     -0.51588302232587     -0.07610765292584
  F   -0.39492663862553      1.11505858978051     -1.19504484259924
  H   0.91109346846098     -1.16337537740307     -0.94978570840270
  H   0.96417070492917     -1.08780192348190      0.84724933562553
  C   -0.62137915971565      1.09780511331082      1.11176635783847
  N   -0.86858973620177      1.72255356084097      2.07439590966886
  C   -1.62849975572889     -0.66402105566957     -0.25633927495125
  H   -1.70257017265356     -1.35074654888724      0.58875365785853
  H   -1.51553597699133     -1.23242258962118     -1.18121419361143
  H   -2.54456936480433     -0.07535028918739     -0.31273260385665
  N   2.03703476534986      0.40122315286035     -0.16587317541689
  O   2.76441518250665      0.28099483204831     -1.14689844197641
  O   2.17970786637046      1.20020826857797      0.75456998239642
