14
Coordinates from ORCA-job run
  C   -0.43453946600705      0.28293604710061     -0.12027991701596
  C   0.85559321652696     -0.51707085462015     -0.01179001614678
  F   -0.30293101902960      1.12579901456281     -1.21670435513709
  H   0.89581051288472     -1.07665940820082      0.92440933023613
  H   0.94907236408773     -1.18369664101046     -0.86726119786551
  C   -0.69288037852533      1.10876815713104      1.07202005929668
  N   -0.99242986653077      1.70335502575570      2.03881131410338
  C   -1.61570547980252     -0.64025188911459     -0.36694636721668
  H   -2.52109161769101     -0.04364251158485     -0.48188352546005
  H   -1.75223292261931     -1.32981817678014      0.46806527156656
  H   -1.44557755929834     -1.20594888387765     -1.28466288026817
  N   2.05410193891919      0.37508086256482     -0.04615387268253
  O   2.08428333285839      1.29109405904203      0.76870954955098
  O   2.91752694422695      0.10905519903164     -0.87633339296094
