13
Coordinates from ORCA-job run
  C   -0.57455968511657      0.42613435108749     -0.13911575698817
  C   0.84875135822909     -0.11614197561510     -0.31163352046723
  H   -1.22224472915931     -0.08629100784599     -0.87079272212038
  H   1.21768518022137      0.13513129589639     -1.31375568123544
  H   1.47668865882843      0.39297424582676      0.42289044685230
  C   -0.60345020857837      1.85675816226472     -0.47173243011179
  N   -0.61689840822186      2.99464172593061     -0.75857892551283
  N   -0.97352997010549      0.22265862085729      1.24567402784641
  H   -1.96266946713262      0.40528088859027      1.36209245923094
  H   -0.79524998832022     -0.75469968571941      1.45178531052448
  N   0.83481321909956     -1.54787924720431     -0.01796830448888
  H   1.73506249842534     -1.84852509929901      0.32937831279612
  H   0.63660154183065     -2.07904227476972     -0.85624321632554
