13
Coordinates from ORCA-job run
  C   -0.57380341144593      0.36146639960344     -0.25871885972552
  C   0.88700546640701     -0.11101390364738     -0.25945580537433
  H   -1.03861730860828      0.05970858533716     -1.20643536723797
  H   1.42177646906307      0.41523178873277      0.53770333103320
  H   1.33477883422213      0.20168520720781     -1.21429021173977
  C   -0.57391855592771      1.83758391913963     -0.23184671595445
  N   -0.58951988779856      3.01080499137573     -0.17897815352547
  N   -1.32156965595692     -0.24668355445071      0.83296417281101
  H   -2.10010793097510      0.33409160168517      1.11423971592647
  H   -0.71535099344273     -0.41265811498814      1.62511747380167
  N   0.95506637049526     -1.53898008971289      0.01985401138433
  H   0.40000469208522     -2.05603343736021     -0.65113041841176
  H   1.91325591188253     -1.85620339292238     -0.05702317298741
