13
Coordinates from ORCA-job run
  C   -0.66323999585894      0.34679988171208     -0.23609608561463
  C   0.81762996942812     -0.07298670202580     -0.25567938758813
  H   -1.18109492261519     -0.20817755172086     -1.02877534602770
  H   1.27603207471852      0.22392511058560     -1.20921520723615
  H   1.33187131639164      0.46990436755853      0.54276572052267
  C   -0.77230856575234      1.77337793959946     -0.56291399915505
  N   -0.80135517715508      2.92008144478187     -0.81044027443337
  N   -1.35352088021411      0.06493330532427      1.01607672721353
  H   -0.98081159955908      0.66458873775233      1.74480112134440
  H   -1.11666208405986     -0.89186929298509      1.26083324258951
  N   0.88631959807521     -1.50493462153200      0.02559969508864
  H   0.77107737069438     -2.03509330755315     -0.82911005395394
  H   1.78706289590673     -1.74954931149725      0.41415384725023
