13
Coordinates from ORCA-job run
  C   -0.63716581985877      0.21856384562626     -0.03362941963395
  C   0.58634793469099     -0.69091480022511      0.10424114327089
  H   -1.13128014546034     -0.04196659939595     -0.98058914768677
  H   0.22239523988994     -1.72109365441073      0.17513937362473
  H   1.07838970136105     -0.44453767114842      1.05446552998914
  C   -0.18012628262369      1.60926106484046     -0.15784433655245
  N   0.21616459191315      2.70866679299363     -0.26523948578910
  N   -1.48131650844602      0.09456092117117      1.15367011621943
  H   -2.25589012440715      0.74540982550711      1.10284934591292
  H   -1.87124687357177     -0.84062859858908      1.17892159299341
  N   1.41889392348863     -0.57541840666195     -1.08609051177235
  H   2.07622638419313     -1.34311770604690     -1.12766890280220
  H   1.95860797883085      0.28121498633952     -1.04722529777369
