12

C	-0.109467	0.025186	0.002434
C	-0.520991	0.098242	-1.452901
Br	1.805676	-0.292037	0.204635
H	-0.047454	0.953595	-1.936857
H	-0.659046	-0.735934	0.550718
H	-1.610792	0.219815	-1.439567
N	-0.394986	1.329879	0.701422
O	-0.528693	2.332841	0.005754
O	-0.427914	1.291179	1.923136
C	-0.182022	-1.124661	-2.170847
N	0.089096	-2.08973	-2.781095
Cl	-3.207036	-0.519829	0.273422
