12

C	-0.109802	0.028228	0.000641
C	-0.524081	0.038661	-1.455701
Br	1.80604	-0.278389	0.212592
H	-1.614018	0.159472	-1.445343
H	-0.657623	-0.709246	0.58201
H	-0.052491	0.873148	-1.976582
N	-0.395346	1.361309	0.643819
O	-0.426076	1.374723	1.866134
O	-0.531218	2.333568	-0.093749
C	-0.185112	-1.213413	-2.121467
N	0.085216	-2.203652	-2.690343
Cl	-3.206491	-0.50737	0.300357
