12

C	-0.110841	0.028818	-0.000131
C	-0.527631	-0.008716	-1.455326
Br	1.805757	-0.268124	0.218335
H	-0.058369	0.809235	-2.003811
H	-0.656672	-0.690055	0.605884
H	-1.617756	0.110589	-1.447069
N	-0.397186	1.381747	0.599818
O	-0.535563	2.329331	-0.168744
O	-0.425971	1.434851	1.821102
C	-0.187684	-1.281196	-2.080671
N	0.082824	-2.289254	-2.617251
Cl	-3.206372	-0.500306	0.322366
