17
Coordinates from ORCA-job run
  C   0.53296604387126      0.24409236834955      0.21072423883090
  C   -0.82521851705747      0.08075069067554     -0.50556776188020
  F   0.30809393746340      0.95533366424961      1.38284220953941
  H   -0.64013095904575     -0.27449031386556     -1.52056042121840
  N   1.30828878285890      1.13105908909131     -0.63662905480803
  H   1.74189010904065      0.60217947351858     -1.38516631454426
  H   2.04820133191100      1.54117723316910     -0.07727619116916
  C   1.21013626921134     -1.05495240418763      0.59405096395600
  H   1.33938653007673     -1.69848436825253     -0.27867460733263
  H   0.62311980390612     -1.59526089473997      1.33793901672048
  H   2.18970575894544     -0.83094709037572      1.02148434766803
  N   -1.64920965333528      1.25138618417079     -0.53048669396232
  H   -1.76109800893710      1.58670199894853      0.41947800809606
  H   -1.15127814668301      1.96195898357005     -1.05387262145963
  N   -1.58636415375634     -1.02274068044808      0.16332656296029
  O   -2.19645083464069     -0.73197296890822      1.18785025502702
  O   -1.49403829382919     -2.14579096496534     -0.32946193642355
