17
Coordinates from ORCA-job run
  C   0.68597547561220      0.19995112493250      0.00874239206958
  C   -0.84127095553918      0.33061440771698     -0.03252525129100
  F   1.16213534606649      1.22723951503739     -0.84077619282354
  H   -1.13590818077281      1.30361109804446      0.36175840470907
  N   1.09081134394971     -1.08181104069832     -0.43778211952990
  H   2.08719080356724     -1.20725904696880     -0.31942690093199
  H   0.83406034208482     -1.23666835521893     -1.40470129129821
  C   1.21257356078051      0.48833705155308      1.39589407407616
  H   0.93377773559853      1.49913797976574      1.69558984949946
  H   0.80924354579038     -0.22851422825945      2.10849661473528
  H   2.30352430733481      0.42628795772244      1.38736867501574
  N   -1.44974397114717     -0.73111103276683      0.67466863339826
  H   -2.45892260284828     -0.67884234022324      0.66505193077890
  H   -1.12569518708827     -1.62348388337987      0.32571752801962
  N   -1.26144065856755      0.42060046619946     -1.50509194130385
  O   -1.67346264105753      1.50204130880534     -1.91044319391343
  O   -1.17384826376389     -0.61113098226195     -2.17254121121014
