17
Coordinates from ORCA-job run
  C   0.74758289447672      0.31940707182378      0.03582894217900
  C   -0.71784214968529      0.51385017626086     -0.39869942231609
  F   1.21230443248151      1.64170764788581      0.22717161651055
  H   -0.73858292921263      1.27341387599196     -1.18140109079045
  N   1.46284723182897     -0.34268062057764     -0.98989772821760
  H   2.43500182189280     -0.45791011260453     -0.73659364153507
  H   1.39947271068677      0.14339285191203     -1.87588033732565
  C   0.90722390369489     -0.39497336073155      1.35717418991923
  H   0.44604984402671      0.19141303678232      2.15033921248489
  H   1.97124551854448     -0.49260448665702      1.58371404631827
  H   0.46212671300814     -1.38895980325452      1.31159413230069
  N   -1.55990054369679      0.88592363944248      0.68100860793527
  H   -1.73100363949213      0.09356246094136      1.28736166719002
  H   -2.44648320438250      1.23934461555669      0.34669502258239
  N   -1.17184882177366     -0.76347124174548     -1.09825658446183
  O   -1.56238729478292     -1.67924419070111     -0.37723828864961
  O   -1.11580648761508     -0.78417156032546     -2.32392034412402
