12

C	0.0	0.0	0.0
C	-0.222247	-0.112724	-1.53446
Cl	1.85111	0.0	0.0
H	0.291287	-1.000163	-1.924582
H	-1.292464	-0.193951	-1.749871
H	0.200069	0.767403	-2.025453
C	-0.974782	1.010174	0.555358
N	-0.958745	2.071002	1.107984
N	-0.336627	-1.307253	0.601586
H	0.361824	-1.968829	0.311504
H	-0.21864	-1.218383	1.606788
H	-2.050191	0.0	0.0
