14
Coordinates from ORCA-job run
  C   1.37765928747120     -0.20641291526837      0.25445514955868
  C   0.00814947493745     -0.06662798724482     -0.39015489242567
  Cl  2.09631419445622     -1.82366506470009     -0.01242478388180
  H   0.11537142700460     -0.31915219475672     -1.45176254600941
  H   2.07994638113091      0.51669735492278     -0.16200854184618
  H   1.31296956878684     -0.06037516570419      1.33499688404997
  C   -0.43992083067096      1.39019190472681     -0.27604058239814
  H   -1.41365144174482      1.53066065091791     -0.75146004096797
  H   0.26885663049087      2.06984371343804     -0.75674338383156
  H   -0.53695279171951      1.68676520060567      0.77307332770301
  C   -1.01752147151629     -1.00425475344280      0.23696465037690
  H   -0.71930492574549     -2.04940539561984      0.14389432014237
  H   -1.14082235635211     -0.77844268026788      1.30129029234086
  H   -1.99109314652890     -0.88582266760648     -0.24507985281107
