14
Coordinates from ORCA-job run
  C   1.40817883909048     -0.35274204482564      0.04285850414135
  C   -0.01364738947388     -0.06482230813847     -0.41634790080993
  Cl  1.63090347908379     -0.12072475942707      1.80548095559718
  H   0.00814754103186     -0.24805722753589     -1.50035641430959
  H   2.11694040049997      0.31433764334786     -0.45021404453741
  H   1.68239622697996     -1.38684429854640     -0.17137623073443
  C   -0.40836884554669      1.39154737249903     -0.19187239408354
  H   -0.46441888888378      1.62072441522685      0.87425423511535
  H   0.31384218921215      2.07508543727053     -0.64718127871046
  H   -1.38765017178158      1.59390011934692     -0.63255022499804
  C   -1.02526047816533     -1.02349590658696      0.20396379850110
  H   -0.74401429758696     -2.06623447220426      0.03158120924240
  H   -2.01597514048516     -0.86588653449962     -0.22937249819151
  H   -1.10007346397482     -0.86778743592688      1.28213228377755
