12

C	-0.590026	0.058429	-1.400372
C	0.0	0.0	0.0
Br	0.251319	1.476547	-2.475915
H	1.094024	0.0	0.0
H	-1.640014	0.353928	-1.362958
H	-0.369367	-0.928484	0.456228
C	-0.469311	-1.199179	-2.129019
N	-0.386386	-2.233139	-2.681393
N	-0.472731	1.18642	0.744399
H	-0.886817	0.893204	1.619844
H	0.368082	1.70248	0.984781
F	2.654917	0.0	0.0
