12

C	-0.362071	0.03537	-1.458654
C	0.0	0.0	0.0
Br	-2.306393	-0.31829	-1.810817
H	1.095372	0.0	0.0
H	0.154873	-0.763312	-1.991973
H	-0.340169	-0.959191	0.41253
C	-0.059208	1.311768	-2.093844
N	0.176353	2.318927	-2.648899
N	-0.500265	1.169689	0.70856
H	-1.286468	0.944343	1.302919
H	0.2548	1.519423	1.28366
F	2.628481	0.0	0.0
