12

C	-0.509916	-0.01213	-1.439418
C	0.0	0.0	0.0
Br	0.293369	1.434266	-2.510429
H	1.092649	0.0	0.0
H	-1.584109	0.195847	-1.498611
H	-0.385791	-0.916874	0.467565
C	-0.269959	-1.279522	-2.120011
N	-0.124977	-2.32787	-2.629969
N	-0.424934	1.176263	0.747248
H	-1.303295	1.560639	0.412689
H	0.297351	1.87791	0.634127
F	2.643704	0.0	0.0
