17

C	-0.56571	0.00171	-1.409475
C	0.0	0.0	0.0
F	-0.301705	-1.168008	-2.061646
H	1.094102	0.0	0.0
C	-2.024243	0.212362	-1.41622
N	-3.19727	0.262032	-1.366388
N	0.065213	1.112522	-2.249557
O	1.080764	0.81441	-2.858567
O	-0.49152	2.204949	-2.223831
C	-0.450162	-1.245804	0.745058
H	-1.531264	-1.248555	0.935128
H	0.080335	-1.263219	1.700714
H	-0.181917	-2.153328	0.201595
N	-0.395839	1.249139	0.634268
H	0.435066	1.65471	1.053756
H	-1.089126	1.098231	1.355938
H	2.771499	0.0	0.0
