17

C	-0.572011	0.009849	-1.39539
C	0.0	0.0	0.0
F	-1.949046	0.003788	-1.378948
H	1.09356	0.0	0.0
C	-0.143029	1.163582	-2.195482
N	0.124943	2.084149	-2.872716
N	-0.154421	-1.251837	-2.150666
O	0.935669	-1.217135	-2.705145
O	-0.922706	-2.20633	-2.093326
C	-0.448498	-1.210662	0.802749
H	-1.536686	-1.255268	0.91822
H	-0.10518	-2.146904	0.357764
H	0.01836	-1.131377	1.78816
N	-0.378303	1.283139	0.589436
H	-1.119082	1.172124	1.269862
H	0.448051	1.650418	1.052714
H	2.762223	0.0	0.0
