17

C	-0.43581	0.027954	-1.468872
C	0.0	0.0	0.0
F	-0.150816	-1.143212	-2.100469
H	1.097373	0.0	0.0
C	-1.87791	0.299834	-1.624272
N	-3.041007	0.463427	-1.678809
N	0.301585	1.13033	-2.238341
O	-0.03255	2.276263	-1.955988
O	1.145807	0.789659	-3.047085
C	-0.514801	-1.269656	0.655054
H	-1.608754	-1.274858	0.738302
H	-0.091846	-1.296517	1.660212
H	-0.187532	-2.160764	0.117457
N	-0.402895	1.169403	0.754264
H	-1.336922	1.48389	0.529708
H	0.250465	1.919875	0.577381
H	2.796031	0.0	0.0
