17

C	-0.429477	-0.01786	-1.453963
C	0.0	0.0	0.0
F	0.187489	0.967978	-2.146803
H	1.096714	0.0	0.0
C	-0.206482	-1.301374	-2.13775
N	-0.045891	-2.321019	-2.697011
N	-1.934327	0.263186	-1.566385
O	-2.286726	1.350553	-1.995963
O	-2.669194	-0.633608	-1.154291
C	-0.455396	-1.197183	0.809981
H	-0.197224	-2.140459	0.32293
H	-1.532916	-1.188086	0.998563
H	0.082356	-1.163353	1.761047
N	-0.42092	1.283406	0.554906
H	-1.001102	1.143238	1.371717
H	0.420397	1.774049	0.841814
H	2.75384	0.0	0.0
