17

C	-0.427012	-0.029223	-1.453742
C	0.0	0.0	0.0
F	0.186754	0.955802	-2.151372
H	1.097928	0.0	0.0
C	-0.199273	-1.314121	-2.133063
N	-0.045559	-2.337351	-2.688735
N	-1.933007	0.245022	-1.571028
O	-2.289043	1.319293	-2.031368
O	-2.665804	-0.643278	-1.137758
C	-0.454802	-1.190337	0.820264
H	-0.194768	-2.136714	0.34085
H	-1.532244	-1.181741	1.00827
H	0.082573	-1.148506	1.771186
N	-0.424398	1.287622	0.542668
H	0.417461	1.785919	0.816714
H	-0.992839	1.152131	1.368648
H	2.752997	0.0	0.0
