17

C	-0.450213	-0.010985	-1.463666
C	0.0	0.0	0.0
F	-0.106932	-1.169675	-2.087523
H	1.094656	0.0	0.0
C	-1.90794	0.177895	-1.602135
N	-3.079765	0.271387	-1.635961
N	0.213086	1.129158	-2.244488
O	1.104583	0.839055	-3.024023
O	-0.213768	2.253998	-1.987845
C	-0.50856	-1.25432	0.691591
H	-0.054362	-1.270024	1.684472
H	-1.599498	-1.245076	0.807565
H	-0.206231	-2.158249	0.159026
N	-0.39284	1.192433	0.726499
H	-1.283888	1.574822	0.431538
H	0.327468	1.896059	0.603406
H	2.788351	0.0	0.0
