17

C	-0.451824	-0.008399	-1.473214
C	0.0	0.0	0.0
Cl	0.267489	-1.393231	-2.366968
H	1.096481	0.0	0.0
C	-1.914828	-0.132289	-1.566082
N	-3.085884	-0.230174	-1.59298
C	-0.059262	1.220294	-2.173801
N	0.239904	2.196585	-2.75512
C	-0.488231	-1.241109	0.736628
H	-1.580128	-1.26508	0.824824
H	-0.060242	-1.230288	1.741311
H	-0.149047	-2.156683	0.250734
C	-0.486339	1.27456	0.684654
H	-0.085353	2.168812	0.203041
H	-0.119758	1.27131	1.713624
H	-1.580435	1.339735	0.710092
Cl	3.380344	0.0	0.0
