17

C	-0.449429	-0.009317	-1.474483
C	0.0	0.0	0.0
Cl	0.271517	1.36501	-2.380895
H	1.096479	0.0	0.0
C	-0.054625	-1.24632	-2.159809
N	0.242553	-2.227557	-2.734408
C	-1.91209	0.113023	-1.571096
N	-3.083281	0.209306	-1.593936
C	-0.487519	-1.266757	0.69785
H	-0.119724	-1.253538	1.726202
H	-0.088367	-2.166467	0.224984
H	-1.581573	-1.329798	0.725111
C	-0.488904	1.249882	0.720334
H	-0.069894	1.247244	1.729201
H	-0.141506	2.159195	0.228473
H	-1.581626	1.279309	0.799212
Cl	3.385101	0.0	0.0
