17

C	-0.449451	-0.009999	-1.474431
C	0.0	0.0	0.0
Cl	0.271845	1.363721	-2.381467
H	1.096473	0.0	0.0
C	-0.054954	-1.247456	-2.159087
N	0.240206	-2.229124	-2.733972
C	-1.912073	0.112553	-1.571086
N	-3.083301	0.208286	-1.593859
C	-0.487496	-1.266489	0.698353
H	-0.119861	-1.252749	1.726751
H	-0.088169	-2.166361	0.225948
H	-1.581546	-1.329641	0.725488
C	-0.488935	1.250271	0.719631
H	-0.142106	2.159336	0.226915
H	-1.581602	1.279376	0.799043
H	-0.069371	1.248527	1.728252
Cl	3.385089	0.0	0.0
