17

C	-0.40242	-0.004091	-1.479527
C	0.0	0.0	0.0
Cl	-2.222309	-0.00742	-1.676035
H	1.098329	0.0	0.0
C	0.073965	1.18992	-2.183621
N	0.443298	2.140328	-2.76742
C	0.07837	-1.200524	-2.176568
N	0.453435	-2.153097	-2.753203
C	-0.463669	-1.263792	0.711465
H	-0.091246	-2.162423	0.214117
H	-1.554032	-1.32061	0.784595
H	-0.046438	-1.259103	1.721033
C	-0.465576	1.266167	0.705745
H	-0.049728	1.265799	1.715802
H	-0.093422	2.163265	0.205459
H	-1.556074	1.322159	0.777225
Cl	3.339596	0.0	0.0
