15

C	0.0	0.0	0.0
C	-0.522801	-0.034266	-1.41893
F	1.402982	0.0	0.0
H	-1.610591	-0.168384	-1.31495
H	-0.301957	-0.929206	0.494817
H	-0.103465	-0.91987	-1.912987
C	-0.509966	1.167104	0.807705
H	-0.152787	1.098055	1.839742
H	-1.606928	1.11028	0.785544
H	-0.168444	2.116791	0.387892
C	-0.205735	1.216861	-2.232361
H	-0.782354	2.071881	-1.873199
H	0.858572	1.467689	-2.182177
H	-0.468966	1.067953	-3.283972
H	-3.465788	0.0	0.0
