14

C	-0.526628	0.082313	-1.415412
C	0.0	0.0	0.0
Br	-0.153715	-1.593575	-2.375936
H	1.088676	0.0	0.0
H	-1.614024	0.156723	-1.44061
H	-0.341906	0.894076	0.536396
C	0.166488	1.231131	-2.126575
H	-0.112711	2.172992	-1.64152
H	1.248731	1.107671	-2.037202
H	-0.123342	1.281328	-3.178067
N	-0.602747	-1.137005	0.745654
O	0.12189	-1.836264	1.444698
O	-1.825282	-1.284185	0.641085
H	2.918981	0.0	0.0
