14

C	-0.389411	-0.055636	-1.443523
C	0.0	0.0	0.0
Br	-2.36767	-0.163957	-1.681655
H	1.094027	0.0	0.0
H	-0.123831	0.884454	-1.923521
H	-0.366499	-0.843397	0.583375
C	0.276512	-1.237088	-2.116669
H	0.073495	-1.251281	-3.189536
H	-0.071096	-2.177528	-1.683692
H	1.35413	-1.142693	-1.931646
N	-0.440203	1.218849	0.675382
O	-0.426085	2.276293	0.036082
O	-0.718115	1.13924	1.875971
H	2.685027	0.0	0.0
