14

C	-0.378536	-0.028018	-1.454308
C	0.0	0.0	0.0
Br	-2.355821	-0.001995	-1.719197
H	1.092557	0.0	0.0
H	-0.068456	0.944527	-1.843852
H	-0.362029	0.894429	0.503536
C	0.254018	-1.121497	-2.288562
H	0.111423	-0.918003	-3.352983
H	-0.155672	-2.097838	-2.0448
H	1.323199	-1.115254	-2.04539
N	-0.453558	-1.131029	0.804346
O	-0.412082	-2.264801	0.315415
O	-0.77704	-0.899358	1.975451
H	2.685107	0.0	0.0
