14

C	-0.38461	-0.01307	-1.446173
C	0.0	0.0	0.0
Br	-2.36019	-0.128689	-1.696466
H	1.094022	0.0	0.0
H	-0.126024	0.944565	-1.894503
H	-0.365434	-0.861779	0.556734
C	0.295803	-1.164649	-2.152727
H	0.09953	-1.146252	-3.226724
H	-0.044107	-2.122666	-1.751773
H	1.371192	-1.065818	-1.958376
N	-0.445117	1.196824	0.709992
O	-0.734362	1.079914	1.905747
O	-0.426365	2.273034	0.104064
H	2.685948	0.0	0.0
