14

C	-0.478175	-0.007842	-1.437135
C	0.0	0.0	0.0
Br	-0.034378	1.753087	-2.194084
H	1.090097	0.0	0.0
H	0.127453	-0.712009	-2.007126
H	-0.379472	0.838556	0.581909
C	-1.961683	-0.25292	-1.634525
H	-2.207542	-1.249537	-1.264493
H	-2.547419	0.488367	-1.087489
H	-2.230936	-0.194644	-2.692134
N	-0.377786	-1.22118	0.682787
O	-0.353948	-2.278871	0.030043
O	-0.57094	-1.173733	1.905038
H	2.603365	0.0	0.0
