14

C	-0.378755	-0.00688	-1.454515
C	0.0	0.0	0.0
Br	-2.356426	0.017615	-1.718163
H	1.092573	0.0	0.0
H	-0.070815	0.972137	-1.829576
H	-0.362788	0.886135	0.517071
C	0.255693	-1.086371	-2.305401
H	0.113095	-0.866704	-3.366644
H	-0.152214	-2.067452	-2.076895
H	1.324697	-1.081643	-2.061741
N	-0.451409	-1.143741	0.787152
O	-0.405058	-2.270348	0.282176
O	-0.776866	-0.929697	1.961072
H	2.684335	0.0	0.0
