14

C	-0.470647	-0.018752	-1.412349
C	0.0	0.0	0.0
F	-0.256834	1.176004	-2.054356
H	1.092768	0.0	0.0
H	-0.392045	0.904214	0.475117
C	0.123819	-1.107632	-2.200336
N	0.603974	-1.969254	-2.836106
N	-2.007865	-0.190968	-1.496427
O	-2.473554	-0.765692	-2.476866
O	-2.663046	0.336476	-0.60383
N	-0.451532	-1.255699	0.604413
H	0.346565	-1.660676	1.077245
H	-1.190891	-1.100815	1.275829
F	2.601193	0.0	0.0
