14

C	-0.483284	0.066899	-1.426398
C	0.0	0.0	0.0
F	0.073754	-0.898133	-2.19559
H	1.094264	0.0	0.0
H	-0.38542	0.876747	0.526982
C	-1.951215	-0.025262	-1.559989
N	-3.121576	-0.07202	-1.649389
N	-0.095199	1.418667	-2.03211
O	-0.613021	2.393122	-1.495595
O	0.673673	1.42752	-2.979553
N	-0.469274	-1.272504	0.557818
H	-1.046977	-1.11961	1.372675
H	0.360249	-1.773987	0.851633
F	2.605596	0.0	0.0
