14

C	-0.465241	0.022121	-1.435474
C	0.0	0.0	0.0
F	0.032137	-1.024186	-2.138115
H	1.099779	0.0	0.0
H	-0.378584	0.902007	0.487541
C	-1.933135	0.02794	-1.590691
N	-3.104673	0.03779	-1.675339
N	0.03487	1.303584	-2.104753
O	-0.399924	2.343593	-1.620823
O	0.806825	1.199628	-3.042606
N	-0.49739	-1.239695	0.603174
H	0.319543	-1.773743	0.869549
H	-1.020298	-1.043887	1.440894
F	2.606696	0.0	0.0
