14

C	-0.464205	0.023739	-1.43518
C	0.0	0.0	0.0
F	0.059902	-0.998403	-2.152044
H	1.099787	0.0	0.0
H	-0.379754	0.900762	0.489782
C	-1.93245	-0.009812	-1.587539
N	-3.104425	-0.03666	-1.664792
N	-0.003202	1.327992	-2.089722
O	-0.477326	2.348446	-1.599264
O	0.778992	1.259516	-3.023432
N	-0.485533	-1.244788	0.599272
H	0.333477	-1.742118	0.926411
H	-1.079178	-1.058501	1.395085
F	2.605035	0.0	0.0
