14

C	-0.512113	-0.031122	-1.406202
C	0.0	0.0	0.0
F	-0.144561	-1.180112	-2.052225
H	1.098418	0.0	0.0
H	-0.357133	-0.925055	0.4682
C	-1.980209	0.096602	-1.50769
N	-3.153849	0.12993	-1.533929
N	0.064667	1.109607	-2.261567
O	0.81096	1.919912	-1.736476
O	-0.276826	1.083939	-3.443812
N	-0.531661	1.206765	0.64563
H	0.273057	1.759062	0.914262
H	-1.038272	0.966912	1.48645
F	2.610332	0.0	0.0
