14

C	-0.562149	0.035994	-1.389809
C	0.0	0.0	0.0
F	-1.914805	0.308597	-1.4135
H	1.090335	0.0	0.0
H	-0.330818	0.937075	0.471405
C	0.10048	1.015093	-2.264011
N	0.550283	1.833864	-2.974613
N	-0.396468	-1.338501	-2.041386
O	-1.405554	-2.004573	-2.219934
O	0.754877	-1.651002	-2.306881
N	-0.456232	-1.209046	0.678547
H	0.341979	-1.567435	1.187258
H	-1.205773	-1.027802	1.330837
F	2.591896	0.0	0.0
