14

C	-0.461763	-0.013757	-1.428874
C	0.0	0.0	0.0
F	0.102541	0.970524	-2.166665
H	1.098782	0.0	0.0
H	-0.372613	-0.907343	0.484256
C	-0.256946	-1.309227	-2.09907
N	-0.110251	-2.340778	-2.641386
N	-1.984144	0.237349	-1.486617
O	-2.390617	1.227536	-2.073425
O	-2.668543	-0.590598	-0.892925
N	-0.479348	1.236548	0.621964
H	-1.090205	1.034256	1.40067
H	0.340108	1.712759	0.979036
F	2.603379	0.0	0.0
