14

C	-0.486217	0.24722	-1.38981
C	0.0	0.0	0.0
F	-0.257261	1.537857	-1.796217
H	1.100701	0.0	0.0
H	-0.386107	0.809768	0.627894
C	0.083162	-0.678963	-2.377763
N	0.560072	-1.380897	-3.188603
N	-2.023947	0.106188	-1.459019
O	-2.643663	0.748577	-0.61729
O	-2.525374	-0.589204	-2.337122
N	-0.469562	-1.335488	0.378186
H	-1.161096	-1.29372	1.11343
H	0.335281	-1.850796	0.713603
F	2.601699	0.0	0.0
