14

C	-0.499983	0.08283	-1.408312
C	0.0	0.0	0.0
F	-1.880145	0.032629	-1.495795
H	1.093564	0.0	0.0
H	-0.380994	-0.941905	0.41286
C	-0.060358	1.291123	-2.116594
N	0.220904	2.27803	-2.684079
N	-0.008026	-1.142099	-2.173213
O	0.918682	-1.003074	-2.959987
O	-0.582652	-2.19087	-1.900084
N	-0.443374	1.198119	0.708258
H	0.345374	1.524644	1.252593
H	-1.217481	1.00747	1.329209
F	2.594926	0.0	0.0
