14

C	-0.467639	-0.079928	-1.432753
C	0.0	0.0	0.0
F	0.030291	-1.167754	-2.067746
H	1.096323	0.0	0.0
H	-0.371985	0.938791	0.419708
C	-1.936596	-0.089452	-1.574367
N	-3.110221	-0.088764	-1.630258
N	0.021816	1.156385	-2.190858
O	-0.414349	2.224979	-1.772729
O	0.78708	0.993852	-3.127775
N	-0.490881	-1.191681	0.692262
H	0.320783	-1.658834	1.078454
H	-1.110118	-0.944164	1.452029
F	2.606582	0.0	0.0
