14

C	-0.322096	0.036822	-1.492312
C	0.0	0.0	0.0
F	-0.148886	-1.192986	-2.04722
H	1.094765	0.0	0.0
H	-0.419402	-0.944846	0.361028
C	-1.683547	0.506032	-1.81157
N	-2.79763	0.840762	-1.982224
N	0.63519	0.99557	-2.203257
O	0.50254	2.1732	-1.886323
O	1.423573	0.532373	-3.008449
N	-0.459453	1.129183	0.77899
H	-1.375129	1.465254	0.505112
H	0.208433	1.878469	0.663992
F	2.589879	0.0	0.0
