14

C	-0.549827	0.017127	-1.394161
C	0.0	0.0	0.0
F	-1.919702	0.175597	-1.427742
H	1.092221	0.0	0.0
H	-0.340783	0.938086	0.46352
C	0.037133	1.072041	-2.233246
N	0.412205	1.967583	-2.89386
N	-0.261357	-1.320396	-2.076699
O	0.9054	-1.502587	-2.391274
O	-1.197804	-2.091103	-2.227761
N	-0.441774	-1.210713	0.680082
H	-1.233515	-1.050729	1.286406
H	0.340074	-1.532663	1.23303
F	2.589711	0.0	0.0
