14

C	-0.530368	0.027142	-1.396771
C	0.0	0.0	0.0
F	-1.904926	-0.167968	-1.453426
H	1.101824	0.0	0.0
H	-0.354959	-0.940353	0.439922
C	-0.245598	1.27259	-2.118236
N	-0.095956	2.2825	-2.697435
N	0.056168	-1.146839	-2.172519
O	0.826871	-0.915376	-3.097109
O	-0.299583	-2.253009	-1.781369
N	-0.45221	1.202665	0.695908
H	0.340148	1.550684	1.220815
H	-1.207231	1.005852	1.336764
F	2.59456	0.0	0.0
