14

C	-0.463716	0.002931	-1.428128
C	0.0	0.0	0.0
F	0.102213	0.996056	-2.154151
H	1.098578	0.0	0.0
H	-0.372669	-0.912289	0.474224
C	-0.254606	-1.285041	-2.111605
N	-0.102279	-2.310592	-2.663396
N	-1.985525	0.254314	-1.483491
O	-2.392683	1.251027	-2.059839
O	-2.670582	-0.580608	-0.898489
N	-0.47721	1.229302	0.63785
H	-1.075856	1.016519	1.422917
H	0.34392	1.704062	0.990733
F	2.603124	0.0	0.0
