17
Coordinates from ORCA-job run
  C   0.72040742840806     -0.00967076451234      0.80514927592482
  C   -0.52900827518108     -0.39987069214859      0.00661370619716
  Cl  0.55565004406386     -0.40955444590362      2.52364682447329
  H   -0.70201902658529     -1.45371378412267      0.25050875819447
  N   1.89197530827385     -0.83864506603814      0.25084902032730
  O   2.77251737040135     -0.22884828133825     -0.34230557336026
  O   1.79570862907021     -2.04734551522174      0.39457065740677
  C   1.04133447037514      1.40526187548564      0.66594455407748
  N   1.21180669134558      2.56282299692568      0.55185785531120
  C   -0.26243318098807     -0.26219267146886     -1.49242747394800
  H   0.51350650285264     -0.94560971093855     -1.84176656665278
  H   -1.17674657869368     -0.49802076992337     -2.04063901246446
  H   0.02981636962228      0.75869320816656     -1.75261748556326
  C   -1.73183522161703      0.43584360000663      0.43277001690233
  H   -1.58805916168763      1.48817360775141      0.17468604739564
  H   -1.92461642422700      0.36307871172391      1.50359895766559
  H   -2.62000494543319      0.07959770155630     -0.09343956188729
