17
Coordinates from ORCA-job run
  C   0.74170917067067      0.03931678681726      0.71505008255412
  C   -0.37806571742288      0.19598473981312     -0.32947201671460
  Cl  0.48887917872461     -1.32996343066528      1.79391071391463
  H   -0.10269518755443      1.10159322686835     -0.88262383327045
  N   2.05654492787298     -0.15610287188016     -0.07894503196579
  O   2.56462283323166     -1.26254096578330     -0.11394203232563
  O   2.42106880523406      0.85190648686245     -0.67136998354346
  C   0.90232923528545      1.25426626421798      1.50681169077358
  N   0.98147619159780      2.23865757633531      2.14424035027548
  C   -1.72548726111534      0.42497279271568      0.34825162457727
  H   -2.47033348837554      0.66899749188976     -0.41233382361019
  H   -2.06050057031957     -0.47077711525567      0.87396289016313
  H   -1.68989556497740      1.25366744012012      1.05898576180877
  C   -0.41464853248417     -0.98207950040344     -1.29785633624160
  H   -0.58520805425727     -1.92391046982364     -0.77276978980647
  H   -1.23463421445237     -0.83487438692252     -2.00388214263436
  H   0.50583824834173     -1.07111406490603     -1.87801812395443
