17
Coordinates from ORCA-job run
  C   0.73765808887813      0.11339999441247      0.78180725145565
  C   -0.51643771539242     -0.40861461131285      0.07083951644823
  Cl  0.61914586914218     -0.06365296626296      2.54105653001088
  H   -0.65399180757275     -1.42622118774223      0.45225340007690
  N   1.92005984945020     -0.75190997310443      0.31143984664377
  O   1.85992854106945     -1.93352765439393      0.61280213165064
  O   2.77072436943107     -0.20316467774503     -0.37712825806410
  C   1.01704976892453      1.50533648258077      0.45238597401288
  N   1.15366684855832      2.64193010575162      0.18525275600726
  C   -0.28717590406069     -0.45788954056207     -1.43980070817792
  H   -1.20407299745489     -0.79497098999665     -1.92767091815758
  H   0.50658717757993     -1.15317892216431     -1.71884232377850
  H   -0.03990879508199      0.53027425606597     -1.83726596005011
  C   -1.73380325588736      0.44361736641433      0.41626120930565
  H   -1.90538445347955      0.49914497960261      1.49168664275222
  H   -1.62298467008435      1.45916538068861      0.02751513930559
  H   -2.62106091401982      0.00326195776804     -0.04359222944144
