17
Coordinates from ORCA-job run
  C   0.79110045835748      0.40478046784220      0.52350820990786
  C   -0.26154112223571     -0.18508582828523     -0.43268612989498
  Cl  0.11543883706648      1.57648874682035      1.65180845303383
  H   0.31537325013443     -0.84792113117850     -1.08818273386877
  N   1.38947507315046     -0.78979950991501      1.30512018674513
  O   2.08064870118476     -1.52647452789484      0.61263247148982
  O   1.08297767356221     -0.94179223835695      2.47413638854850
  C   1.88916720417521      1.02184799930351     -0.21292159181737
  N   2.73958741513453      1.53642682519667     -0.84024422808416
  C   -0.90074730874756      0.91042020041869     -1.28018994543299
  H   -1.53726044185484      0.44914655430194     -2.03844344753014
  H   -1.52344704207648      1.56792537979367     -0.67111127610585
  H   -0.15296451304668      1.51723774255203     -1.79572038969827
  C   -1.30123130274347     -1.01336689778742      0.31564182165803
  H   -2.03543530698646     -1.39034656369561     -0.39948287677678
  H   -0.86043359690534     -1.87608509983657      0.81890371602262
  H   -1.82970797816902     -0.41240211927893      1.05823137180354
