17
Coordinates from ORCA-job run
  C   0.81877855396428      0.06710258976414      0.62311236003116
  C   -0.42041629240263      0.18161352130311     -0.28273403122123
  Cl  0.74235339150970     -1.30696622800216      1.72271170547804
  H   -0.24259393182416      1.09373024453191     -0.86438743287768
  N   2.03757261782600     -0.08463845338293     -0.31975083992807
  O   2.29368387618045      0.93336254154464     -0.95063056913242
  O   2.57753909612839     -1.17232524402317     -0.41429968790742
  C   1.02849427013495      1.28922962640391      1.39199159954001
  N   1.14635954910538      2.27979012584181      2.01367094198357
  C   -1.68615260155094      0.36763442807868      0.54822917304954
  H   -2.52354059633805      0.58010663796632     -0.11992300057627
  H   -1.92476522574811     -0.53587920817627      1.11190427737616
  H   -1.59680558366597      1.20177115519232      1.24776037579281
  C   -0.53016927362609     -1.00098583561517     -1.24007330390840
  H   0.31959401024849     -1.06295141013753     -1.92263814455996
  H   -0.60835939613042     -1.94557588881472     -0.69833527401342
  H   -1.43057246381125     -0.88301860247498     -1.84660814912644
