17
Coordinates from ORCA-job run
  C   0.75746888549372      0.46065263271552      0.70676844447706
  C   -0.57901024584187      0.40319230931401     -0.06331434547802
  Cl  0.51896805551022      1.03901012854184      2.35961514841763
  H   -1.00247275731834      1.40451898729093      0.07855594321848
  N   1.34872993438418     -0.96174401619387      0.74650187566121
  O   1.06209267790566     -1.67430096126773      1.69390090986742
  O   1.99972231649887     -1.27117481303287     -0.24555211959800
  C   1.73187145783252      1.32447982365969      0.04961328085960
  N   2.46736848784338      2.07400598487451     -0.47830243825377
  C   -1.53508979888279     -0.62795260197069      0.53178075871549
  H   -2.51871308842269     -0.49825513782253      0.07548812985447
  H   -1.20148152419923     -1.64580140069223      0.31744793619180
  H   -1.64436187187199     -0.52252829108758      1.61107317205828
  C   -0.37679599508747      0.16907630542730     -1.55972679780427
  H   0.04096862013844     -0.81918326357209     -1.75881517976032
  H   -1.34855897248397      0.23009383181428     -2.05499788465094
  H   0.27829381850138      0.91591048200147     -2.01103683377607
