17

C	0.0	0.0	0.0
C	-0.306656	-0.168368	-1.525214
F	1.421861	0.0	0.0
H	0.506162	-0.809019	-1.894046
C	-0.468035	1.304413	0.596744
H	0.012968	2.14765	0.100924
H	-1.555268	1.363544	0.492986
H	-0.202575	1.305526	1.656098
N	-0.483586	-1.09305	0.775193
H	-0.446077	-1.937417	0.213503
H	-1.482912	-0.911071	0.919612
C	-0.138309	1.117305	-2.238636
N	-0.016478	2.103268	-2.867738
N	-1.578223	-0.830071	-1.751199
H	-2.325992	-0.448621	-1.111437
H	-1.878938	-0.682633	-2.708272
H	-3.360646	0.0	0.0
