17

C	0.0	0.0	0.0
C	-0.30453	-0.106568	-1.531272
F	1.389505	0.0	0.0
H	0.473805	-0.789398	-1.901455
C	-0.491883	1.269261	0.649554
H	-0.037771	2.14435	0.181091
H	-0.210621	1.235871	1.705536
H	-1.582561	1.307138	0.563007
N	-0.485562	-1.131322	0.725631
H	-0.41008	-1.956711	0.140623
H	-1.489956	-0.97978	0.856206
C	-0.025811	1.183104	-2.198907
N	0.194747	2.196642	-2.753428
N	-1.610114	-0.676558	-1.79805
H	-1.921564	-0.4189	-2.728294
H	-2.338387	-0.339011	-1.109412
H	-3.387824	0.0	0.0
