17

C	0.0	0.0	0.0
C	-0.460184	-0.016477	-1.47056
F	1.400009	0.0	0.0
H	-1.56612	-0.034072	-1.376205
C	-0.448232	1.271225	0.68637
H	0.00308	2.1474	0.215325
H	-1.542505	1.31041	0.633676
H	-0.126951	1.220751	1.728044
N	-0.488602	-1.121654	0.742921
H	-0.293286	-1.976487	0.228138
H	-1.51674	-0.991155	0.738957
C	-0.022379	-1.265158	-2.107381
N	0.332781	-2.270935	-2.599611
N	-0.040275	1.112637	-2.298498
H	0.914291	1.355978	-2.050424
H	-0.633465	1.901799	-2.072061
H	-3.099727	0.0	0.0
