17

C	0.0	0.0	0.0
C	-0.557253	-0.154223	-1.4136
F	1.422638	0.0	0.0
H	-1.657369	-0.230575	-1.208115
C	-0.511853	1.25815	0.646007
H	-1.612118	1.18526	0.624564
H	-0.164001	2.142156	0.108361
H	-0.147706	1.316577	1.676295
N	-0.407022	-1.148711	0.743874
H	0.163242	-1.94425	0.48557
H	-0.33538	-0.984162	1.73784
C	-0.079134	-1.412473	-1.998067
N	0.316836	-2.424971	-2.443982
N	-0.299202	0.946387	-2.336213
H	-0.987967	1.666255	-2.153706
H	0.623211	1.328078	-2.159823
H	-3.292486	0.0	0.0
