17

C	0.0	0.0	0.0
C	-0.491216	-0.101601	-1.439854
F	1.396083	0.0	0.0
H	-1.596534	-0.051441	-1.331566
C	-0.416381	1.322461	0.617762
H	-0.050827	1.351262	1.650117
H	-1.510894	1.351475	0.61118
H	-0.003146	2.16285	0.05966
N	-0.495632	-1.155854	0.688401
H	-0.292245	-1.041022	1.677519
H	-1.526451	-1.068893	0.59411
C	-0.119923	-1.402642	-2.026495
N	0.173365	-2.368762	-2.628838
N	-0.004687	1.016865	-2.245286
H	-0.460961	0.991824	-3.149223
H	0.991124	0.896899	-2.397409
H	-3.110454	0.0	0.0
