17

C	0.0	0.0	0.0
C	-0.51208	0.086815	-1.443322
F	1.389397	0.0	0.0
H	-1.615862	0.097655	-1.281726
C	-0.446327	1.220461	0.77375
H	-1.540808	1.246547	0.759956
H	-0.08547	1.115007	1.798971
H	-0.035782	2.119687	0.31606
N	-0.482364	-1.176761	0.665009
H	-0.282404	-1.993956	0.094223
H	-1.508434	-1.052681	0.680205
C	-0.155251	-1.129024	-2.191621
N	0.160287	-2.060121	-2.837211
N	-0.095863	1.306687	-2.132177
H	-0.706833	1.467107	-2.923002
H	0.851319	1.20105	-2.476509
H	-3.121959	0.0	0.0
