17

C	0.0	0.0	0.0
C	-0.489354	0.237821	-1.423017
F	1.409044	0.0	0.0
H	-1.595298	0.259249	-1.304611
C	-0.410036	1.143026	0.909181
H	-1.504847	1.174215	0.910789
H	0.004548	2.08944	0.560063
H	-0.04299	0.930253	1.919227
N	-0.495889	-1.282749	0.399379
H	-1.52681	-1.173312	0.327513
H	-0.294053	-1.403578	1.388105
C	-0.114917	-0.887769	-2.299238
N	0.203834	-1.678594	-3.108524
N	-0.008385	1.515728	-1.946689
H	0.983896	1.433065	-2.140128
H	-0.478963	1.707283	-2.823603
H	-3.101559	0.0	0.0
