14

C	-0.361372	0.000693	-1.488793
C	0.0	0.0	0.0
F	-1.749398	0.02957	-1.6427
H	1.097211	0.0	0.0
H	0.02726	0.931024	-1.913383
C	0.209071	-1.200759	-2.200216
H	1.289698	-1.231694	-2.038232
H	-0.001416	-1.132461	-3.270167
H	-0.240773	-2.117209	-1.81184
C	-0.493712	-1.202584	0.668337
N	-0.879934	-2.184047	1.184399
C	-0.501616	1.199688	0.666175
N	-0.892034	2.177466	1.185762
Cl	3.205925	0.0	0.0
