14

C	-0.362578	-0.000174	-1.48836
C	0.0	0.0	0.0
F	-1.75065	0.029814	-1.640942
H	1.097288	0.0	0.0
H	0.026176	0.929605	-1.91387
C	0.205945	-1.202527	-2.199637
H	-0.243726	-2.118327	-1.810062
H	-0.006283	-1.134984	-3.268735
H	1.286266	-1.234273	-2.039817
C	-0.493618	-1.202105	0.66941
N	-0.87772	-2.181748	1.190461
C	-0.501606	1.199981	0.665882
N	-0.89245	2.1781	1.184497
Cl	3.204775	0.0	0.0
