14

C	-0.44663	0.07356	-1.475456
C	0.0	0.0	0.0
F	-0.154758	-1.15371	-2.056305
H	1.097007	0.0	0.0
H	-1.534609	0.195738	-1.534521
C	0.295393	1.162353	-2.213199
H	0.038105	1.123289	-3.273971
H	1.369389	1.01263	-2.085079
H	0.02495	2.146055	-1.822173
C	-0.521057	-1.202442	0.646616
N	-0.970122	-2.161782	1.152867
C	-0.470592	1.19275	0.703037
N	-0.85823	2.173383	1.220341
Cl	3.229091	0.0	0.0
