14

C	-0.450016	-0.075443	-1.471782
C	0.0	0.0	0.0
F	-0.033543	1.094482	-2.08779
H	1.096088	0.0	0.0
H	0.099685	-0.901006	-1.933271
C	-1.943007	-0.208769	-1.667229
H	-2.311667	-1.138856	-1.231157
H	-2.171239	-0.205949	-2.735195
H	-2.457427	0.633946	-1.20012
C	-0.458326	-1.191842	0.712895
N	-0.832474	-2.17245	1.239552
C	-0.521458	1.204959	0.641779
N	-0.951537	2.181919	1.129865
Cl	3.201219	0.0	0.0
