17

C	0.0	0.0	0.0
C	-0.376603	0.02038	-1.491619
Cl	1.974813	0.0	0.0
H	-1.469833	-0.100881	-1.48492
N	-0.44037	1.179153	0.551896
H	-0.233181	2.004275	0.015081
H	-0.292701	1.235981	1.545895
N	-0.429361	-1.080511	0.801275
H	-1.45083	-0.983301	0.832401
H	-0.201464	-1.958855	0.357234
N	0.181427	-1.206519	-2.212824
O	0.892407	-1.018318	-3.19763
O	-0.136048	-2.314838	-1.786706
N	0.0096	1.235328	-2.118275
H	-0.506739	1.36775	-2.97649
H	0.999724	1.213433	-2.326118
Cl	-3.576122	0.0	0.0
