17

C	0.0	0.0	0.0
C	-0.487595	0.00998	-1.474932
Cl	1.796027	0.0	0.0
H	-1.578076	-0.045557	-1.422059
N	-0.449685	1.257806	0.560348
H	-1.471946	1.183743	0.586267
H	-0.118635	1.32258	1.517621
N	-0.430172	-1.225514	0.617843
H	-1.449523	-1.246073	0.53713
H	-0.194852	-1.196905	1.604265
N	-0.05112	-1.245879	-2.170844
O	-0.812938	-2.207866	-2.141237
O	1.041398	-1.224653	-2.737995
N	-0.078474	1.126614	-2.274568
H	-0.506835	1.947841	-1.864526
H	0.927308	1.232789	-2.198278
Cl	-3.550609	0.0	0.0
