14
Coordinates from ORCA-job run
  C   0.74411691181601     -0.17305925756123      0.20466709720773
  C   -0.57620898782823     -0.17647455419533     -0.59799600409578
  Br  1.83408812648517     -1.73355704800119     -0.43257854129927
  H   -0.28877669177163     -0.07111713058763     -1.65805015750506
  C   0.49146844083420     -0.38886361313332      1.62675532909987
  N   0.32921872364068     -0.56156742943906      2.77760350243930
  N   1.39227327902892      1.07820603900866      0.00117845781716
  H   1.74754437059930      1.14654929406384     -0.94624493608122
  H   2.15681944004000      1.21602548593400      0.65080073810794
  N   -1.40100691813107      0.89114237964756     -0.06361464489859
  H   -0.93811219366151      1.77925597269058     -0.20855751398051
  H   -2.31258012015841      0.89876338875068     -0.50337715605131
  C   -1.28644301287145     -1.45090779447900     -0.45948390736814
  N   -1.89340136802198     -2.45339573269856     -0.39310226339211
