14
Coordinates from ORCA-job run
  C   0.81582398816988     -0.15987756931624      0.10849564594663
  C   -0.55150563736996     -0.49120448204269     -0.53637762201991
  Br  2.23159042907481     -0.45679240305405     -1.19693758761815
  H   -0.54411457575382     -1.54561783641439     -0.82917240574862
  C   1.06797753915120     -1.08367850893282      1.22485781740945
  N   1.24288180638085     -1.78316009406681      2.15430517566129
  N   0.82022758830485      1.23999916559132      0.48193274071225
  H   0.23855385393000      1.37264679842541      1.30555715979904
  H   1.76095733251838      1.54401051502334      0.70414296106625
  N   -0.75332422699959      0.33025066870196     -1.70535379582431
  H   -1.65111866602947      0.13124112621665     -2.12805853954151
  H   -0.71194419494423      1.30732590831050     -1.44117403532544
  C   -1.57336160081463     -0.30771044461467      0.52120027847690
  N   -2.39364363561827     -0.09643284382751      1.33658220700613
