14
Coordinates from ORCA-job run
  C   0.80844655174646     -0.19894845285478      0.09827133779651
  C   -0.59129134144080     -0.48661805860054     -0.49613173910366
  Br  2.17123225979612     -0.64176292168734     -1.22221550463942
  H   -0.64920801559233     -1.55375866130074     -0.73184978240778
  C   1.03923116820249     -1.07659141295560      1.25550961736457
  N   1.19908660875415     -1.73918663207039      2.21432392206844
  N   0.89890072802422      1.21607073604214      0.39617476419525
  H   0.34687123231350      1.42352539210997      1.22466039103834
  H   1.86024209081039      1.47807144439427      0.58040687892297
  N   -0.77823907045074      0.28235617171342     -1.70278458109980
  H   -1.69548927405622      0.11046696403898     -2.09450426594783
  H   -0.67838611381123      1.26823463582580     -1.49238293869803
  C   -1.57350576616894     -0.19096098626018      0.57337801829618
  N   -2.35689105812707      0.10910178160499      1.39714388221423
