14
Coordinates from ORCA-job run
  C   0.74772790589784     -0.13872928628309      0.22140680276816
  C   -0.55309488299791     -0.20990482902475     -0.60932277305263
  Br  1.91579358096490     -1.66163566015374     -0.36779179643592
  H   -0.24627421339014     -0.10694487570651     -1.66416850683486
  C   0.47272761860069     -0.34415777570180      1.64099244440090
  N   0.29083559505111     -0.50328122417023      2.79077713549892
  N   1.34707513597398      1.13555676971519      0.01244109323005
  H   1.71945826233050      1.20455232008758     -0.92822097188677
  H   2.09123586011645      1.31470585777488      0.67550786131705
  N   -1.43466221586092      0.82831845523056     -0.10953019183476
  H   -1.00969246688512      1.73404187915306     -0.26107661867047
  H   -2.33746053577256      0.78707349558398     -0.56512658841769
  C   -1.21152623231035     -1.51135474601492     -0.46446174006229
  N   -1.79214341171848     -2.52724038049021     -0.37142615001968
