14
Coordinates from ORCA-job run
  C   0.69644346634154     -0.20186554886574      0.26397727340469
  C   -0.67703667436263      0.25849446576542     -0.26389992583540
  Br  0.77400053335891     -2.15831238965865      0.23623817531817
  H   -0.65135251970895      1.35602016696497     -0.22980661405762
  C   0.83180798014609      0.21666408662244      1.66719302270329
  N   1.02938260449602      0.62914466036723      2.75063718370327
  N   1.73015972968172      0.29070200556705     -0.61119196284474
  H   1.78074310764607      1.30330370707032     -0.54255450142323
  H   2.63222224395753     -0.09247548162367     -0.35251444556576
  N   -1.73406292842401     -0.18140474349473      0.61978111247654
  H   -1.92744438532976     -1.16560739852245      0.47732256581323
  H   -2.58327900992308      0.33967587343902      0.44214820699955
  C   -0.83217832148051     -0.13913078965246     -1.67600504255289
  N   -1.06940582639894     -0.45520861397875     -2.78232504813910
