17

C	-0.324699	-0.11761	-1.503462
C	0.0	0.0	0.0
Cl	-1.983607	-0.702063	-1.785699
H	1.097584	0.0	0.0
N	-0.217116	1.298345	-2.110088
O	0.903604	1.611404	-2.488686
O	-1.213032	2.011061	-2.109886
N	0.589719	-0.939391	-2.229148
H	1.538778	-0.70011	-1.932482
H	0.416515	-1.910016	-2.001654
C	-0.393075	-1.253892	0.786638
H	0.086403	-1.206981	1.765744
H	-1.472838	-1.340787	0.913471
H	-0.014253	-2.143279	0.27956
C	-0.548779	1.186039	0.638013
N	-1.010018	2.121194	1.18041
Cl	3.268291	0.0	0.0
