17

C	-0.464617	0.411828	-1.401293
C	0.0	0.0	0.0
Cl	0.340964	-0.554691	-2.633409
H	1.105721	0.0	0.0
N	-2.004829	0.040604	-1.480866
O	-2.759671	0.927489	-1.080206
O	-2.349977	-1.076665	-1.839011
N	-0.25751	1.776831	-1.656154
H	-0.720637	2.354595	-0.968702
H	-0.537437	2.033831	-2.592808
C	-0.428777	-1.407018	0.429548
H	-1.501323	-1.484548	0.619324
H	-0.146512	-2.127499	-0.336712
H	0.11433	-1.655719	1.34091
C	-0.463612	0.983909	0.971872
N	-0.862647	1.761734	1.756171
Cl	3.271815	0.0	0.0
