18

C	0.0	0.0	0.0
C	-0.415377	0.093979	-1.52983
Br	1.972342	0.0	0.0
H	0.353776	0.741251	-1.967342
C	-0.507474	1.181051	0.810155
H	-0.192947	2.11532	0.337978
H	-0.115865	1.150834	1.828319
H	-1.600082	1.128688	0.83742
C	-0.394781	-1.261976	0.616346
N	-0.655681	-2.316145	1.067497
N	-1.687173	0.69835	-1.809354
H	-1.701979	1.667889	-1.520821
H	-2.474525	0.247626	-1.334108
C	-0.35377	-1.275015	-2.192595
H	-0.480487	-1.144822	-3.268913
H	0.587474	-1.791761	-1.995523
H	-1.176185	-1.894382	-1.827981
Cl	-4.219668	0.0	0.0
