18

C	0.0	0.0	0.0
C	-0.416395	0.054453	-1.527027
Br	1.971204	0.0	0.0
H	0.302416	0.758778	-1.96501
C	-0.522565	1.190692	0.784781
H	-0.131108	1.187984	1.803536
H	-1.614829	1.123049	0.81511
H	-0.221497	2.118592	0.290984
C	-0.389336	-1.254628	0.637636
N	-0.668219	-2.288426	1.12412
N	-1.731771	0.558088	-1.808432
H	-2.487377	0.055414	-1.335568
H	-1.828701	1.522878	-1.51935
C	-0.253095	-1.307932	-2.187982
H	-0.384163	-1.187716	-3.264296
H	0.722708	-1.7556	-1.989226
H	-1.029874	-1.986546	-1.826271
Cl	-4.300113	0.0	0.0
