18

C	0.0	0.0	0.0
C	-0.420201	-0.060852	-1.522357
Br	1.970686	0.0	0.0
H	0.266215	0.644498	-2.008969
C	-0.513143	1.250824	0.692596
H	-0.124121	1.320098	1.70977
H	-0.199751	2.136214	0.132099
H	-1.604999	1.197957	0.724641
C	-0.39433	-1.204336	0.726037
N	-0.66764	-2.205668	1.278506
N	-1.757635	0.367396	-1.823853
H	-1.889201	1.353618	-1.643893
H	-2.492136	-0.108898	-1.295242
C	-0.202768	-1.453073	-2.102751
H	-0.338226	-1.397393	-3.184707
H	0.789676	-1.852307	-1.88174
H	-0.956815	-2.13714	-1.705162
Cl	-4.362121	0.0	0.0
