18

C	0.0	0.0	0.0
C	-0.452265	0.296381	-1.456782
Br	1.979759	0.0	0.0
H	0.249259	-0.241345	-2.102454
C	-0.540561	0.985231	1.021264
H	-1.6353	0.93522	1.009337
H	-0.187671	0.733424	2.022027
H	-0.21216	1.987554	0.750003
C	-0.330534	-1.376434	0.373267
N	-0.560582	-2.495624	0.652674
N	-0.284889	1.730823	-1.701763
H	-1.193251	2.180205	-1.658231
H	0.08582	1.877407	-2.631432
C	-1.860663	-0.212857	-1.737915
H	-2.633958	0.200352	-1.082452
H	-1.927976	-1.298255	-1.641216
H	-2.1229	0.049834	-2.767575
Cl	-4.871339	0.0	0.0
