18

C	0.0	0.0	0.0
C	-0.547588	0.411385	-1.39128
Br	1.972393	0.0	0.0
H	-1.635009	0.353458	-1.239232
C	-0.508786	0.87025	1.138638
H	-1.604092	0.853778	1.085506
H	-0.135753	1.889247	1.033134
H	-0.181105	0.47354	2.101524
C	-0.338737	-1.406392	0.242037
N	-0.554719	-2.5468	0.428584
N	-0.201424	-0.501222	-2.469177
H	-0.68384	-1.38188	-2.33513
H	0.797187	-0.682927	-2.465838
C	-0.176334	1.832468	-1.783083
H	-0.668859	2.050871	-2.731628
H	0.903545	1.93986	-1.923489
H	-0.513648	2.562819	-1.04577
Cl	-3.766113	0.0	0.0
