12
Coordinates from ORCA-job run
  C   -0.56854135424605      0.64873227889145      0.09714763576521
  C   0.68343941893395     -0.12109108411536     -0.36250542537695
  Br  -0.40902721200188      1.32701507170672      1.86933539388599
  H   0.47771277061017     -0.47558125710401     -1.38023306280590
  H   -0.76344765460327      1.47599161216103     -0.58591741681981
  N   -1.75014468948006     -0.30267996594515     -0.07323111028233
  O   -1.91323380896289     -0.64649518460208     -1.24082137037937
  O   -2.40370226098104     -0.64513615823552      0.89654258848173
  C   0.92912560377811     -1.28649518136367      0.49181226948781
  N   1.10484884698397     -2.23546341802880      1.16050137324327
  C   1.84604191748516      0.76770952858650     -0.40450414729296
  N   2.76592842248382      1.49449375804890     -0.46812672790669
