12
Coordinates from ORCA-job run
  C   -0.52095007566984      0.60324016221785     -0.22038172207897
  C   0.69218238111209     -0.11920728866472      0.38131419804149
  Br  -0.90725874236526      2.22567212792331      0.73059381261468
  H   0.46527441748426     -0.34123135648597      1.42972103839872
  H   -0.38667188929854      0.83728627793457     -1.27541385951542
  N   -1.72030547780726     -0.30848644497337     -0.12934855552702
  O   -1.82307948136689     -0.98260093122072      0.88938231221989
  O   -2.49093362591094     -0.27547807018321     -1.08043602444520
  C   1.88548038387009      0.72606336157786      0.30215892902272
  N   2.84217905262002      1.40310030101308      0.23393146833881
  C   0.90901377008085     -1.38259230740384     -0.33417445685789
  N   1.05606928725141     -2.38476583173484     -0.92834714021180
