12
Coordinates from ORCA-job run
  C   -0.54236631229235      0.66886720730350      0.10803299146675
  C   0.66511500716834     -0.14851084475083     -0.38695736159516
  Br  -0.29392645834284      1.36403390144199      1.86347876896521
  H   0.41051783505521     -0.50807697387639     -1.39175384976330
  H   -0.73603045259970      1.49363953240165     -0.57832789955035
  N   -1.76046244478541     -0.24460963234130     -0.00465603001187
  O   -1.97845565018176     -0.59819721525420     -1.16032435879390
  O   -2.38882520016678     -0.55116135661187      0.99335649549272
  C   0.90205123641800     -1.31127046322855      0.47370537891691
  N   1.06956271508854     -2.25701235870877      1.14912710814508
  C   1.85532800660505      0.69878542898326     -0.48167833789045
  N   2.79749171803369      1.39151277464152     -0.58600290538165
