12
Coordinates from ORCA-job run
  C   -0.54206079769001      0.67437185741525      0.06752339023830
  C   0.67784787637546     -0.16293647362723     -0.36013527772508
  Br  -0.34593093823875      1.43121448446501      1.80397541962732
  H   0.45435438900320     -0.55428041054548     -1.36041785717501
  H   -0.71094250655070      1.47441522607092     -0.65382253466083
  N   -1.75882279695191     -0.23987656876204     -0.05040658014288
  O   -2.42003926369974     -0.50736244413311      0.93755307734175
  O   -1.94043256443243     -0.63642182435349     -1.19840997486096
  C   0.87937320944049     -1.29816973808000      0.54484548575895
  N   1.01405621476712     -2.22555736472914      1.25236259995873
  C   1.87353915447296      0.67761301657982     -0.44350205480303
  N   2.81905802350430      1.36699023969948     -0.53856569355727
