12
Coordinates from ORCA-job run
  C   -0.52954077695155      0.60605685699026     -0.18981723814260
  C   0.68979369591087     -0.13061773255157      0.38133346418349
  Br  -0.95832758439205      2.15801936074111      0.85548905880706
  H   0.45505377260609     -0.42166802957512      1.41101045736272
  H   -0.38650337138126      0.90897800603553     -1.22589660380984
  N   -1.71313569618861     -0.33057066300577     -0.17314071137049
  O   -1.80727844383061     -1.08221253013380      0.79057465165516
  O   -2.48253523549072     -0.23687827657537     -1.12115676466785
  C   1.86806647532765      0.73956617804377      0.37193515013020
  N   2.81352148440300      1.43556305272925      0.36545736290180
  C   0.93909206702187     -1.34302075384896     -0.40796903956667
  N   1.11279361296530     -2.30421546884934     -1.05981978748297
