13
Coordinates from ORCA-job run
  C   0.75466469658386     -0.17432363762687     -0.26324479182648
  C   -0.52116012748252     -0.08301881404800      0.17945530544992
  C   1.50423954663073      0.96846543704008     -0.67079613920495
  N   2.06987789785220      1.95011533142429     -0.98881996446617
  N   1.51374717963492     -1.44883039880868     -0.32383939520460
  O   2.71583936232272     -1.33463645779660     -0.54385164609335
  O   0.89447443953878     -2.48774645122647     -0.14564583673407
  C   -1.27661958945752     -1.22028390374064      0.61318059752736
  N   -2.03288017218262     -2.03070349082060      1.01039635414333
  C   -1.25403246496397      1.22633653606824      0.26149917546344
  H   -1.60865861798471      1.37693603276705      1.28418051860553
  H   -2.13512217255560      1.19290023635684     -0.38529951792438
  H   -0.62436997793625      2.06578958041136     -0.02921465973559
