13
Coordinates from ORCA-job run
  C   0.64446438825703     -0.18521730334020     -0.51381451715415
  C   -0.60448463502049      0.05502928379662     -0.03464717344262
  C   0.90512626349832     -0.50495005651332     -1.87850030779173
  N   1.08511429615133     -0.77173405469310     -3.01110621437555
  N   1.85804048753909     -0.11653162912587      0.32917279215933
  O   2.92714063738027     -0.23938793070900     -0.25978272603959
  O   1.70542022799198      0.05897874792071      1.53282370392475
  C   -1.66545896416107     -0.05226997926213     -0.99161728698601
  N   -2.57525332134196     -0.13114216160367     -1.73645098901636
  C   -0.99968109447812      0.40832661780710      1.37365013427156
  H   -2.06909417277984      0.61088763671482      1.41060603942278
  H   -0.76284768392318     -0.41207970485693      2.05336622951901
  H   -0.44948642911336      1.28109053386497      1.72630031550857
