13
Coordinates from ORCA-job run
  C   0.83648939197564     -0.10092326783420     -0.13456194066135
  C   -0.34757077560922      0.14069105772971      0.47825867817585
  C   2.10675341433140     -0.00558424984094      0.49972859224259
  N   3.15417501310310      0.05609758164972      1.03398181129279
  N   0.90125717196909     -0.42723839194037     -1.57285413032839
  O   1.73893343965459      0.19478036745271     -2.21674958276002
  O   0.12339862756521     -1.27715165588877     -1.99492264904174
  C   -0.29899736135592      0.46660177482055      1.87295035672124
  N   -0.31365671767868      0.73217233512934      3.01992198456762
  C   -1.71028999940047      0.07562003887708     -0.14320225538133
  H   -1.67032772126020      0.05201345409107     -1.22850421782486
  H   -2.21549186773700     -0.83433902185033      0.19531028746164
  H   -2.30467261555753      0.92725997760443      0.19164306553596
