13
Coordinates from ORCA-job run
  C   0.84530656310469     -0.10312165443381     -0.05236016981711
  C   -0.40305269004108      0.04838755753455      0.45043002314255
  C   2.02847618486043     -0.16830286956000      0.73595619795152
  N   3.00355004485710     -0.23819504662337      1.39218464739010
  N   1.08427371427847     -0.14496863993678     -1.50831409454472
  O   0.35243929817566     -0.86730638889068     -2.17718244644615
  O   2.00601352786579      0.55504003692160     -1.91398462216154
  C   -0.52334317700801      0.09510514015280      1.87720418005845
  N   -0.66989420683764      0.13387947783393      3.04554199182965
  C   -1.68048843072816      0.15926884306525     -0.32864585548484
  H   -1.51208353823876      0.34484661993806     -1.38609449857434
  H   -2.24040902541713     -0.77444879714008     -0.22918812229431
  H   -2.28978826487136      0.95981572113854      0.09545276895075
