13
Coordinates from ORCA-job run
  C   0.77300029735044     -0.15410868879469     -0.19326423194458
  C   -0.52309985714144     -0.06494226447595      0.18411625626843
  C   1.56672788680840      0.97877498616282     -0.53081346550745
  N   2.19978627973642      1.93858517747250     -0.78373164555161
  N   1.46714852080428     -1.45197388879717     -0.35050657652316
  O   1.16398182665820     -2.35078106570081      0.42313695080639
  O   2.29031384615497     -1.49897337846235     -1.25922546008597
  C   -1.29946219946397     -1.23188598797436      0.47388874038142
  N   -2.05101750612622     -2.10626755093657      0.71374642555309
  C   -1.24828896707978      1.24447146193324      0.30409084651352
  H   -0.60297915102853      2.08825717932405      0.06137540852363
  H   -2.11199708596870      1.24795063407822     -0.36596759767615
  H   -1.62411389070407      1.35989338617107      1.32415434924242
