13
Coordinates from ORCA-job run
  C   0.81688407526559     -0.20525013306700     -0.06563007462737
  C   -0.44495094089894     -0.10472512273267      0.41754502862008
  C   1.89672343876283     -0.84124364700799      0.60820164991760
  N   2.79563408279812     -1.38167900300592      1.14254403931607
  N   1.19573665648540      0.39534569852786     -1.35696266918073
  O   2.19746390355944      1.10121149027505     -1.34831889205587
  O   0.50016793640722      0.11363386958268     -2.32704422582903
  C   -0.70505771262225     -0.70045839618148      1.69391626246469
  N   -0.95277511074413     -1.19596972492368      2.73391860456710
  C   -1.59594687212501      0.58446819705878     -0.25365602901817
  H   -1.27740708555954      1.17979073356363     -1.10534296312103
  H   -2.11166055785124      1.21705052911211      0.46763095908253
  H   -2.31381181347748     -0.16217449120137     -0.60780169013587
