13
Coordinates from ORCA-job run
  C   0.77881831673364     -0.15085751007500     -0.17079320641621
  C   -0.52753128188392     -0.06605623761227      0.17048094018353
  C   1.57197166725520      0.98240342874324     -0.50896808553710
  N   2.20537363597763      1.94180945990384     -0.76246083883767
  N   1.48872257449492     -1.44486880001050     -0.28200609391200
  O   1.17315745566483     -2.33030225648044      0.50202884322124
  O   2.33601957499338     -1.50294192495728     -1.16760249858419
  C   -1.30068355768120     -1.23360279794398      0.46637185798443
  N   -2.05124386247276     -2.10826559786137      0.70879316013400
  C   -1.26738229434923      1.23865346461696      0.24311646607059
  H   -1.66862972771859      1.37299272655345      1.25099011193996
  H   -0.62401614268029      2.08290484629914     -0.00282935980724
  H   -2.11457635833362      1.21913119882423     -0.44712129643934
