13
Coordinates from ORCA-job run
  C   0.78719377829732     -0.20061123563734     -0.07371764726489
  C   -0.55501877624650     -0.05848079980259      0.02897667202571
  C   1.67867961935466      0.91054002413099     -0.03521661128902
  N   2.37433194146481      1.85944734671676      0.00385786187377
  N   1.46517126606759     -1.51134276900103     -0.24401267776884
  O   0.76463874246487     -2.49569875582507     -0.42978510988295
  O   2.69066520224977     -1.48043760098480     -0.18342174339501
  C   -1.45509900575422     -1.17308232951367      0.00218339031671
  N   -2.33585118568953     -1.95477698435639      0.00883466262957
  C   -1.21429910327746      1.28028099779994      0.20052854293637
  H   -1.89344114811187      1.45321775008961     -0.63946758642321
  H   -1.81857581621335      1.27914942212400      1.11151295227838
  H   -0.48839551460607      2.09079493425957      0.24872729396341
