13
Coordinates from ORCA-job run
  C   0.64487546107778     -0.16707053510725     -0.53231731924693
  C   -0.59264020200075      0.11479316104983     -0.05920682134918
  C   0.94359027011539     -0.42569356108361     -1.89941223025744
  N   1.19188138809007     -0.63660273816243     -3.03174944097159
  N   1.80045274300333     -0.29265172697237      0.37719265458514
  O   1.97565452472977      0.60772828122247      1.19149195327921
  O   2.48142171661265     -1.30202143060960      0.22988301883913
  C   -1.64860819203571      0.19074411651797     -1.02436270147390
  N   -2.53781767013321      0.27459509589635     -1.79159682951653
  C   -0.97802219330505      0.35459934262328      1.36970109610705
  H   -1.83724602344238     -0.27164060332058      1.61626925887727
  H   -0.16397401775033      0.15638159668420      2.06352911243620
  H   -1.28056780496154      1.39883900126175      1.49057824869158
