13
Coordinates from ORCA-job run
  C   0.76866633190343     -0.15173179701788     -0.21254310599220
  C   -0.52026166400957     -0.06865727188407      0.19004403591270
  C   1.56733525431780      0.98896732933056     -0.50931943450751
  N   2.20499841912417      1.95403499390881     -0.72842979612636
  N   1.44681478835790     -1.44677754227928     -0.44348794767044
  O   2.25454102393784     -1.45790798510405     -1.36703796513350
  O   1.14730972034811     -2.37882874154499      0.29122898145924
  C   -1.30358771811496     -1.24104003556684      0.43622782240628
  N   -2.05943440437151     -2.11948860425414      0.64604545868287
  C   -1.23062696614630      1.24012470515926      0.38331974098388
  H   -2.10510111685276      1.28221767920226     -0.27129681790893
  H   -0.58153362681709      2.08904542798335      0.17050385032449
  H   -1.58912004167708      1.31004184206700      1.41374517756948
