13
Coordinates from ORCA-job run
  C   0.62417391190287     -0.15156977869052     -0.56104373583407
  C   -0.59820639409073      0.13169623796135     -0.05118744612927
  C   0.90413040164619     -0.35802286427485     -1.94059153284511
  N   1.16753821587546     -0.52212473281099     -3.07609438677826
  N   1.78539892618236     -0.35855410289226      0.33039264728621
  O   1.97247966196410      0.47402207333553      1.21190273483217
  O   2.45377372061730     -1.36060599500370      0.10216013221183
  C   -1.67625816963694      0.27036974704453     -0.98327786104430
  N   -2.59370590110110      0.39004981309877     -1.71266186883700
  C   -0.93533516970850      0.32443234386593      1.39985495019209
  H   -1.88993054037985     -0.15975930187370      1.61172424680804
  H   -1.04568538188970      1.39221275506772      1.60924444257456
  H   -0.16837328138146     -0.07214619482781      2.06057767756310
