13
Coordinates from ORCA-job run
  C   0.78231426695283     -0.15886597282756     -0.14633204083818
  C   -0.53313383717085     -0.06035499912739      0.15400122534689
  C   1.59844250005506      0.96631468347557     -0.45462348382187
  N   2.24861698251351      1.92019505997582     -0.68570053537943
  N   1.47960572560511     -1.46122534923471     -0.24328878926361
  O   2.35490102500945     -1.52410626947856     -1.10088779601677
  O   1.12819700824924     -2.34733938990826      0.52452264504050
  C   -1.32948730187903     -1.22076519095318      0.41460155989156
  N   -2.09711102092747     -2.08939453607960      0.62221914946822
  C   -1.25908430880810      1.25264154917821      0.21347125564826
  H   -2.08223705933197      1.25021086520330     -0.50572194526501
  H   -1.69357689830738      1.38235084871857      1.20820535247469
  H   -0.59744708196042      2.09133870105779     -0.00146659728526
