13
Coordinates from ORCA-job run
  C   0.78496179299571     -0.14993261230410     -0.14388606580740
  C   -0.55083556130621     -0.06937925737781      0.05486558048874
  C   1.63269279569068      0.99137498779355     -0.21890959893729
  N   2.30121436371908      1.95741076232249     -0.29562272622313
  N   1.49690908174817     -1.44451211998038     -0.23633008909734
  O   0.90852485013407     -2.37482920381893     -0.77166174190542
  O   2.62553884235611     -1.45685126717332      0.24499948647594
  C   -1.36202438339601     -1.24306680897611      0.16915286719145
  N   -2.13363593772528     -2.12222057158601      0.30565384745109
  C   -1.27652416435321      1.23767507036106      0.19549922656023
  H   -0.60033490516986      2.08775801060806      0.10837373443042
  H   -2.04713867368401      1.31016253798023     -0.57649757926607
  H   -1.77934810100926      1.27541047215128      1.16536305863878
