13
Coordinates from ORCA-job run
  C   0.78529088164564     -0.15203930886030     -0.13752547020275
  C   -0.55182287141155     -0.06720580939160      0.05062004272999
  C   1.63877177773529      0.98627847682632     -0.19367248963191
  N   2.31216120695904      1.94986283333720     -0.25642886327497
  N   1.49251031359514     -1.44871647730001     -0.23841750655035
  O   2.61705098628201     -1.47090558594021      0.25187406053475
  O   0.90476684389137     -2.37041817901184     -0.78884935443599
  C   -1.36963249788327     -1.23878059363179      0.13899172865998
  N   -2.14564017149392     -2.11728885020498      0.25197252134798
  C   -1.27239804112854      1.24154490055857      0.20103728675445
  H   -2.03731183546020      1.32674354622089     -0.57528292774014
  H   -0.59138352012736      2.08922378507646      0.12869582272277
  H   -1.78136307260363      1.27070126232129      1.16798514908618
