13
Coordinates from ORCA-job run
  C   0.78223921205000     -0.14328524046169     -0.16469965938575
  C   -0.54815743430644     -0.07504910327436      0.07150878705363
  C   1.61444640199746      1.00695654825430     -0.27261132037766
  N   2.26889837418303      1.98012089186710     -0.37584085356600
  N   1.50507297636480     -1.43047838831452     -0.26841139703824
  O   0.91121900681316     -2.37117873076323     -0.77892243176758
  O   2.64741348460846     -1.42729174271358      0.17963067261885
  C   -1.34328844400797     -1.25597861888601      0.21824717980805
  N   -2.10099402403583     -2.14218013865768      0.38372483124554
  C   -1.28307525045835      1.22585883082132      0.22180691688830
  H   -2.07620803357298      1.28299093429391     -0.52839980011351
  H   -1.75864679269753      1.26742534883793      1.20518683822121
  H   -0.61891947693780      2.08208940899652      0.10778023641317
