13
Coordinates from ORCA-job run
  C   0.84181293830933     -0.03570924696018     -0.07759745928493
  C   -0.39823197507736      0.06835250229391      0.45797137156411
  C   2.04561535029458     -0.02405609233208      0.68324541769969
  N   3.03971407548557     -0.01335780216950      1.31683042841048
  N   1.04633134259194     -0.22260962678494     -1.52929779065988
  O   1.93389064914090     -1.00218970855426     -1.85181993544182
  O   0.33899773737295      0.44370152364497     -2.27845172890398
  C   -0.46327655384018      0.25140361793887      1.87747872617655
  N   -0.55709376217197      0.41083369468736      3.04133892589599
  C   -1.70379937878190      0.02633029071856     -0.28041637357479
  H   -2.43351133185383     -0.53354142695467      0.30630933375862
  H   -2.08016724397037      1.04731346699347     -0.40021073375487
  H   -1.61028184749966     -0.41747119252152     -1.26838018188517
