13
Coordinates from ORCA-job run
  C   0.77383457396263     -0.13967473251412     -0.20114606545328
  C   -0.54666357783972     -0.07365817962441      0.08556887677548
  C   1.61605493581145      1.00642968221282     -0.26650931869080
  N   2.27943598096505      1.97679581871833     -0.33214001390806
  N   1.47778360659403     -1.42517564283198     -0.40972595826975
  O   2.63487048751467     -1.46055366126412     -0.00299768879834
  O   0.85582898196764     -2.32613856167704     -0.95710890498288
  C   -1.34979154879622     -1.25413052751030      0.18630604848109
  N   -2.11117642471429     -2.14199922120169      0.32356984378344
  C   -1.26062913843621      1.22190638170857      0.34350454376237
  H   -2.07978201840100      1.33391603175624     -0.37170939833444
  H   -1.69899738834095      1.20607169748238      1.34473778864952
  H   -0.59076847028707      2.07721091474535      0.25865024698565
