13
Coordinates from ORCA-job run
  C   0.78082889416360     -0.13881083133762     -0.17468464449183
  C   -0.54835754940934     -0.07528346457873      0.06949372574639
  C   1.61922430157301      1.01056576250483     -0.23024738147050
  N   2.27987632838763      1.98327018347025     -0.28815510332678
  N   1.49629271968715     -1.42356980897038     -0.34329122543679
  O   0.89618356958271     -2.33498108042249     -0.89782725374783
  O   2.63970535407086     -1.44813062842166      0.10145992178454
  C   -1.34920155731404     -1.25804775980961      0.16052209483427
  N   -2.11105894637618     -2.14747107499808      0.28464943940810
  C   -1.27588245808208      1.22013460142809      0.28696799416619
  H   -0.60766271285319      2.07763327868159      0.21225724503233
  H   -2.07219530036374      1.31846374398615     -0.45560293676454
  H   -1.74675264306641      1.21522707846766      1.27345812426646
