16

C	0.0	0.0	0.0
C	-0.600644	-0.00044	-1.419026
F	1.390496	0.0	0.0
H	-1.68897	0.219507	-1.208782
N	-0.479545	1.191506	0.601805
H	-1.514602	1.116669	0.575966
H	-0.186921	1.24829	1.57131
N	-0.397885	-1.252702	0.610871
H	-0.853234	-1.10255	1.50047
H	0.401172	-1.866543	0.672954
N	-0.601444	-1.373452	-2.0366
O	0.434219	-2.034586	-1.986161
O	-1.645625	-1.738364	-2.569569
C	0.05996	0.962891	-2.284309
N	0.5874	1.778566	-2.949077
H	-3.044958	0.0	0.0
