16

C	0.0	0.0	0.0
C	-0.328421	-0.230516	-1.496248
F	1.404919	0.0	0.0
H	0.125841	0.601731	-2.03456
N	-0.413006	1.324024	0.353096
H	-1.418087	1.376084	0.171516
H	-0.24322	1.473892	1.34294
N	-0.447134	-1.107029	0.786559
H	-1.275677	-1.480731	0.328257
H	-0.749247	-0.770924	1.691906
N	-1.784005	-0.203876	-1.856419
O	-2.278543	0.960276	-1.947269
O	-2.493958	-1.131853	-1.290919
C	0.243758	-1.493106	-1.962508
N	0.743216	-2.476724	-2.365881
H	-3.051241	0.0	0.0
