16

C	0.0	0.0	0.0
C	-0.519897	-0.039234	-1.444406
F	1.389359	0.0	0.0
H	-1.631047	-0.034256	-1.318971
N	-0.457763	1.251755	0.529899
H	-1.489172	1.1479	0.523214
H	-0.162015	1.307502	1.500683
N	-0.435186	-1.216081	0.624877
H	-0.156006	-1.18008	1.600982
H	-1.466593	-1.151407	0.594445
N	-0.121122	-1.322599	-2.10901
O	-0.97814	-2.195446	-2.198894
O	1.037214	-1.41289	-2.512048
C	-0.034729	1.075353	-2.240711
N	0.303416	1.959322	-2.935997
H	-2.928379	0.0	0.0
