16
Coordinates from ORCA-job run
  C   -0.54310803982354      0.21075170671860     -0.20702688216505
  C   0.90437439500032     -0.15413254417298      0.18976351733332
  Br  -0.59638831098507      2.00237548747672     -0.99807502802568
  H   0.87140774806339     -1.11636692855374      0.71104547497660
  C   -1.40234275814971      0.24046412868197      1.05357105679867
  H   -1.40006185325880     -0.75308451128335      1.51523723807650
  H   -2.42906146081796      0.49525204724515      0.78524326539438
  H   -1.04523090931768      0.97398398942019      1.77881005076266
  N   -0.95349286452186     -0.71454630739952     -1.23333138967024
  H   -1.89183689935202     -0.49747479646873     -1.54686581005841
  H   -0.93103478295447     -1.66879528810640     -0.88650162792029
  C   1.53650751936892      0.84112343571856      1.04212705121084
  N   2.03235460907473      1.61304204038306      1.77526705734651
  N   1.75243054343503     -0.41968461974568     -1.03144426447319
  O   2.25662089903076      0.54494695503534     -1.58903970739344
  O   1.83986216520796     -1.59785479494921     -1.35978000219318
