16
Coordinates from ORCA-job run
  C   -0.55681553108548      0.14235781035957     -0.18459797071153
  C   0.85826012378448     -0.35733429069940      0.17882361536070
  Br  -0.29173042647085      1.94014811259588     -1.08725819023035
  H   0.75625603940737     -1.40836188948558      0.47222343618817
  C   -1.36719822286610      0.40997646046888      1.07287718869479
  H   -2.37230953228882      0.72838994192097      0.78921113389156
  H   -0.92163571026690      1.19165144357864      1.68518267521354
  H   -1.44529239316034     -0.51576292568984      1.65018470196881
  N   -1.21401592169942     -0.80940973349926     -0.99115247613552
  H   -0.70339722210194     -1.03490647281801     -1.83481248735338
  H   -2.15469744452873     -0.51302899411104     -1.21673764391528
  C   1.47227468507422      0.40877872116647      1.25354898240875
  N   1.92981727521044      0.98757561307186      2.16722120397588
  N   1.78506673973060     -0.37603313620805     -1.02362337487557
  O   1.42398796992258     -1.09644072310583     -1.94983905128873
  O   2.80142957133888      0.30040006245476     -0.98325174319183
