16
Coordinates from ORCA-job run
  C   -0.61410511036862      0.09046713726601     -0.45081098884472
  C   0.94066198356480      0.23288162670489     -0.34407664070193
  Br  -1.00124284992600      0.71348493847980     -2.27812424054126
  H   1.25807813934625      1.23769228957025     -0.62397607751227
  C   -1.29583883636291      1.01224496761941      0.54417107745296
  H   -0.91605025090309      2.03209584598131      0.47254524992680
  H   -2.36693657925029      1.00733540199951      0.34653792293555
  H   -1.13225471152496      0.64780986342833      1.56324122394626
  N   -1.12967086934989     -1.23526715275032     -0.33092677426967
  H   -0.70878457686029     -1.87134855119525     -0.99860608962591
  H   -0.97953387033442     -1.59015819348982      0.60695406502375
  C   1.62549136050441     -0.78063451933027     -1.13179821179281
  N   2.14335112259855     -1.61594421342318     -1.77498995802179
  N   1.32140904397438      0.07260941524621      1.10734089639003
  O   1.65130877470373      1.09455851053731      1.70043642536074
  O   1.20411723018834     -1.04982736664418      1.59208212027427
