16

C	0.0	0.0	0.0
C	-0.39595	-0.014791	-1.47369
Br	1.992231	0.0	0.0
H	0.220386	0.791564	-1.936984
N	-0.490048	1.231438	0.679757
H	-0.150681	2.08073	0.205647
H	-0.198579	1.213624	1.656982
N	-0.406166	-1.280108	0.718256
O	-1.439037	-1.95187	0.284735
O	0.315154	-1.664483	1.662505
N	-1.81245	0.385954	-1.762289
O	-2.734381	-0.489163	-1.969686
O	-1.941214	1.671644	-1.821253
C	-0.102111	-1.247477	-2.19874
N	0.104746	-2.081796	-3.003889
H	-1.546104	0.0	0.0
