19

C	0.0	0.0	0.0
C	-0.54518	0.017497	-1.433671
F	1.402895	0.0	0.0
H	-1.646533	0.074902	-1.238778
C	-0.472888	1.237122	0.738096
H	-1.567841	1.182137	0.720894
H	-0.107316	2.144481	0.249662
H	-0.092589	1.21795	1.764144
C	-0.479731	-1.245115	0.720174
H	-0.055966	-2.150489	0.27929
H	-0.16396	-1.197506	1.766939
H	-1.574383	-1.215453	0.647721
C	-0.175896	-1.227363	-2.248214
H	-0.439263	-1.092375	-3.300144
H	0.898725	-1.423838	-2.183792
H	-0.720798	-2.094777	-1.873958
C	-0.080364	1.207392	-2.143766
N	0.316895	2.133685	-2.749322
F	-2.976229	0.0	0.0
