19

C	0.0	0.0	0.0
C	-0.248212	-0.011313	-1.549997
F	1.404616	0.0	0.0
H	0.538656	0.656146	-1.925334
C	-0.540837	1.2773	0.597207
H	-0.187217	2.155205	0.047496
H	-1.635928	1.186506	0.54684
H	-0.216406	1.362914	1.639218
C	-0.571256	-1.198652	0.710582
H	-1.662758	-1.111556	0.588034
H	-0.190436	-2.133993	0.295501
H	-0.315478	-1.152898	1.77409
C	-1.599756	0.47008	-2.091916
H	-1.684758	0.20005	-3.14897
H	-1.633679	1.560784	-2.018148
H	-2.433595	0.090686	-1.472454
C	0.08819	-1.333833	-2.088336
N	0.360192	-2.384861	-2.538029
F	-3.252549	0.0	0.0
