19

C	0.0	0.0	0.0
C	-0.248853	-0.081739	-1.548124
F	1.405645	0.0	0.0
H	0.546775	0.556332	-1.953904
C	-0.538311	1.303432	0.539653
H	-0.183306	2.15543	-0.048773
H	-0.2125	1.434757	1.576512
H	-1.63354	1.211661	0.493786
C	-0.570206	-1.164108	0.765943
H	-0.191727	-2.117785	0.39217
H	-0.310539	-1.070695	1.825509
H	-1.661948	-1.08109	0.641574
C	-1.592613	0.393389	-2.11273
H	-2.431721	0.038011	-1.486977
H	-1.617783	1.486106	-2.06877
H	-1.672639	0.094949	-3.16308
C	0.069815	-1.4319	-2.025062
N	0.323975	-2.503061	-2.436048
F	-3.241553	0.0	0.0
