19

C	0.0	0.0	0.0
C	-0.237551	0.103239	-1.548111
F	1.404465	0.0	0.0
H	0.515321	0.840084	-1.858144
C	-0.548393	1.226936	0.687261
H	-1.643284	1.134197	0.625774
H	-0.228072	1.238679	1.734173
H	-0.197711	2.144216	0.203482
C	-0.56965	-1.251384	0.613891
H	-0.194776	-2.14985	0.11888
H	-0.303761	-1.295834	1.675107
H	-1.661741	-1.152862	0.508049
C	-1.607849	0.549004	-2.070938
H	-1.674689	0.340478	-3.143354
H	-2.428288	0.104274	-1.479709
H	-1.69782	1.629815	-1.929173
C	0.182299	-1.151945	-2.182174
N	0.5218	-2.142072	-2.716426
F	-3.251775	0.0	0.0
