14
Coordinates from ORCA-job run
  C   0.87403782226447      0.50865773398646      0.43245886511453
  C   -0.58205461572181      0.39593806036481     -0.00805049391525
  F   1.11678686088149     -0.26202606582200      1.51365527629321
  H   -0.69911818559462      1.03596005788318     -0.88827316090684
  H   1.18264350320251      1.53606850533489      0.63300904792023
  N   1.73499958920574      0.02925087091237     -0.71516151032042
  O   1.68524451145113      0.74403737023424     -1.71118561832528
  O   2.36635039465723     -1.00719170480269     -0.57495393885608
  C   -1.42541127135096      0.92929183661364      1.06327689693857
  N   -2.10576862593454      1.34587463737826      1.92430934869643
  C   -0.96338591488242     -1.04771257679502     -0.35105026293120
  H   -0.76800086756103     -1.70738045108219      0.49434200374988
  H   -0.39287564664088     -1.39852304462318     -1.21265761480144
  H   -2.02344755397630     -1.10224522958277     -0.59971883865635
