14
Coordinates from ORCA-job run
  C   0.92519152298535     -0.06973833228229     -0.34414990201262
  C   -0.53111527580816      0.16669167471845      0.02438949768434
  F   1.07706915608712      0.07815502787601     -1.68648539614501
  H   -0.76510247095641      1.18890015070779     -0.29307215161925
  H   1.31046902096554     -1.04037122729617     -0.03049058101173
  N   1.78295852098661      0.96975494199553      0.33052203698182
  O   2.53219829379108      0.57116167787561      1.21769192106868
  O   1.63439654316259      2.12404270067816     -0.05487982948161
  C   -0.68266975863196      0.08503378740768      1.47767242075391
  N   -0.81773283818636     -0.00850830090490      2.64023541639146
  C   -1.44504445361016     -0.83359525527249     -0.68948125609758
  H   -1.33001533034122     -0.73512461644432     -1.76887598260901
  H   -1.20260596503515     -1.85710187527574     -0.39604576195099
  H   -2.48599696540886     -0.63930035378330     -0.42903043195241
