14
Coordinates from ORCA-job run
  C   0.92850254028790     -0.06522005036150     -0.33652173314983
  C   -0.53240331922800      0.16293352437629      0.01914695867710
  F   1.08958860792874      0.07278234912068     -1.67884738725606
  H   -0.77189807561952      1.18069611994932     -0.30832689067668
  H   1.31880861986739     -1.03026321451788     -0.01186370044872
  N   1.77280035020024      0.98652586649222      0.33615861891761
  O   1.61754333472727      2.13641958345077     -0.05913806937563
  O   2.51898510952017      0.60068709858460      1.23139469052191
  C   -0.69422404167227      0.09133547611694      1.47184574217203
  N   -0.83817123778796      0.00401233836584      2.63377646862427
  C   -1.43353548640411     -0.85001920469816     -0.69308764284930
  H   -2.47808214968802     -0.65814834573533     -0.44596637376637
  H   -1.30766401200688     -0.76304041499448     -1.77209469667522
  H   -1.18925024012495     -1.86870112614932     -0.38547598471510
