14
Coordinates from ORCA-job run
  C   0.75541969798022      0.62649097732155     -0.62099274163599
  C   -0.68422071547350      0.26677564756661     -0.26960817073032
  F   0.88812914650665      1.96813613633341     -0.73080197080259
  H   -1.28505550896040      0.71346393821967     -1.07089407712153
  H   1.08045392283442      0.14265514107677     -1.54300816137468
  N   1.69481033718935      0.13737751117655      0.45365858777824
  O   2.02885974512726     -1.04033748391770      0.34641371727278
  O   2.01155719958076      0.92280791896569      1.33551904296474
  C   -1.07916138655018      0.91845090970464      0.98203096276342
  N   -1.42903846409553      1.43193419515438      1.97787567094748
  C   -0.94284794712911     -1.24227560531736     -0.22092016209326
  H   -0.40957403365866     -1.71002396341726      0.60532932602266
  H   -0.61861631851719     -1.71246692735757     -1.15125425328629
  H   -2.01071567483411     -1.42298839550938     -0.09334777070466
