14
Coordinates from ORCA-job run
  C   0.95249004051663     -0.06910852971584     -0.26049862370064
  C   -0.53212645192212      0.16194275959053     -0.02617321210337
  F   1.22037656932929      0.05059549815972     -1.58748491696086
  H   -0.74481060894940      1.17476253416242     -0.38602440383614
  H   1.31620967699780     -1.02884752431076      0.10788741749481
  N   1.74001867030511      0.99337661954699      0.46273904304158
  O   1.61280111232671      2.13788246955601      0.04264834426403
  O   2.41529656222746      0.62082177807165      1.41783955507911
  C   -0.80977524436743      0.11167211662030      1.40984564212594
  N   -1.04659474686452      0.04267099725560      2.55777035282279
  C   -1.37336548745262     -0.86215664453368     -0.79346034175349
  H   -2.43429266003341     -0.66845294634674     -0.63247624393656
  H   -1.15374373155248     -1.87616845945802     -0.45331496688732
  H   -1.16248370056103     -0.78999066859816     -1.86029764564988
