14
Coordinates from ORCA-job run
  C   -0.71248542809986     -0.24053295240266     -0.21499717398876
  C   0.75224597469571      0.22277428397600     -0.20293071510384
  F   -1.28366486638333      0.42934228813295     -1.32220480534946
  H   1.20094946647039     -0.18947914372000     -1.12332620641623
  N   -0.80079581822728     -1.63955567975387     -0.31699145361779
  H   -1.75362225843125     -1.97319901143223     -0.25899454603337
  H   -0.35602276637133     -1.98486203123689     -1.15773925307104
  C   -1.43499891688580      0.23072691696759      0.97769968223981
  N   -2.04831341009006      0.59237313340450      1.91043422111493
  C   1.45432037213490     -0.36687148885456      0.93950891058457
  N   2.06290408415357     -0.82285125895781      1.83332847579628
  N   0.78327266930759      1.67136648685451     -0.11349182118044
  H   0.40786276310790      2.06988892793563     -0.96463143423361
  H   1.73134813461886      2.00087952908685      0.01433611925896
