14
Coordinates from ORCA-job run
  C   -0.69686598011622     -0.35993421657183     -0.20933658579173
  C   0.57201551680167      0.47685808426941      0.05739748468503
  F   -0.24870640258942     -1.47068832185457     -0.96670055438301
  H   0.24693808618715      1.41645605337956      0.51382570690617
  N   -1.29159500032664     -0.73278865336043      0.98188231216345
  H   -2.28836966035215     -0.76048174310608      1.07534225562687
  H   -0.70917081310602     -0.75520353758297      1.80057841280266
  C   -1.63409576521585      0.37589462043802     -1.07633316068551
  N   -2.38682844613564      0.98736408679179     -1.73792006393773
  C   1.26398948485900      0.78730203759878     -1.20647677898784
  N   1.87325841990937      1.03762517993456     -2.17887053628075
  N   1.38143436248487     -0.24860430780642      1.02436438196670
  H   2.15309069597407      0.32708246393537      1.33765043419235
  H   1.76390550162582     -1.07888174606519      0.58559669172334
