14
Coordinates from ORCA-job run
  C   -0.52801580703674     -0.48365167912043     -0.19398015242006
  C   0.63094250290630      0.51639195321124     -0.01396463370236
  F   -0.05210996790857     -1.64931288812877     -0.72822026786497
  H   0.17609433681085      1.44558183559129      0.37278862623109
  N   -1.07212550835809     -0.80432149160734      1.10103136580088
  H   -1.62558304513995     -0.03344362394110      1.45795258182672
  H   -1.67275691457653     -1.61702252602802      1.01604460811443
  C   -1.53085121681258      0.06919944662627     -1.13903978943487
  N   -2.37106889869956      0.53255699805861     -1.81707365503524
  C   1.21563099077697      0.83137430318656     -1.32369401334567
  N   1.69512547919141      1.10845748357910     -2.35826977762327
  N   1.63050679754344     -0.08495692430566      0.84634207490479
  H   2.33132277537788      0.59918390487836      1.10065665300365
  H   1.17188847592515     -0.43103679200010      1.68042637954488
