14
Coordinates from ORCA-job run
  C   -0.66257695941713     -0.32422518361040     -0.39532680361362
  C   0.67841351132472      0.43265188696654     -0.26081574098341
  F   -0.66056013652876     -0.82951316815896     -1.70934984797241
  H   0.72071289509839      1.10098991285827     -1.13364051790603
  N   -0.83346730556443     -1.30322267963946      0.58926434066769
  H   -0.03026648694922     -1.91194752314212      0.67722481953314
  H   -1.68417924770266     -1.83454698984991      0.46253579306573
  C   -1.77136279896513      0.65051197883411     -0.33155375073840
  N   -2.61533564925526      1.46419609767718     -0.26933801494300
  C   1.76607496733072     -0.54455418731264     -0.40257003703978
  N   2.63394298409706     -1.32928707136438     -0.49456536487884
  N   0.78097395015489      1.08577200052362      1.03207883203281
  H   0.02346107898177      1.75039449332028      1.14432348776427
  H   1.65516919739504      1.59378043289788      1.09073280501183
