14
Coordinates from ORCA-job run
  C   -0.67043331051208     -0.30798975944075     -0.40852731867421
  C   0.61351848072802      0.53790947916947     -0.35678105383413
  F   -0.69832125946390     -0.91263613217648     -1.67241120000015
  H   0.60015052988158      1.19773320410563     -1.22873554767733
  N   -0.68371129956866     -1.24294256630659      0.65133709053444
  H   0.04979181567567     -1.93273210461133      0.52845300231589
  H   -1.57892455068183     -1.70644742498152      0.73758940386852
  C   -1.85145455156579      0.56885185295392     -0.32358887106366
  N   -2.81923700311894      1.23225724777774     -0.30467922811546
  C   1.76685196004282     -0.37892076201344     -0.48600607371958
  N   2.68342875672431     -1.11343295566580     -0.51327100763148
  N   0.59076510503748      1.33496249729332      0.84765733302163
  H   1.36113552823878      1.99023074478223      0.86694967619462
  H   0.63643979858254      0.73515667911361      1.66201379478090
