14
Coordinates from ORCA-job run
  C   -0.62902209908401     -0.41547991088146     -0.25224443657623
  C   0.46020009366523      0.60463954919587      0.12717522042337
  F   0.06418654538986     -1.55277428107152     -0.72350348219502
  H   -0.05364204254072      1.50444231751187      0.47635905611554
  N   -1.42928806892096     -0.67454580509375      0.87029441145910
  H   -2.11806140190178     -1.39340301973687      0.69344170919324
  H   -0.84011958546060     -0.90032295192960      1.66294226156494
  C   -1.44943810734400      0.06562400384333     -1.37754349996218
  N   -2.10406155144778      0.45842756355699     -2.26905872234659
  C   1.27377833116268      0.95102090085444     -1.05158429849533
  N   1.97875732368677      1.22792701413048     -1.94923524341935
  N   1.22135825058892      0.04008636895406      1.23161845623816
  H   1.84890485849157     -0.67426652113160      0.88147304327317
  H   1.77544745371482      0.75862477179776      1.67986552472718
