14
Coordinates from ORCA-job run
  C   -0.71076993902179     -0.40183215534660     -0.47593513429785
  C   0.60012553218049      0.42554363225686     -0.35371870310814
  F   -0.71045471338855     -0.95283066020906     -1.73721453560905
  H   0.64575266794214      1.10956880219199     -1.21285305346099
  N   -0.88400944265237     -1.45065061616992      0.47109297769640
  H   -0.84991167023296     -1.06632515388157      1.40839312678158
  H   -0.13830348447083     -2.13066083251935      0.36192307051808
  C   -1.83213956567275      0.55764273415417     -0.36772163602457
  N   -2.66832177740893      1.37602245489395     -0.27381145211605
  C   1.72586271719291     -0.50493258978646     -0.44456947286579
  N   2.61214119675629     -1.27326758595599     -0.48759961365805
  N   0.58752873195249      1.08042612738971      0.95048021127971
  H   1.52757324589433      1.26822502032580      1.27372966404392
  H   0.09392650092953      1.96307082265648      0.88680455082079
