14
Coordinates from ORCA-job run
  C   -0.61315730976148     -0.30242036775382     -0.40402845467679
  C   0.72158655269179      0.48688111057141     -0.35841315203136
  F   -0.70346544981572     -0.87538631841467     -1.67850338250058
  H   0.74326745087544      1.12333994551812     -1.24814863720497
  N   -0.66849439574048     -1.24632704770272      0.64299265730782
  H   0.05533476062191     -1.94868564050401      0.53575506032759
  H   -1.57430922743927     -1.69223836654856      0.70978628179806
  C   -1.72888419602711      0.65376816868483     -0.27568068926604
  N   -2.58898555763749      1.44697757477691     -0.18030753231839
  C   1.81010172301231     -0.49537003144614     -0.47292629059527
  N   2.63939290989873     -1.32431942898219     -0.52704574986878
  N   0.90862897864462      1.30355893222849      0.81779303114898
  H   0.29474904429799      2.10799421206802      0.79024684842064
  H   0.70423471637876      0.76222725750432      1.64948000945911
