14
Coordinates from ORCA-job run
  C   -0.67743189391139     -0.22499004860254     -0.37177812150368
  C   0.76513017484953      0.28686594232783     -0.23345380166375
  F   -1.20170708369723      0.40519196327946     -1.48892788744177
  H   1.26667015413129     -0.05066764941805     -1.15278045083547
  N   -0.69022467326684     -1.62889330005902     -0.62895274715641
  H   -1.64403918402560     -1.95703045596509     -0.72784309824628
  H   -0.24666960472370     -2.14259545617946      0.12377427612896
  C   -1.49943033502716      0.20555373094221      0.78467140483006
  N   -2.17707519842289      0.44243275014371      1.71432189212547
  C   1.40435234557782     -0.37482345856965      0.90640702096131
  N   1.91227250678357     -0.93345873764549      1.80532289579594
  N   0.73021089734001      1.72440034233340     -0.03227657452177
  H   1.65426589404787      2.07804600431848      0.18072277077257
  H   0.40167600034473      2.16996837309421     -0.88020757924518
