14
Coordinates from ORCA-job run
  C   -0.62399342182043     -0.32629299960454     -0.36641023860100
  C   0.69921233703412      0.48229443085108     -0.40566115803019
  F   -0.75642433263662     -0.95052711436287     -1.61278870931762
  H   0.67388273904432      1.08567507409779     -1.31808483199480
  N   -0.62283466057190     -1.22852999691316      0.71808962258363
  H   0.10668104157901     -1.92450410935467      0.60904689155627
  H   -1.51823965851970     -1.68360236495156      0.83970618336380
  C   -1.74855537668056      0.61846251340268     -0.23078694764835
  N   -2.61734583159252      1.40164332907718     -0.13202282339732
  C   1.79713729367357     -0.48830020883729     -0.53021069028702
  N   2.63530231817626     -1.30794850647422     -0.58880679075357
  N   0.92122216858518      1.34423103819223      0.73148764138657
  H   0.75017250313268      0.83346412605256      1.58949322580761
  H   0.30178288059659      2.14393478882480      0.69494862533198
