14
Coordinates from ORCA-job run
  C   -0.70845779841448     -0.26497274814001     -0.20240595911636
  C   0.74349437803616      0.23672207843273     -0.21910175677363
  F   -1.30777650750900      0.35750230906265     -1.32225779848955
  H   1.19266375994178     -0.18755007399970     -1.13376992483893
  N   -0.76123988819790     -1.66827927510122     -0.26346066437654
  H   -1.70524537049499     -2.02340419697440     -0.18781567395647
  H   -0.31584694355786     -2.02472813356451     -1.09920529151639
  C   -1.43056744254141      0.22110625436661      0.98460412279098
  N   -2.03912259625436      0.57246705987427      1.92438613769640
  C   1.47278842908741     -0.30252939788692      0.93114507993341
  N   2.10131758551191     -0.70440694340993      1.83699984161360
  N   0.73643320329779      1.68754926241776     -0.16831050726034
  H   0.34665928557326      2.05311086841406     -1.02776354908723
  H   1.67589990552170      2.04541293650861     -0.05404405661894
