14
Coordinates from ORCA-job run
  C   -0.68882857499325     -0.32548155238130     -0.36352518812267
  C   0.60128749707577      0.51097839983735     -0.40995401808051
  F   -0.77037733393701     -0.99985571884872     -1.58945058837877
  H   0.55693596442749      1.12134106344909     -1.31624970300041
  N   -0.66632418230270     -1.19959014090053      0.74681845122423
  H   0.05825942088016     -1.90053135499003      0.63456263020520
  H   -1.55995810114298     -1.65143200102974      0.89202765322179
  C   -1.85952819452365      0.56543560309933     -0.28321221490692
  N   -2.82050945017088      1.23886194115221     -0.27079802665756
  C   1.74409006579327     -0.41983057786896     -0.53216197248438
  N   2.66005613678892     -1.15544896591321     -0.54859922770104
  N   0.63170752179074      1.37386985258672      0.74803145156666
  H   0.70595221411051      0.81996548815393      1.59221053169388
  H   1.40623701620359      2.02271796365387      0.70030022142052
