14
Coordinates from ORCA-job run
  C   -0.69284954583788     -0.34845554391733     -0.32767894254365
  C   0.58163437045621      0.50390589931310     -0.44984432541199
  F   -0.80439447024318     -1.07243031937037     -1.52213063738312
  H   0.50075521711260      1.07471470122457     -1.37917110573501
  N   -0.61974485580448     -1.17656495031354      0.81554112695350
  H   -1.50163918519243     -1.63234078460977      1.01116789901914
  H   0.10967019622882     -1.87285736394968      0.70584050597202
  C   -1.87577995893532      0.52571670253395     -0.23958187460468
  N   -2.85913616207033      1.16428671943018     -0.19251279356764
  C   1.73426853982600     -0.41468162059143     -0.57287571715839
  N   2.65852022341595     -1.13839332684021     -0.62118158602342
  N   0.63288538527176      1.41631240751607      0.66898061919925
  H   1.39808112692102      2.07076816685133      0.57188266432488
  H   0.73772911885126      0.90001931272312      1.53356416695911
