14
Coordinates from ORCA-job run
  C   -0.69739099438738     -0.28820981877911     -0.43452302451749
  C   0.71398666401321      0.32634251478893     -0.36302469670000
  F   -1.28520435396375      0.15268033337375     -1.59334361436051
  H   1.16671584234742      0.06809101763703     -1.32475147429195
  N   -0.61646807831720     -1.71323050751646     -0.51659699697145
  H   -0.19690737438291     -2.11309867683128      0.31436470711242
  H   -1.54388945460176     -2.10412330332852     -0.63621765189558
  C   -1.51540141406691      0.22969017858658      0.69403685351622
  N   -2.11895842669736      0.59500395183187      1.63355308273715
  C   1.47752247999088     -0.33621743707244      0.71196564736235
  N   2.06426007691660     -0.83100990748425      1.60182748018917
  N   0.62422225565470      1.76578614331574     -0.24647785336851
  H   1.48320414332030      2.20275466856218     -0.55302562306445
  H   0.44430863417414      2.04654084291596      0.71021316425263
