14
Coordinates from ORCA-job run
  C   -0.69235870232362     -0.36415149743791     -0.52958953281529
  C   0.62260507657816      0.43384394361867     -0.29990764268659
  F   -0.63812078142506     -0.84718618988009     -1.81732661271214
  H   0.71980870879602      1.16229449506503     -1.11717930874397
  N   -0.92611436725841     -1.45882405199475      0.34991980373571
  H   -0.18523916029141     -2.14394752064400      0.24025616081825
  H   -0.93271553489949     -1.12584713878020      1.30724857183911
  C   -1.80330924541456      0.60783227933704     -0.42514023524245
  N   -2.62585681582542      1.44054435271526     -0.33631486158704
  C   1.73746551170203     -0.51000437719856     -0.38737300201140
  N   2.61032866377278     -1.29357327047474     -0.43116813449707
  N   0.55510287524091      1.01793639151361      1.03577758247715
  H   0.07794762207229      1.91094515212772      0.99629025438334
  H   1.48045614927579      1.17213743203293      1.41450695704239
