14
Coordinates from ORCA-job run
  C   -0.59423713880537     -0.37970744680410     -0.12804372842257
  C   0.65500779863472      0.53479158284406     -0.16928236880613
  F   -0.11737775990553     -1.69099654328920      0.04380898714268
  H   0.29964812277438      1.54319226903872     -0.40292103617103
  N   -1.45596178808686      0.02189919727500      0.91741794735923
  H   -2.32135368084784     -0.50312041720638      0.90712629084986
  H   -0.99989964362186     -0.10227830750980      1.81238218022087
  C   -1.31485892540296     -0.34025676044815     -1.41085643515267
  N   -1.88639428507321     -0.28978296331059     -2.43513928975009
  C   1.53688611081702      0.09169804715669     -1.25933329484220
  N   2.24245107911421     -0.26808581216380     -2.12509646651627
  N   1.40152282253993      0.58703703588139      1.06702824042151
  H   1.62533115885922     -0.33814299861759      1.40915932655405
  H   0.92923612900414      1.13375311715374      1.77274964711277
