14
Coordinates from ORCA-job run
  C   -0.61939852564671     -0.48422219051556     -0.45756666950992
  C   0.64206096814521      0.39840065547105     -0.37490021919663
  F   -0.60275373245134     -1.13540935255738     -1.67355810768151
  H   0.62735901659160      1.05508325310996     -1.25593018332556
  N   -0.60715601126692     -1.42994391089380      0.59383268709317
  H   -0.32312926116164     -0.97488815829289      1.45377271310370
  H   -1.50010633453677     -1.89050527383891      0.70954131045705
  C   -1.80350617388867      0.41727304115043     -0.47328434820058
  N   -2.71308626867304      1.15882716273755     -0.41248087737815
  C   1.83049046938275     -0.45329931116996     -0.47471704357310
  N   2.82182605793374     -1.07668243898341     -0.54789916184311
  N   0.63226692631746      1.09840880393318      0.90664924060630
  H   0.04765973527899      1.92415143900293      0.84340764475463
  H   1.56647313397534      1.39180628084681      1.16213301469370
