14
Coordinates from ORCA-job run
  C   -0.60707714197200     -0.44490372366604     -0.51193167753785
  C   0.66031072011305      0.41298821684247     -0.32303065772170
  F   -0.54989590326034     -1.01492393859902     -1.76713818722096
  H   0.68631049339321      1.12687177130555     -1.15809513811513
  N   -0.64685187074652     -1.45700422615831      0.47441184341656
  H   -1.54906173324980     -1.91066496301614      0.52809096600940
  H   -0.38648530277849     -1.06485871805542      1.37186509970887
  C   -1.77872761287992      0.47281865734578     -0.51477764224399
  N   -2.67869309274898      1.22477570109375     -0.44071831524005
  C   1.84190540529702     -0.44665771621005     -0.43432904353185
  N   2.82816573720999     -1.07786324939678     -0.50934397679694
  N   0.60970801111008      1.02574668963237      1.00147942657608
  H   0.03128706929743      1.85788029612106      0.97422298335917
  H   1.53610522121529      1.29479520276079      1.30729431933840
