14
Coordinates from ORCA-job run
  C   -0.69775782303584     -0.35483984627374     -0.52121553276059
  C   0.58474561570215      0.49462455178430     -0.33726248898556
  F   -0.61693052460210     -0.89486217802936     -1.79126121867079
  H   0.58477968330749      1.26638732895638     -1.11256228070629
  N   -0.88168866201085     -1.41576307949809      0.40566251642024
  H   -0.04929210680741     -1.98502357544014      0.50249480923484
  H   -1.22008770486355     -1.09430110744208      1.30164932392844
  C   -1.86018613074422      0.55351035871122     -0.46555143253162
  N   -2.77632847323876      1.28651708278783     -0.45538951227670
  C   1.75203963321932     -0.37994190928001     -0.54243820578931
  N   2.67059001235217     -1.10914722062969     -0.61128799144956
  N   0.53429704140979      1.11934182960669      0.97205605524270
  H   0.93877066919500      0.51858585244456      1.67832234623995
  H   1.03704877011680      1.99591191230212      0.97678361210425
