14
Coordinates from ORCA-job run
  C   -0.54274480746017     -0.61250362231051     -0.01759169167211
  C   0.45218119021896      0.55761951351146     -0.17484159535207
  F   0.26235250458035     -1.76517203991863      0.09540683114006
  H   -0.13655726795648      1.44913607548811     -0.41172963594782
  N   -1.35087965374728     -0.43604380978252      1.10071633171716
  H   -1.01432028952256      0.22815908980450      1.77812930320242
  H   -2.34177964237076     -0.56340332757685      1.01329429079993
  C   -1.34102984675002     -0.77744288491202     -1.24523637264721
  N   -1.99575277165122     -0.87088603633453     -2.21527232611204
  C   1.38093678909115      0.30325421218181     -1.29071466138961
  N   2.16492005378737      0.13670055595334     -2.14922630401269
  N   1.09678816450701      0.76303286817415      1.11233635987069
  H   1.71009612177120     -0.01942777296805      1.31146541824521
  H   1.65578945550246      1.60697717868974      1.09526405215808
