14
Coordinates from ORCA-job run
  C   -0.73949575853609     -0.32274360047144     -0.25934543759091
  C   0.67965160074732      0.27480547942326     -0.35448457935979
  F   -1.41893394421645      0.10437090036338     -1.40060420560265
  H   1.07201215746129     -0.06496170250485     -1.32012601457271
  N   -0.68438787717231     -1.72780227794903     -0.14402700527690
  H   -1.60405741925030     -2.13450445812922     -0.03246414981900
  H   -0.21801229409241     -2.14435221983529     -0.94066310913776
  C   -1.44476578661878      0.25064989484661      0.90311163897243
  N   -1.97803807316059      0.73556580977094      1.82947321355794
  C   1.53110612410596     -0.27441334866003      0.71765333727535
  N   2.25231978374377     -0.61795169564747      1.57900529322325
  N   0.60921913100853      1.72161220704744     -0.37995296652766
  H   1.46553528912006      2.10978257773892     -0.75335693361201
  H   0.47884706686000      2.08894243400677      0.55578091847042
