14
Coordinates from ORCA-job run
  C   -0.66615591110789     -0.25854333394639     -0.22976638660720
  C   0.79458719725134      0.24931958657922     -0.29713474544665
  F   -1.32818005738433      0.43185409065629     -1.27075808870592
  H   1.17339054717908     -0.08606301717657     -1.27187747344793
  N   -0.73440316984423     -1.65364559511448     -0.36050464339136
  H   -1.67816139158851     -2.01046642847617     -0.29189494012498
  H   -0.29335457436715     -1.97672255913907     -1.21197194049105
  C   -1.30335406399287      0.18001803572932      1.02351654616597
  N   -1.78191278125091      0.56878185618653      2.02249148284995
  C   1.58687342433943     -0.39801817746225      0.75302689783525
  N   2.22463087666819     -0.89043122357140      1.60616689499683
  N   0.95133085644444      1.68452205506634     -0.22671411098728
  H   0.37284704761558      2.12632508834896     -0.93009217014676
  H   0.68386200003782      2.03306962231967      0.68651267750112
