14
Coordinates from ORCA-job run
  C   -0.64139143976533     -0.34122589201871     -0.32031493898743
  C   0.68025044061199      0.45871080785746     -0.46249708445653
  F   -0.83509602456645     -1.02430679810748     -1.52720874691436
  H   0.61368487497115      1.01475764062221     -1.40248115431433
  N   -0.58976589622373     -1.18981630213677      0.80536990132869
  H   -1.47938393992979     -1.63337731321961      0.99366442118983
  H   0.13187945970570     -1.89400852603642      0.69591366603749
  C   -1.75592934614207      0.61410360925338     -0.17685293052792
  N   -2.61788832810654      1.40453174222346     -0.07537009071002
  C   1.76895173526199     -0.52211166037503     -0.58776302047851
  N   2.60207887784384     -1.34718442339376     -0.64038740749565
  N   0.95747519100177      1.37641423517483      0.61736092108377
  H   0.83060135329738      0.90977055306641      1.50761064597714
  H   0.33553304204010      2.17374232709003      0.57195581826783
