14
Coordinates from ORCA-job run
  C   -0.61690726497385     -0.49947740583041     -0.04900975950133
  C   0.47619214574709      0.57689103273608     -0.18336386427713
  F   0.06107388958054     -1.68678407299482      0.30528909413919
  H   -0.02287992175985      1.50254263364920     -0.48297041459918
  N   -1.55623118399764     -0.08573136714175      0.90721091887990
  H   -1.07708016393148      0.19339328291734      1.75517111559326
  H   -2.25981854480999     -0.79010732325344      1.08420045216072
  C   -1.27235182570852     -0.76486593066784     -1.34157252016463
  N   -1.79699063234154     -0.96296959687836     -2.37274453926221
  C   1.44249402250521      0.19952902277158     -1.22991077789754
  N   2.26339556980686     -0.07851193045358     -2.02250740393652
  N   1.06731900763961      0.76654168531976      1.13266480517537
  H   1.69771932184866      0.00012603854052      1.33694159075292
  H   1.59506558039489      1.62942393128572      1.16060130293718
