14
Coordinates from ORCA-job run
  C   -0.50531964006792     -0.44965218367854      0.05126018876250
  C   0.64814536744281      0.54620989240663     -0.23154164564805
  F   0.04895316312805     -1.62050494603829      0.51975320622120
  H   0.18907460385558      1.49136672380040     -0.54828217626221
  N   -1.32111431866271      0.07830579036653      1.11026162487080
  H   -1.96412997043938     -0.63791413556860      1.43037709665866
  H   -1.86431886399538      0.86888281383378      0.78150648444156
  C   -1.25400685647154     -0.77102204579355     -1.18539916854662
  N   -1.89089374612143     -0.96299616451014     -2.15429076134755
  C   1.46205581682361      0.04453178877506     -1.34453167838899
  N   2.11311401601630     -0.37214152032820     -2.22744503394792
  N   1.48596218546767      0.79492896867969      0.92223149099597
  H   0.88694390350859      1.05091672926205      1.69947572219506
  H   1.96653433951569     -0.06091171120682      1.17562464999558
