14
Coordinates from ORCA-job run
  C   -0.50216027450106     -0.45359335093918      0.05231259976086
  C   0.64414818070126      0.54957104506223     -0.23327143421824
  F   0.06071560269726     -1.62224368373765      0.51566177746339
  H   0.17830710007059      1.49200990401902     -0.54826395424847
  N   -1.31678624934191      0.06688837488610      1.11575423929327
  H   -1.86712320542654      0.85404559982010      0.79081092102675
  H   -1.95314743715052     -0.65447034219492      1.43760240695266
  C   -1.25440398411799     -0.77467264780600     -1.18262512033404
  N   -1.89888349814367     -0.95537272396579     -2.14865863875854
  C   1.45730172767995      0.05327321170447     -1.34939933181801
  N   2.11030881220656     -0.36177300437037     -2.23180834997500
  N   1.48463990027607      0.80250690826076      0.91732921361275
  H   0.88736825308007      1.05518628124411      1.69704541489075
  H   1.97171507196995     -0.05035557198289      1.16851025635188
