14
Coordinates from ORCA-job run
  C   -0.51501632675768     -0.61036772587996     -0.17879563924079
  C   0.39808752677840      0.62308099677056     -0.00950188922848
  F   0.34570525392605     -1.64846223523684     -0.59632161922451
  H   -0.25425581751044      1.48339447501936      0.16848701341171
  N   -1.16059886199787     -0.91963113691364      1.01232701443429
  H   -0.75737682123540     -0.52233931696370      1.84448029192254
  H   -2.14358306968438     -1.11718053090333      1.00368454388272
  C   -1.47311861148872     -0.39543098242802     -1.27752217191813
  N   -2.25494933648617     -0.19585280509709     -2.13032229996348
  C   1.16953201004403      0.87127977117181     -1.24058933627611
  N   1.83191186081797      1.09610558374620     -2.18410273647252
  N   1.21013611304356      0.41023831711617      1.17804800664814
  H   1.72189744436166      1.25240388158240      1.40987854563006
  H   1.88062863618900     -0.32923829198392      1.00025027639456
