17

C	-0.435546	-0.051309	-1.451186
C	0.0	0.0	0.0
Cl	-2.190645	-0.338462	-1.670945
H	1.09197	0.0	0.0
N	-0.116019	1.352617	-2.028373
O	-0.990285	2.204467	-1.977374
O	1.027972	1.496942	-2.433275
C	0.298599	-1.010768	-2.271549
N	0.839821	-1.756905	-2.999388
N	-0.399407	-1.258663	0.655876
O	-0.697436	-1.230617	1.851531
O	-0.355571	-2.292818	-0.017448
C	-0.470555	1.211704	0.768608
H	-1.553083	1.361946	0.735357
H	0.034297	2.096098	0.381679
H	-0.157407	1.087593	1.802794
F	2.463104	0.0	0.0
