17

C	-0.549566	0.018544	-1.408355
C	0.0	0.0	0.0
Cl	0.196907	1.365481	-2.308706
H	1.090443	0.0	0.0
N	-0.172074	-1.241338	-2.215396
O	-0.937839	-1.531203	-3.128269
O	0.875145	-1.78852	-1.925881
C	-2.00225	0.176402	-1.473585
N	-3.155932	0.403755	-1.472606
N	-0.520014	-1.191394	0.693967
O	-1.168127	-2.020073	0.039291
O	-0.275002	-1.305781	1.894227
C	-0.369484	1.234481	0.806432
H	-1.450328	1.365893	0.928871
H	0.059482	2.11384	0.328037
H	0.097964	1.130454	1.783665
F	2.476685	0.0	0.0
