17

C	-0.392052	-0.007831	-1.466753
C	0.0	0.0	0.0
Cl	0.277395	1.438659	-2.233876
H	1.104739	0.0	0.0
N	0.239009	-1.255103	-2.168204
O	0.242303	-2.275548	-1.496014
O	0.612271	-1.135593	-3.322701
C	-1.818198	-0.049188	-1.800384
N	-2.948749	-0.007327	-2.122119
N	-0.569089	-1.172133	0.722121
O	0.125361	-1.678741	1.597562
O	-1.734123	-1.50429	0.475246
C	-0.501016	1.228492	0.746354
H	0.046686	2.1062	0.408205
H	-0.2671	1.086233	1.803706
H	-1.579571	1.388597	0.634935
F	2.516147	0.0	0.0
