17

C	-0.450091	-0.03926	-1.444585
C	0.0	0.0	0.0
Cl	-2.217403	-0.256169	-1.650448
H	1.093822	0.0	0.0
N	-0.078348	1.349887	-2.032243
O	-0.921938	2.232816	-1.990189
O	1.069621	1.447401	-2.441094
C	0.233288	-1.022741	-2.28031
N	0.726111	-1.766655	-3.044785
N	-0.400399	-1.252538	0.662594
O	-0.48365	-2.270734	-0.02939
O	-0.561134	-1.240471	1.884333
C	-0.44162	1.219103	0.775471
H	0.083328	2.092825	0.3899
H	-1.520829	1.394701	0.745885
H	-0.125724	1.081822	1.807169
F	2.459174	0.0	0.0
