17

C	-0.38746	-0.095002	-1.455178
C	0.0	0.0	0.0
Cl	-0.036765	-1.616978	-2.307713
H	1.114338	0.0	0.0
N	-1.911789	0.131898	-1.648826
O	-2.633239	-0.445869	-0.847107
O	-2.278969	0.849282	-2.573018
C	0.30481	0.958858	-2.200474
N	0.844345	1.794891	-2.825664
N	-0.477994	-1.098371	0.85428
O	-0.378297	-2.256111	0.452994
O	-0.881129	-0.799601	1.983199
C	-0.402393	1.348242	0.57359
H	-1.480979	1.448738	0.726408
H	0.096681	1.467281	1.533758
H	-0.042154	2.145554	-0.079046
F	2.466009	0.0	0.0
