17

C	-0.425474	-0.005157	-1.44775
C	0.0	0.0	0.0
Cl	0.553565	-1.081012	-2.448464
H	1.115004	0.0	0.0
N	-1.943734	-0.369948	-1.639348
O	-2.277861	-1.050065	-2.592468
O	-2.684234	0.142845	-0.811223
C	-0.331424	1.339578	-2.019619
N	-0.275943	2.410212	-2.503388
N	-0.453613	-1.221578	0.666519
O	-0.312899	-1.286536	1.887855
O	-0.914125	-2.141079	-0.021563
C	-0.3271	1.233139	0.822654
H	0.103045	2.107395	0.332796
H	0.180571	1.120355	1.779159
H	-1.397156	1.382058	0.982488
F	2.463723	0.0	0.0
