14

C	0.0	0.0	0.0
C	-0.531959	-0.235894	-1.410283
F	1.387297	0.0	0.0
H	-0.273061	0.630887	-2.02616
H	-1.629905	-0.296895	-1.333712
C	-0.492823	1.32067	0.552679
H	-0.162748	2.125666	-0.109107
H	-0.06894	1.478522	1.546533
H	-1.583994	1.300566	0.603638
C	-0.390125	-1.116511	0.884693
N	-0.635761	-2.034209	1.574096
C	0.024593	-1.436825	-2.025366
N	0.491227	-2.390258	-2.526751
Cl	-3.673475	0.0	0.0
