14

C	0.0	0.0	0.0
C	-0.529088	0.014675	-1.428656
F	1.390687	0.0	0.0
H	-0.291773	0.985742	-1.876774
H	-1.625159	-0.078049	-1.361631
C	-0.487232	1.202712	0.779334
H	-0.090227	1.164307	1.795132
H	-0.123852	2.108903	0.28722
H	-1.579506	1.190732	0.798113
C	-0.373502	-1.261664	0.676891
N	-0.539631	-2.27365	1.24736
C	0.054356	-1.033127	-2.259913
N	0.54309	-1.825068	-2.977425
Cl	-3.656265	0.0	0.0
