14

C	0.0	0.0	0.0
C	-0.522315	0.21204	-1.421292
F	1.387732	0.0	0.0
H	-0.207811	-0.618272	-2.058874
H	-1.621664	0.21937	-1.358853
C	-0.482158	1.066208	0.959629
H	-0.074155	2.029568	0.644937
H	-0.123527	0.835884	1.964289
H	-1.574058	1.089603	0.951174
C	-0.389511	-1.351047	0.454464
N	-0.562858	-2.444462	0.84481
C	-0.020208	1.461641	-1.983295
N	0.405295	2.463707	-2.421139
Cl	-3.653882	0.0	0.0
