14

C	0.0	0.0	0.0
C	-0.513323	-0.24552	-1.415018
F	1.387414	0.0	0.0
H	-1.610778	-0.314646	-1.351967
H	-0.250658	0.620732	-2.03053
C	-0.480892	1.327496	0.543897
H	-0.113127	2.125841	-0.106571
H	-1.572849	1.325424	0.568666
H	-0.077185	1.474089	1.547826
C	-0.385419	-1.119522	0.885811
N	-0.588535	-2.048845	1.573468
C	0.070454	-1.442015	-2.013868
N	0.55363	-2.38966	-2.509938
Cl	-3.639128	0.0	0.0
