14

C	0.0	0.0	0.0
C	-0.52495	-0.159106	-1.424493
F	1.389851	0.0	0.0
H	-0.193552	-1.118628	-1.831841
H	-1.625523	-0.153764	-1.359968
C	-0.480329	1.270509	0.667981
H	-0.057251	1.329236	1.672551
H	-0.140269	2.128282	0.08364
H	-1.571363	1.251069	0.714641
C	-0.381601	-1.195199	0.784232
N	-0.543509	-2.167238	1.421556
C	-0.03621	0.913314	-2.285403
N	0.373709	1.77273	-2.972415
Cl	-3.652624	0.0	0.0
