14

C	0.0	0.0	0.0
C	-0.509718	0.209535	-1.425074
F	1.387518	0.0	0.0
H	-1.610041	0.197912	-1.378337
H	-0.166753	-0.610839	-2.061537
C	-0.471604	1.071976	0.959013
H	-0.084578	2.036133	0.621365
H	-1.562926	1.081376	0.977726
H	-0.078122	0.860813	1.955322
C	-0.38834	-1.349832	0.460177
N	-0.571258	-2.443502	0.845625
C	-0.015548	1.469852	-1.971446
N	0.400651	2.476527	-2.408578
Cl	-3.631355	0.0	0.0
