14

C	0.0	0.0	0.0
C	-0.535486	-0.272671	-1.4059
F	1.371682	0.0	0.0
H	-1.635384	-0.248503	-1.336089
H	-0.221991	-1.266998	-1.73614
C	-0.486239	1.32142	0.557993
H	-0.067962	1.467056	1.555776
H	-1.577362	1.306839	0.600978
H	-0.1421	2.127544	-0.094241
C	-0.390177	-1.125191	0.880277
N	-0.55893	-2.038704	1.598045
C	-0.047751	0.721024	-2.356431
N	0.349733	1.519475	-3.119975
Cl	-3.668065	0.0	0.0
