14

C	0.0	0.0	0.0
C	-0.24252	0.324163	-1.495293
F	1.391192	0.0	0.0
H	0.509895	-0.272872	-2.019345
H	0.055092	1.370541	-1.619168
C	-0.521197	1.019415	0.976418
H	-1.614686	0.996455	0.93668
H	-0.172416	0.774595	1.981638
H	-0.144235	2.005169	0.691663
C	-0.403103	-1.376028	0.339154
N	-0.554887	-2.50219	0.634216
C	-1.489829	0.1017	-2.223227
N	-2.242014	-0.125159	-3.095416
Cl	-3.579203	0.0	0.0
