15

C	-0.371955	0.156369	-1.466956
C	0.0	0.0	0.0
Cl	-2.172504	0.760819	-1.587059
H	1.088856	0.0	0.0
H	-0.407226	-0.916807	0.41674
N	0.437139	1.134385	-2.088986
H	1.395672	1.056065	-1.752326
H	0.398518	1.068113	-3.09758
N	-0.297349	-1.142054	-2.058709
H	-0.378281	-1.077787	-3.065581
H	-1.031877	-1.746158	-1.710408
N	-0.476207	1.102332	0.863694
O	-0.103379	2.240493	0.605057
O	-1.208257	0.793788	1.807676
Cl	3.331077	0.0	0.0
