15

C	-0.283698	-0.01231	-1.49561
C	0.0	0.0	0.0
Cl	-2.054182	0.18059	-1.857671
H	1.090589	0.0	0.0
H	-0.42294	0.889497	0.454634
N	0.361106	1.192198	-1.983821
H	1.351687	1.12477	-1.744738
H	0.271915	1.235797	-2.993044
N	0.114637	-1.279769	-2.049364
H	0.14546	-1.209563	-3.059865
H	1.045312	-1.502181	-1.702891
N	-0.53016	-1.17584	0.715947
O	-1.565368	-1.01373	1.368652
O	0.085043	-2.23547	0.626809
Cl	3.329693	0.0	0.0
