15

C	-0.445649	-0.17548	-1.456433
C	0.0	0.0	0.0
Cl	-0.050398	-1.895877	-1.94603
H	1.089094	0.0	0.0
H	-0.35432	0.981296	0.326499
N	-1.824076	0.085271	-1.644302
H	-2.004052	0.572836	-2.507543
H	-2.303783	0.443927	-0.835405
N	0.365342	0.655925	-2.322629
H	0.285265	1.612773	-1.989693
H	1.34276	0.388748	-2.20829
N	-0.622975	-0.966385	0.929778
O	-1.791168	-0.717902	1.26005
O	0.015479	-1.943315	1.300134
Cl	3.367679	0.0	0.0
