15

C	-0.442947	-0.146302	-1.458487
C	0.0	0.0	0.0
Cl	-0.224003	1.521299	-2.239029
H	1.086739	0.0	0.0
H	-0.370862	-0.876926	0.537331
N	0.432229	-1.02349	-2.186452
H	1.398537	-0.736336	-2.034059
H	0.31734	-1.953041	-1.796202
N	-1.769704	-0.630883	-1.575877
H	-2.035436	-0.63626	-2.5525
H	-2.397809	-0.046678	-1.038423
N	-0.595701	1.170252	0.685811
O	0.138894	2.000802	1.203825
O	-1.832707	1.222401	0.698169
Cl	3.384375	0.0	0.0
