15

C	-0.445317	0.096994	-1.454427
C	0.0	0.0	0.0
Cl	-0.107206	-1.466689	-2.35102
H	1.091402	0.0	0.0
H	-0.360126	0.897771	0.502205
N	-1.875497	0.271676	-1.556948
H	-2.15047	0.266547	-2.53238
H	-2.095222	1.181955	-1.166031
N	0.3209	1.180873	-1.991825
H	1.31177	1.042975	-1.788874
H	0.196934	1.233295	-2.996117
N	-0.589002	-1.135646	0.737125
O	-1.565128	-0.883678	1.451292
O	-0.083665	-2.246482	0.605383
Cl	3.352898	0.0	0.0
