15

C	-0.423103	-0.054679	-1.464731
C	0.0	0.0	0.0
Cl	-0.031026	1.638278	-2.12566
H	1.087719	0.0	0.0
H	-0.451381	0.849738	0.501815
N	0.337442	-1.064231	-2.104868
H	0.240428	-1.018701	-3.111968
H	1.321257	-1.001677	-1.845592
N	-1.851294	-0.171558	-1.634844
H	-2.135144	-1.089155	-1.303102
H	-2.076687	-0.103813	-2.621724
N	-0.486845	-1.226113	0.689466
O	-1.60772	-1.166426	1.214327
O	0.227332	-2.225315	0.675713
Cl	3.367706	0.0	0.0
