15

C	-0.488088	0.017878	-1.445223
C	0.0	0.0	0.0
Cl	-0.078643	-1.517408	-2.287628
H	1.089798	0.0	0.0
H	-0.33693	0.932743	0.459604
N	-1.915718	0.173528	-1.486392
H	-2.210328	0.879417	-0.822511
H	-2.182391	0.44994	-2.42389
N	0.220833	1.056437	-2.182217
H	1.219708	0.854351	-2.137232
H	0.080023	1.933917	-1.688131
N	-0.598278	-1.066894	0.836432
O	-0.187743	-2.215439	0.707587
O	-1.498664	-0.721057	1.611747
Cl	3.340882	0.0	0.0
