14
Coordinates from ORCA-job run
  C   -0.43945757506323     -0.64058924982475     -0.04236246871801
  C   0.78260386858731      0.27818737284940     -0.19843181951245
  H   -0.33903700121501     -1.43791609461394     -0.78761636306991
  H   0.73958499088160      0.74889306302200     -1.18801995560857
  H   -0.38666559009236     -1.11564965226119      0.94373377074911
  C   -1.76967854374928      0.08443894606190     -0.21609216005142
  H   -1.90440815221675      0.85069388009492      0.55007151326810
  H   -1.82609347050983      0.57033497389472     -1.19402804077469
  H   -2.60574021400327     -0.61403923552097     -0.14278843577735
  N   2.08691120005677     -0.37112576190809     -0.08833721115761
  H   2.17981602003343     -1.05452886415390     -0.83099585830374
  H   2.14786179961380     -0.86571081802792      0.79489283409900
  C   0.71378397719203      1.36483438241400      0.79150379213563
  N   0.62051869048480      2.20317705797383      1.60747040272190
