14
Coordinates from ORCA-job run
  C   -0.47585124133561     -0.66925753408868     -0.27117044908724
  C   0.71850325554724      0.28321149544879     -0.19895765414680
  H   -0.39047992446105     -1.19776291488271     -1.22441450102463
  H   0.62737228110983      1.01393266089552     -1.01020998818011
  H   -0.37131904179849     -1.41764919766990      0.52284008299861
  C   -1.81867604080564      0.04177594069648     -0.15274856446768
  H   -1.92235754460621      0.54265288410532      0.81220513207954
  H   -2.64106492203979     -0.66971602843831     -0.25004392120033
  H   -1.93453547541135      0.79291924790644     -0.93871713745251
  N   1.96184483120829     -0.45187257786175     -0.40852610177675
  H   2.74953699394463      0.18587090590112     -0.41434874575303
  H   2.10442567058552     -1.09932262791091      0.35867597717393
  C   0.69121547313511      1.03860808301947      1.07344436851990
  N   0.70238568492752      1.60660966287912      2.10197150231711
