14
Coordinates from ORCA-job run
  C   -0.78676783287871      0.44851138513081     -0.08306012046415
  C   0.72342781329035      0.28529976259550     -0.28368180066872
  H   -0.94029081624144      1.02731894349029      0.83159492102592
  H   0.89205902333767     -0.21018187397540     -1.25440709274861
  H   -1.18401401551617      1.03296703290205     -0.91871814929519
  C   -1.50410564310844     -0.89388486387280      0.01035116692635
  H   -1.22293204509237     -1.43160649605113      0.91779040957039
  H   -2.58589556951355     -0.75003645838439      0.04246660628686
  H   -1.28058186387986     -1.52576186886509     -0.85469529701711
  N   1.31211498235809     -0.43976683122320      0.84511801355747
  H   2.32346778028835     -0.40375362102358      0.79065912530293
  H   1.04361552228542     -1.41467195217252      0.78545223592805
  C   1.35523371296428      1.60835207007291     -0.37353668170081
  N   1.85466895170639      2.66721477137654     -0.45533333670336
