15
Coordinates from ORCA-job run
  C   -0.61177667675240     -0.17731625486527      0.15250796453211
  C   0.52718536184308      0.78862299831491     -0.12929740706319
  F   -0.45546339335160     -0.64616389511656      1.47446862296956
  H   0.37828030657719      1.68022599662218      0.49017354043969
  H   0.43289800805210      1.10386506326793     -1.17257869923014
  N   -1.87091488831927      0.48250768705330      0.00653443980421
  H   -2.62087734864019     -0.14826184280832      0.26584384035990
  H   -1.91671252829297      1.30053065782349      0.60241253995996
  N   -0.51905355705205     -1.36325001095983     -0.66439813836876
  H   -1.01498362673286     -2.11968287482527     -0.20883720720611
  H   -0.95243727748845     -1.17800853468322     -1.56014101772540
  C   1.89834660853722      0.18335829155848      0.13549488767613
  H   2.68711298298537      0.89678345136143     -0.11363809702039
  H   2.00257569707891     -0.08811561263131      1.18641012809349
  H   2.03582033155591     -0.71609512011194     -0.46395539722105
