15
Coordinates from ORCA-job run
  C   -0.70542420849535      0.07538116047637     -0.26181583350547
  C   0.53080530858285      0.32943868929034      0.59525080230256
  F   -0.76311199692969      1.10681271230359     -1.19842629973898
  H   0.38356573113408      1.29994507174977      1.07940968202348
  H   0.55435153576482     -0.42132089773915      1.39447816615023
  N   -0.58891714549115     -1.15631514716507     -0.97144933309228
  H   -0.18345995938935     -1.88635504268779     -0.40347198834326
  H   -1.50031353659910     -1.44056410184594     -1.30731871005074
  N   -1.97536108016657      0.16926185462353      0.43211754020736
  H   -2.00070310068761     -0.50477578345065      1.18747595612477
  H   -2.08829116032081      1.09691223878051      0.82519769502964
  C   1.83723915082204      0.32903092848182     -0.19115272530581
  H   2.67840438893225      0.58273360115418      0.45833011367787
  H   1.78837046634494      1.06313619284767     -0.99553873603671
  H   2.03284560649864     -0.64432147681920     -0.64208632944268
