15
Coordinates from ORCA-job run
  C   -0.74046255407859      0.03893093871271     -0.26920675382766
  C   0.53551109351181      0.85794813535444     -0.32960799392559
  F   -1.69994813155060      0.73140596212829     -1.03960304295546
  H   0.72561714227548      1.04269113165705     -1.38883690605746
  H   0.34782982862688      1.82753577882629      0.14546456813317
  N   -0.58826982771963     -1.23592704564977     -0.93282181314374
  H   -1.47596627524250     -1.49866389216619     -1.34241442578710
  H   -0.31699365343699     -1.93597689390733     -0.25473350198090
  N   -1.19325154536203     -0.10893686960502      1.07694162424956
  H   -2.08636385809757     -0.58777652914528      1.08842598613557
  H   -1.30479865463339      0.79677677869195      1.51711763661864
  C   1.72157345132131      0.15233084294721      0.31426428545664
  H   1.93717231459314     -0.77991727035863     -0.21095881763413
  H   1.52127500304590     -0.07732555505063      1.36186736617866
  H   2.61607566674680      0.77690448756491      0.26410178853981
