15
Coordinates from ORCA-job run
  C   -0.69792282951935     -0.14515722846662      0.35387396699643
  C   0.46770654046280      0.75972240968335     -0.04113100991260
  F   -0.41856495748182     -0.61025248601659      1.64199431388549
  H   0.28255739217953      1.13205435199565     -1.05582674726775
  H   0.44901138455191      1.62119226288596      0.63282232022960
  N   -1.90525183468370      0.60582027282379      0.39742572729057
  H   -1.92601005586032      1.35875930341627     -0.27316894384008
  H   -2.70188730144786     -0.00564848291120      0.28225676364142
  N   -0.86774136255700     -1.36056462665859     -0.41671857958634
  H   -0.08074939688992     -1.98213066972856     -0.27771305200655
  H   -0.94273629357083     -1.13957469534417     -1.40194111943042
  C   1.82356057173360      0.07032917468595      0.02643589243593
  H   1.99670292576048     -0.33338742872655      1.02434687023983
  H   2.62550594621592      0.77601999271456     -0.19899106725896
  H   1.89581927110657     -0.74718215035325     -0.69466533541657
