15
Coordinates from ORCA-job run
  C   -0.54170719937217     -0.52768408858684     -0.24793339901622
  C   0.58091611997104      0.48265883195456     -0.47693907848799
  F   0.06196557111814     -1.78774836642411     -0.21019021063333
  H   0.99470447419640      0.28430924769436     -1.46998005755994
  H   0.13843699315510      1.48576497208573     -0.49953004443608
  N   -1.24017867641578     -0.44756640392500      1.01918385151889
  H   -0.61553365962634     -0.67141543742537      1.78386291170321
  H   -1.60608839193425      0.48657014367967      1.15565410624971
  N   -1.45487991233220     -0.49748830400661     -1.33821322567633
  H   -1.54133422888305      0.41662666489833     -1.75530470681965
  H   -2.35635322424595     -0.85203977538599     -1.04938057018786
  C   1.68199988430578      0.41749937670999      0.57260268528850
  H   1.31010846804850      0.68841137424366      1.56348023760131
  H   2.48933476868653      1.11004031503820      0.32657764753199
  H   2.10060901332824     -0.58793855055059      0.62410985292378
