15
Coordinates from ORCA-job run
  C   -0.77817797468060      0.18891881846526     -0.32186260203506
  C   0.59228078555659      0.83838835592376     -0.37950245083801
  F   -1.65691101213856      0.97579410778208     -1.05008740173167
  H   0.85126273388091      0.91836673257321     -1.43735238574730
  H   0.47273857218344      1.84665956439248      0.02251001656153
  N   -0.76943490914416     -1.08361021683587     -1.01808740748221
  H   -1.72249599396349     -1.42319004264703     -1.09154317935530
  H   -0.23526189916764     -1.76389727572264     -0.49218676012619
  N   -1.30074471530883      0.21937195009701      1.03096162395670
  H   -0.78247275883520     -0.42183398827636      1.61828891914664
  H   -2.26868994943186     -0.08371645371060      1.01496252036196
  C   1.67926464861329      0.08579279917570      0.38089570930734
  H   1.45220329753579      0.01215076311369      1.44734400363343
  H   1.83225794419349     -0.91990101181492     -0.01843392848167
  H   2.63318123070683      0.60970589748424      0.29509332282981
