15
Coordinates from ORCA-job run
  C   -0.85132923858579      0.10827277005803     -0.38270554594740
  C   0.52044333264032      0.78108354681725     -0.37839822112763
  F   -1.69043506676810      1.00452299145675     -1.05400778095859
  H   0.36636400173031      1.79641133784228     -0.00236965420738
  H   0.84021287298466      0.87478638968198     -1.42047510601694
  N   -0.82314497368127     -1.11673397914498     -1.09950941835038
  H   0.07331775466228     -1.57468990457963     -1.09745180482688
  H   -1.55967124701551     -1.73566700294309     -0.79277097061878
  N   -1.49486067341751     -0.06444149390301      0.90172679178855
  H   -1.62699531201040      0.83090052903150      1.35662115342516
  H   -0.93968163924750     -0.66259823054653      1.49897708490491
  C   1.58348509092818      0.07245162659901      0.45382486284650
  H   1.80227243062860     -0.93316888900024      0.08567654917832
  H   1.28176028467402     -0.01025684839743      1.50039954008672
  H   2.52126238247772      0.63112715702811      0.43046251982383
