15
Coordinates from ORCA-job run
  C   0.87016478796653     -0.55000877596532     -0.39544305543021
  C   -0.56752835388901     -0.15583883649002     -0.05826057898086
  Cl  0.82747459328568     -2.00439511567168     -1.50954157180659
  H   -1.10510734497000     -0.05257495338918     -1.00847809309895
  H   1.36562627045391     -0.92019447971164      0.50492359300906
  N   1.61702340028539      0.53491180479317     -0.93410228131740
  H   1.22058338323554      0.83148023927204     -1.81873282809082
  H   2.57772300495076      0.26341735625572     -1.09945762755931
  C   -0.60307453190930      1.17352140026690      0.69583163995773
  H   -0.19935749873684      1.99845422851783      0.10983419357567
  H   -0.00997152620862      1.10109655545960      1.61337021136009
  H   -1.63478281918582      1.40366541858548      0.97504330230386
  N   -1.19202245172442     -1.25333460664878      0.67380969477037
  H   -0.96592367625186     -1.17339643416464      1.65932387676730
  H   -2.19882723730194     -1.19780380110948      0.59187952454006
