15
Coordinates from ORCA-job run
  C   0.78939625991520     -0.03440105134350     -0.67610644664699
  C   -0.49066423217487     -0.03480081048634      0.15140594061738
  Cl  1.94805643453766      1.20380650816805     -0.11609223070501
  H   -1.10789016904218     -0.82263214392518     -0.32609574486039
  H   0.53970163107521      0.25571816071341     -1.70442891299398
  N   1.43430197521979     -1.33235353520005     -0.56534876825558
  H   2.34125976512622     -1.31080570078249     -1.01572654353906
  H   0.86249742256389     -2.01957201386796     -1.04583954488770
  C   -1.25218444715407      1.27573368667836      0.04800813836470
  H   -1.46200989093353      1.53431879260068     -0.99385552207495
  H   -0.67371834412174      2.07585782838173      0.50985937468954
  H   -2.20782229794269      1.19794815240824      0.57311016920659
  N   -0.17056869400013     -0.32245818044311      1.53760093769802
  H   0.46141829736456     -1.11380756482520      1.57309689818072
  H   -1.01277371043334     -0.55255212807665      2.04941225520670
