15
Coordinates from ORCA-job run
  C   0.57283341535347     -0.47029754523911     -0.91303589594814
  C   -0.64248527000670     -0.17876825516312     -0.03093335069082
  Cl  0.32946056086599      0.23845996515766     -2.54839778414188
  H   -1.52827862714109     -0.52527347839333     -0.58207573214247
  H   0.61082559978105     -1.55129265106306     -1.10673397803469
  N   1.75835009533361      0.07454930239433     -0.31675314134017
  H   2.58748828240375     -0.27958331150230     -0.77633186085664
  H   1.75906934821381     -0.22260177553265      0.65399355153163
  C   -0.80331567488529      1.29899420151245      0.28349479561556
  H   0.04820143070935      1.66104259454027      0.85911020521761
  H   -0.87608028295981      1.88745774047740     -0.63051810487291
  H   -1.71761291760019      1.45686743071722      0.86318110316191
  N   -0.42181242903092     -0.91829352628110      1.21833123319135
  H   -1.04370382314346     -0.57013674541375      1.93792804942408
  H   -0.63293970789357     -1.90112394621089      1.08674090988560
