15
Coordinates from ORCA-job run
  C   0.86128490739259     -0.51717504142133     -0.33590857716676
  C   -0.55161948799718     -0.08021759391957      0.02461127497971
  Cl  0.73701047961659     -2.12654133087463     -1.25485132921942
  H   -1.09841381892230      0.05929113943039     -0.92475216514584
  H   1.39856075779214     -0.78326484468351      0.57451178801914
  N   1.56438898144495      0.46872037045362     -1.06704884651503
  H   1.11095694980186      0.65875446930666     -1.95248747378441
  H   2.51919366771869      0.18796381796466     -1.24627934796277
  C   -0.51220412414557      1.24141112208806      0.77986236989261
  H   0.06605615437929      1.12107540910583      1.69899009291532
  H   -1.52708154446074      1.54388231988968      1.05464334937518
  H   -0.06203631624892      2.03087954340127      0.18100482620816
  N   -1.15130273060653     -1.09073264526055      0.88790215805207
  H   -2.05493542370910     -0.76448006234546      1.20791805628499
  H   -1.29885845205579     -1.95056667313513      0.37388382406704
