15
Coordinates from ORCA-job run
  C   0.81790784250304     -0.50911277015497     -0.29721590352489
  C   -0.62369534244197     -0.05166474849048     -0.04666276915362
  Cl  0.75352593599662     -2.13760433099681     -1.18729665075979
  H   -1.09333267683789      0.07566514589012     -1.03079772090603
  H   1.30173293476544     -0.75963410170692      0.64929874394190
  N   1.58171475722791      0.45921579332904     -0.98950811260765
  H   1.17965876721610      0.65712865970610     -1.89784478549717
  H   2.54101179801842      0.16480660407284     -1.11520725610616
  C   -0.62325830067327      1.28309875398896      0.68871055918972
  H   -0.11245483458709      1.18511169566942      1.65273356176456
  H   -0.11316387287725      2.05877099902915      0.12080637098996
  H   -1.65520503527721      1.58091542668120      0.87907475003184
  N   -1.44460943345946     -0.99294061892979      0.69812984628711
  H   -1.06397772996943     -1.11494803686230      1.63035272012380
  H   -1.44585480960398     -1.89780847122555      0.24442664622642
