15
Coordinates from ORCA-job run
  C   0.80546388369100     -0.60899466781166     -0.48799795659968
  C   -0.60265477017415     -0.19757169806385     -0.06794390163056
  Cl  0.72279304609368     -2.03613980501313     -1.55824554030515
  H   -1.20051167409205     -0.16093190931664     -0.98356911726927
  H   1.35032776901603     -0.95726991735167      0.40145417835427
  N   1.46597830796308      0.45625507009106     -1.22256418908327
  H   1.76829431903668      1.17001426213530     -0.56868680335495
  H   2.29577496497057      0.08952012723472     -1.67327573347968
  C   -0.59956896240472      1.18736452009548      0.58063330588596
  H   0.06786267650720      1.20660058279604      1.45066303805993
  H   -0.29294029120430      1.96650793927326     -0.11902161061675
  H   -1.60543080351524      1.42704921068088      0.93312194096602
  N   -1.15247067674535     -1.24222067039053      0.79111757939850
  H   -0.86047044943121     -1.08957095687144      1.75008731168509
  H   -2.16344733971121     -1.21061208748781      0.77522749798954
