15
Coordinates from ORCA-job run
  C   0.80600709277104     -0.06493435218629     -0.78550040825885
  C   -0.47454448825127     -0.10251836020969      0.04656719658360
  Cl  1.89289877207465      1.30469160507854     -0.08427416271526
  H   -1.10842910090528     -0.82251829452740     -0.48708777570759
  H   0.60242972783304      0.30872533993774     -1.78925933150719
  N   1.45052109517943     -1.29112940723412     -0.79810855680851
  H   1.78783904758966     -1.67112699292390     -1.66050529661421
  H   1.22000157480023     -1.91742515386038     -0.04616969611415
  C   -1.21179051606156      1.22935964641369      0.11927568820156
  H   -1.36048100727640      1.65826954592304     -0.87641010993958
  H   -0.65820741955620      1.95146220385784      0.71996617229890
  H   -2.19545897854899      1.08198178125708      0.57387351299829
  N   -0.15334735939322     -0.71043933991598      1.33559951988893
  H   0.40449643544764     -0.06015844477044      1.87916619501084
  H   -1.00393487570275     -0.89523977683973      1.85286705268321
