15
Coordinates from ORCA-job run
  C   0.78872937982891     -0.58588189281630     -0.43075755746276
  C   -0.59273174303794     -0.12590878508137      0.01155913194147
  Cl  0.63343411105391     -2.12548564251204     -1.34520810032089
  H   -1.20619599210068     -0.06250235718688     -0.89984167203856
  H   1.36475801835578     -0.84964339459820      0.46506096230899
  N   1.41015759918636      0.38573091966464     -1.31023147627445
  H   1.76638798858634      1.15025309947424     -0.74708005356752
  H   2.20356682677482     -0.03837078561585     -1.77611574879426
  C   -0.50997361001051      1.25257572495515      0.65218848953729
  H   -0.20777020337083      2.00867605634625     -0.07310148780111
  H   -1.48966907752833      1.54457670168305      1.03995655309582
  H   0.18801950330074      1.23989162401392      1.49425686047184
  N   -1.09934381693734     -1.07192062674861      1.00170772841570
  H   -1.25422107952577     -1.97475005090469      0.56857186502062
  H   -1.99414790457546     -0.74824059067330      1.34903450546782
