15
Coordinates from ORCA-job run
  C   0.56607550115407     -0.60347899283962     -0.91936057387205
  C   -0.63095264265031     -0.20443894264865     -0.04255126915166
  Cl  0.33499632725416      0.04446391427107     -2.57111249624505
  H   -1.54517046126752     -0.49076301921535     -0.58327232803323
  H   0.55864346037674     -1.69197261114024     -1.03030895429171
  N   1.86686393333297     -0.21354851811774     -0.43485399641213
  H   1.91524307251044     -0.50180415634354      0.53779995157855
  H   1.96052016180573      0.79471305194185     -0.47288881301812
  C   -0.68229587208001      1.28328865840682      0.25572874857501
  H   -1.59529235140415      1.52504988871208      0.80642237170459
  H   0.16842302915902      1.57604971655947      0.87451589066830
  H   -0.67926533184851      1.87389652981701     -0.66089329385623
  N   -0.45615101213729     -0.93855849893077      1.21486947792529
  H   -0.72811898939651     -1.90786380337270      1.09521121783444
  H   -1.05351882480883     -0.54603321709970      1.93269406659401
