14

C	-0.404243	0.033217	-1.481083
C	0.0	0.0	0.0
Cl	-2.163987	0.142002	-1.707774
H	1.095584	0.0	0.0
H	0.062443	0.871815	-1.99274
N	0.095284	-1.202685	-2.182932
O	-0.480108	-2.262165	-1.951644
O	1.06461	-1.048438	-2.917562
N	-0.462327	-1.127787	0.777336
H	-1.362357	-1.456987	0.453977
H	0.21163	-1.875816	0.687607
C	-0.457099	1.26106	0.596731
N	-0.842585	2.267021	1.064013
Cl	3.230824	0.0	0.0
