14

C	-0.525338	-0.061688	-1.441566
C	0.0	0.0	0.0
Cl	0.219963	-1.384915	-2.332397
H	1.094151	0.0	0.0
H	-1.607449	-0.195481	-1.464155
N	-0.29364	1.242224	-2.166955
O	-1.302809	1.926585	-2.348594
O	0.850598	1.531614	-2.480477
N	-0.391081	-1.159658	0.784798
H	0.314238	-1.874719	0.668725
H	-1.296281	-1.524266	0.515552
C	-0.522195	1.220966	0.625654
N	-0.985103	2.183397	1.114911
Cl	3.2545	0.0	0.0
