14

C	-0.401332	0.056118	-1.458126
C	0.0	0.0	0.0
Cl	-0.128996	1.632617	-2.200993
H	1.098679	0.0	0.0
H	0.161177	-0.693056	-2.010295
N	-1.855009	-0.301475	-1.6557
O	-2.146722	-0.834579	-2.722187
O	-2.641217	-0.023778	-0.754107
N	-0.404521	-1.304598	0.513505
H	0.3092	-1.631844	1.151238
H	-1.291353	-1.247798	0.995524
C	-0.485369	1.135628	0.790379
N	-0.87127	1.995089	1.492022
Cl	3.238951	0.0	0.0
