14

C	-0.527136	-0.089955	-1.44008
C	0.0	0.0	0.0
Cl	0.217064	-1.427628	-2.308829
H	1.094188	0.0	0.0
H	-1.608311	-0.227719	-1.456995
N	-0.303584	1.198473	-2.192597
O	-1.318674	1.869747	-2.387803
O	0.839672	1.490673	-2.509247
N	-0.388747	-1.148273	0.804016
H	-1.292927	-1.516992	0.538029
H	0.317203	-1.863909	0.696278
C	-0.521548	1.232243	0.602048
N	-0.980178	2.207551	1.070038
Cl	3.258731	0.0	0.0
