14

C	-0.392067	-0.008744	-1.46157
C	0.0	0.0	0.0
Cl	-0.109697	1.53241	-2.274879
H	1.095581	0.0	0.0
H	0.172317	-0.785452	-1.973642
N	-1.845973	-0.369554	-1.654844
O	-2.637036	-0.059126	-0.767698
O	-2.133948	-0.932581	-2.706694
N	-0.407465	-1.280604	0.568184
H	0.299852	-1.577014	1.229504
H	-1.299833	-1.201187	1.038285
C	-0.485949	1.172198	0.734361
N	-0.8449	2.084486	1.382027
Cl	3.249371	0.0	0.0
