14

C	-0.530616	-0.105513	-1.437077
C	0.0	0.0	0.0
Cl	0.230866	-1.43481	-2.302143
H	1.09414	0.0	0.0
H	-1.610239	-0.260074	-1.448329
N	-0.33258	1.186184	-2.193162
O	-1.355398	1.855146	-2.349721
O	0.797587	1.485106	-2.545172
N	-0.380267	-1.147888	0.810859
H	0.34977	-1.843452	0.735313
H	-1.263221	-1.548356	0.52134
C	-0.524347	1.230423	0.604056
N	-0.97082	2.207751	1.078361
Cl	3.256165	0.0	0.0
