14

C	-0.406816	-0.07765	-1.457656
C	0.0	0.0	0.0
Cl	-0.221516	1.447711	-2.326602
H	1.100694	0.0	0.0
H	0.18998	-0.838154	-1.954784
N	-1.83867	-0.525398	-1.603729
O	-2.654876	-0.092968	-0.795073
O	-2.084233	-1.287136	-2.535242
N	-0.400205	-1.260166	0.621069
H	0.327864	-1.545637	1.263324
H	-1.273429	-1.159166	1.12161
C	-0.497902	1.188732	0.696447
N	-0.919676	2.079268	1.335801
Cl	3.24056	0.0	0.0
