15

C	-0.475306	-0.013066	-1.472491
C	0.0	0.0	0.0
F	0.037532	1.122504	-2.071144
H	1.09689	0.0	0.0
C	0.070393	-1.196633	-2.162829
N	0.396099	-2.152119	-2.762881
C	-1.986198	0.017164	-1.622991
H	-2.436474	-0.870349	-1.175741
H	-2.375044	0.911718	-1.133061
H	-2.239308	0.051879	-2.684019
C	-0.486387	-1.18964	0.693853
N	-0.889128	-2.156809	1.225511
C	-0.485701	1.210432	0.659672
N	-0.897253	2.182662	1.174486
Br	3.303981	0.0	0.0
