15

C	-0.390552	0.029028	-1.497316
C	0.0	0.0	0.0
F	-0.014399	-1.192525	-2.03082
H	1.097333	0.0	0.0
C	-1.853262	0.145422	-1.666151
N	-3.013785	0.260228	-1.8085
C	0.352824	1.131726	-2.22223
H	1.420462	0.999437	-2.029075
H	0.035864	2.112254	-1.861983
H	0.147822	1.057066	-3.291665
C	-0.519156	-1.193276	0.661639
N	-0.946776	-2.150885	1.190083
C	-0.468641	1.213036	0.664897
N	-0.839052	2.204847	1.173936
Br	3.342377	0.0	0.0
