15

C	-0.394724	-0.044283	-1.487931
C	0.0	0.0	0.0
F	-1.778567	-0.197177	-1.590646
H	1.097426	0.0	0.0
C	-0.065293	1.242794	-2.126553
N	0.139888	2.261577	-2.672924
C	0.294844	-1.194358	-2.191295
H	1.375729	-1.097131	-2.060804
H	-0.042031	-2.134135	-1.749964
H	0.03795	-1.183036	-3.251741
C	-0.46524	-1.214575	0.668803
N	-0.834856	-2.198201	1.193158
C	-0.522086	1.184715	0.674486
N	-0.945723	2.135199	1.219099
Br	3.317149	0.0	0.0
