15

C	-0.390418	0.022333	-1.496852
C	0.0	0.0	0.0
F	0.010355	-1.190991	-2.030349
H	1.097285	0.0	0.0
C	-1.855451	0.10757	-1.665252
N	-3.01849	0.195104	-1.805672
C	0.329843	1.140891	-2.221264
H	-0.01056	2.114134	-1.862922
H	0.129335	1.060628	-3.291156
H	1.399854	1.032324	-2.026044
C	-0.514816	-1.193448	0.665161
N	-0.935786	-2.152608	1.195986
C	-0.472708	1.212882	0.661867
N	-0.845102	2.204691	1.169423
Br	3.343773	0.0	0.0
