15

C	-0.390218	0.022859	-1.496927
C	0.0	0.0	0.0
F	0.008886	-1.191052	-2.030378
H	1.097359	0.0	0.0
C	-1.855106	0.110426	-1.665598
N	-3.01791	0.200517	-1.80629
C	0.331759	1.140358	-2.22132
H	-0.007058	2.114115	-1.862861
H	0.131025	1.060503	-3.291207
H	1.401627	1.030124	-2.026178
C	-0.515235	-1.193454	0.664782
N	-0.937177	-2.152174	1.195611
C	-0.472432	1.212843	0.662149
N	-0.844335	2.204639	1.170097
Br	3.343805	0.0	0.0
