17

C	-0.441633	-0.06791	-1.449065
C	0.0	0.0	0.0
Cl	0.363972	-1.499336	-2.218356
H	1.110249	0.0	0.0
C	-1.889485	-0.229991	-1.60591
N	-3.048925	-0.244131	-1.800509
C	0.030838	1.159362	-2.226199
H	-0.50386	2.051567	-1.901545
H	1.098466	1.289094	-2.040617
H	-0.15379	0.993244	-3.288441
N	-0.45394	-1.105386	0.828855
O	-1.124785	-2.016132	0.323719
O	-0.010718	-1.101623	1.98318
N	-0.394309	1.261397	0.640693
O	0.294229	2.24749	0.352063
O	-1.363257	1.272079	1.410865
H	2.382354	0.0	0.0
