17

C	-0.426861	0.061076	-1.451069
C	0.0	0.0	0.0
Cl	-2.21187	-0.237551	-1.664527
H	1.109614	0.0	0.0
C	-0.141187	1.398727	-1.983056
N	0.132687	2.410547	-2.516591
C	0.340503	-0.944038	-2.308521
H	0.16907	-0.718923	-3.361736
H	1.400374	-0.85035	-2.056701
H	0.009034	-1.954136	-2.085727
N	-0.383705	-1.242462	0.661729
O	-1.127855	-1.212994	1.644989
O	0.117402	-2.268138	0.186491
N	-0.432502	1.135399	0.816409
O	0.133912	1.23677	1.90648
O	-1.247522	1.943106	0.355714
H	2.391695	0.0	0.0
