14
Coordinates from ORCA-job run
  C   0.79082154033700      0.05364186741952     -0.87259332687203
  C   -0.14388625969019      0.29518567889929      0.32005974685465
  Cl  0.34256032621017     -1.41598818845160     -1.77833349289908
  H   0.28783748911684      1.11243385564574      0.90450869051444
  H   0.65707892138819      0.89287163877126     -1.56081918299326
  C   2.20121832135456     -0.00249489004283     -0.49803538055242
  N   3.34860919569848     -0.01587234369281     -0.24820203389347
  N   -0.07685486558659     -0.89800306805364      1.23744401891244
  O   -1.03325978224221     -1.66644195304609      1.25250230708664
  O   0.95685042070496     -1.01159066155473      1.89181357384727
  C   -1.56715688983434      0.60020103362364     -0.08943662915268
  H   -1.58325297510703      1.51957347624902     -0.67976714722666
  H   -1.99419709522954     -0.21189474206169     -0.67424847268868
  H   -2.18836834712031      0.74837829629493      0.79410732906284
