14
Coordinates from ORCA-job run
  C   1.05060843505245      0.49085439962993     -0.54007538989089
  C   -0.19457394128496      0.47003391313147      0.35245001208110
  Cl  0.83677651295608      1.70821715673326     -1.82884183193019
  H   -0.34426236889492      1.48486680129351      0.73526527238864
  H   1.91514317389926      0.80249849469996      0.04292886598624
  C   1.30895008539182     -0.82415431175108     -1.11723373251077
  N   1.49471527673601     -1.89532902677846     -1.56138187719781
  N   0.13304985279813     -0.35270220405675      1.58706193276932
  O   -0.80144623189872     -0.89900478749264      2.16024060976221
  O   1.30583755753217     -0.36786656065584      1.95473947287848
  C   -1.44278885269519     -0.05745990123968     -0.32002116199515
  H   -2.29320041410368      0.01169593013159      0.35487712077414
  H   -1.31345972495942     -1.10231164945181     -0.60715674706052
  H   -1.65334936052901      0.53166174580653     -1.21285254605478
