14
Coordinates from ORCA-job run
  C   1.07267677633562      0.47776697454007     -0.50761774483463
  C   -0.18892810869250      0.46512967798305      0.36149266457912
  Cl  0.91132523720206      1.73318932011939     -1.76814692261230
  H   -0.32212862251077      1.47335323777405      0.76725431498922
  H   1.93426389572493      0.75325614304124      0.09759261705196
  C   1.30896854259147     -0.82725062016346     -1.11590709811839
  N   1.47504370175624     -1.88969778677975     -1.58798028080265
  N   0.09373293203646     -0.39623390640777      1.58032479547103
  O   -0.86864757582862     -0.91279388111197      2.13479162381437
  O   1.26190126737016     -0.47067564922801      1.95561096601186
  C   -1.43702219122338     -0.01414196818043     -0.34684794695543
  H   -1.32613974559193     -1.05290715683650     -0.66260905953670
  H   -1.61944860225274      0.60522643252529     -1.22525697370946
  H   -2.29659750691700      0.05477918272480      0.31629904465201
