14
Coordinates from ORCA-job run
  C   0.83407242972005      0.12289040124225     -0.82359609907641
  C   -0.16156589110829      0.26511713665910      0.33528785649276
  Cl  0.44807756904396     -1.27847231411202     -1.85757252371876
  H   0.23456985636414      1.03216748191864      1.00661807538481
  H   0.72392727403060      1.00995794093042     -1.45348588372505
  C   2.22493544265847      0.05211289572010     -0.38432863734936
  N   3.35623785263387      0.04691118405143     -0.06945150414417
  N   -0.13498482415400     -0.99962063857579      1.15388785854338
  O   0.87259417296075     -1.17411546827119      1.83481701502749
  O   -1.09483349340496     -1.75923355478026      1.07052167737102
  C   -1.56324755354576      0.60096121391123     -0.12171427058551
  H   -1.95387755186170     -0.15961001289482     -0.79473695604970
  H   -2.23141680881649      0.67322005025425      0.73656413561598
  H   -1.55348847452065      1.56671368394667     -0.63281074378648
