14
Coordinates from ORCA-job run
  C   1.06318929172534      0.35508200947070     -0.62890439541971
  C   -0.11224791067003      0.50687465935690      0.33971052212921
  Cl  0.89596950993996      1.58176847793743     -1.91961648892438
  H   -0.17709806460476      1.55625662858479      0.63949066936517
  H   2.00085293647097      0.56698354645940     -0.11597962322394
  C   1.12746261324619     -0.97882226197732     -1.21597716379072
  N   1.15235513074139     -2.05005378568550     -1.69622970989410
  N   0.19701964318636     -0.23703053119848      1.61649423751389
  O   -0.62763274881979     -0.11871098850250      2.51502981441566
  O   1.23463940271076     -0.89487349818896      1.67005775620493
  C   -1.44207659862152      0.01635929753133     -0.20056079595386
  H   -1.40379609655066     -1.05664581978745     -0.39902477011205
  H   -2.22845725382189      0.21478099844325      0.52612622663686
  H   -1.68017985493231      0.53703126755641     -1.12861627894696
