14
Coordinates from ORCA-job run
  C   0.99647316234028     -0.31871402745375     -0.60785340823943
  C   0.01752460883457      0.13818867780601      0.46891197496144
  Cl  2.53160699951804     -0.84340607063420      0.13311638328442
  H   0.49285525935803      0.87251929406697      1.12031331165044
  H   0.57932322465056     -1.18672910318986     -1.12266857375299
  C   1.24078882918403      0.75805940068846     -1.55975704555152
  N   1.40788168983698      1.63946644250664     -2.31785629795103
  N   -0.27569086951311     -1.04266994832178      1.35064570706952
  O   -0.23728972005961     -0.85493038460121      2.56209759348084
  O   -0.57502112505611     -2.09153989343214      0.78595973503989
  C   -1.29896555972946      0.63778272237944     -0.10186568910229
  H   -1.98698112603376      0.86946162888765      0.71336994271821
  H   -1.13888933393681      1.54524872296804     -0.68532413065688
  H   -1.75261603939361     -0.12373746167028     -0.73908950295060
