14
Coordinates from ORCA-job run
  C   1.04971744162948      0.43694038048287     -0.55630042794348
  C   -0.18729343643044      0.48556870961044      0.34966103415425
  Cl  0.89159120275096      1.64123525063545     -1.86278728853651
  H   -0.27141860264645      1.50789677433987      0.72670938467326
  H   1.92647314044348      0.72082474285064      0.02713030656438
  C   1.24471559106538     -0.89688534435424     -1.11556494922732
  N   1.38424661120874     -1.98144087765822     -1.54415066854550
  N   0.16827462748439     -0.33586769416327      1.57190931634060
  O   1.12953939969787      0.07171962569259      2.22076317264200
  O   -0.50042169322763     -1.33238558408190      1.82387663618301
  C   -1.46664290275504      0.00579640683373     -0.29133234868202
  H   -1.70232585617036      0.63883015216095     -1.14762779285915
  H   -1.37678280766877     -1.02847654247516     -0.62296425566904
  H   -2.28867271538161      0.06524400012627      0.42167788090550
