13
Coordinates from ORCA-job run
  C   -0.28865848649505     -0.02074569478882     -0.57667635362092
  C   0.90489590273893      0.82832859110828     -0.17760720538355
  F   -0.82386811849997      0.48903658251878     -1.72738685713027
  H   0.58380217946788      1.86491510675206     -0.08081896695905
  H   1.63781154723405      0.75266392485423     -0.98403640389129
  N   0.01508322089181     -1.36798146390768     -0.75395930115470
  H   0.56525042623669     -1.74365207192405      0.00683659744730
  H   -0.82414841934525     -1.91952994690869     -0.88131418971227
  N   -1.44474110399296      0.21675447532815      0.44950506685327
  O   -1.52084588851555      1.32708173878643      0.96308756014915
  O   -2.22063220002165     -0.71864282679084      0.61276104013563
  C   1.48422355388452      0.35881138608761      1.07572998973531
  N   1.93282738641654     -0.06703980111545      2.07287902353140
