13
Coordinates from ORCA-job run
  C   -0.31103114095177     -0.00755944294107     -0.47971558377982
  C   1.07593737541805      0.04391030545089      0.16780277127762
  F   -0.40753959338983      1.00631729812160     -1.36525662022950
  H   1.81508688014836     -0.12821367643984     -0.62010336747208
  H   1.15340848947662     -0.76278683916329      0.89937175371751
  N   -0.69166248919881     -1.21569780316594     -1.11517832049469
  H   -0.74492890257458     -1.97778037627904     -0.45327087194172
  H   -0.06429934629544     -1.44089773737611     -1.87609212394427
  N   -1.33705965185097      0.22474636962570      0.62798195452954
  O   -1.39083264958800     -0.68021510313510      1.45713542346537
  O   -1.98837513333026      1.25493213703068      0.60782652548577
  C   1.34213582523341      1.32670392395724      0.81304717393102
  N   1.54916033690321      2.35654094431428      1.33545128545526
