13
Coordinates from ORCA-job run
  C   -0.19251653127817     -0.03407069410092     -0.50808020962494
  C   1.15175206744754      0.08531831625683      0.19210804368841
  F   -0.35680211263883      0.96838976040711     -1.39480448544112
  H   1.26366844865670     -0.73081773000144      0.90835361870907
  H   1.92117330147821     -0.01236635870077     -0.57702863299128
  N   -0.32892341788002     -1.27029341486207     -1.17375268282075
  H   -0.33649897383915     -2.03929653621741     -0.51661439854936
  H   -1.17494086839881     -1.28310472872414     -1.73144179246358
  N   -1.29049471802064      0.16259974896758      0.57083408918296
  O   -1.27319403137123     -0.69702286617570      1.44928374308753
  O   -2.07173402911729      1.09479671669856      0.46343247913020
  C   1.28965218545265      1.36532678050182      0.88062296584601
  N   1.39985867950902      2.39254100595055      1.43608726224684
