13
Coordinates from ORCA-job run
  C   -0.32425210551421     -0.03317801816369     -0.25976311502903
  C   0.69253680184546      0.74567210074360      0.55762084502766
  F   -0.45979718275602      0.59479555894202     -1.49080553551141
  H   0.67861548569046      0.39197426978664      1.58932000024417
  H   0.42243949084562      1.80199728544064      0.55097750031218
  N   -0.05109660017460     -1.39824133152316     -0.33546659158285
  H   0.86865991826044     -1.58018879929125     -0.71568461097969
  H   -0.76563692881889     -1.88555840383973     -0.86105454442956
  N   -1.71496915579028      0.10763726644828      0.35758830026869
  O   -2.58276352286814     -0.59607466221763     -0.14452200692641
  O   -1.86431003329410      0.92125661161738      1.26238119740846
  C   2.02150186634931      0.55957808958686     -0.01826108729048
  N   3.07807196622493      0.37133003247004     -0.49233035151174
