13
Coordinates from ORCA-job run
  C   -0.26582900790442     -0.04712724672991     -0.37349248760909
  C   0.76211252478625      0.69623765070270      0.46175065656200
  F   -0.32366746086872      0.48253780223347     -1.63155151709296
  H   0.67146586531125      0.40230222222230      1.51172786717392
  H   0.54269038340228      1.76257473718843      0.40426738344758
  N   -0.04125554354813     -1.41658164246651     -0.45348621548755
  H   0.20571306357254     -1.83525462493885      0.43109666001536
  H   -0.81743480941380     -1.90409274890419     -0.88102322781592
  N   -1.68330701754870      0.31003183105468      0.18936626504151
  O   -1.83963033934438      1.43410557418066      0.65367568578805
  O   -2.54393520640099     -0.55541564530325      0.07183563969846
  C   2.11651868416445      0.43315191569058     -0.01456042515252
  N   3.21655886379237      0.23653017506991     -0.37060628456883
