13
Coordinates from ORCA-job run
  C   -0.35564711534672     -0.07399302173940     -0.43345692547070
  C   0.88772849380119      0.77527083810286     -0.25197703885838
  F   -0.96439227406649      0.36466864741939     -1.60852258637264
  H   1.53674860119137      0.59400467322330     -1.11423932056608
  H   0.59997326513834      1.82647101677153     -0.26553384867073
  N   -0.11525825864711     -1.44171262000000     -0.37969819847395
  H   0.58659900270525     -1.74164044463967     -1.04086018545902
  H   -0.96650667473180     -1.98161313738344     -0.45890626392434
  N   -1.40482136750745      0.24749946776552      0.63090721111374
  O   -1.27907671347767      1.29671407738736      1.25106304742143
  O   -2.32557029587519     -0.55522684694504      0.72664561146967
  C   1.60105425505619      0.46436514718922      0.98151132467415
  N   2.19816908176010      0.22519220284836      1.96206717311686
