13
Coordinates from ORCA-job run
  C   -0.32856709517781     -0.01585909072653     -0.46798137485199
  C   1.07836277797162      0.09052227482485      0.12766851128762
  F   -0.50391489192916      1.00365545425508     -1.33482166070976
  H   1.21998980014196     -0.71946655894212      0.84585898432406
  H   1.79391518078235     -0.03960265922533     -0.68954509478029
  N   -0.67951226800640     -1.23191537578902     -1.10518452579797
  H   -0.07069671188851     -1.42039960013444     -1.89080988503770
  H   -0.67524695092522     -2.00336143356382     -0.45195888457981
  N   -1.32092179626594      0.15658788317580      0.68119599519619
  O   -2.01759483595926      1.15678005448369      0.69944346065435
  O   -1.30297191482578     -0.76028620366132      1.49881750219484
  C   1.31122469128244      1.37669454312395      0.77911079775865
  N   1.49493401479972      2.40765071217922      1.30820617434181
