13
Coordinates from ORCA-job run
  C   -0.28560280348145     -0.02822819761690     -0.57864342231410
  C   0.93621842444664      0.78809403149825     -0.19700264866097
  F   -0.79512500672727      0.46585927670809     -1.74768235866928
  H   1.67164395139133      0.65958058039350     -0.99438820579634
  H   0.65332884478188      1.83843329086551     -0.13573787707163
  N   -0.03087118175107     -1.39045963764773     -0.71290531381578
  H   -0.88935325532817     -1.91444337920195     -0.82810343616993
  H   0.50098377105708     -1.76244536887959      0.06261598415681
  N   -1.43753637697853      0.28322397024567      0.43278190049343
  O   -2.24231837765911     -0.62091628145797      0.62871508248212
  O   -1.48032210737596      1.41429772939145      0.90318603209856
  C   1.48788015148158      0.33815181389065      1.07576581661933
  N   1.91207396614303     -0.07114782818898      2.09039844664779
