13
Coordinates from ORCA-job run
  C   -0.37368971641635     -0.01270576033916     -0.18370909849972
  C   0.79286484269576      0.69380680434998      0.48606902049184
  F   -0.78688095540948      0.76278624142954     -1.25923734566183
  H   1.01334382371521      0.21021100765402      1.43857526100767
  H   0.51791925796321      1.73079006366021      0.68076572763332
  N   -0.11186232625065     -1.34487850984359     -0.50019450053827
  H   0.70134030507200     -1.44067679354297     -1.09437740031959
  H   -0.92118564850176     -1.78821219468144     -0.91570735852966
  N   -1.59254219400657     -0.00584772718828      0.73762432592826
  O   -2.54382800676822     -0.67302072917556      0.35006869200613
  O   -1.54460215895163      0.68121096520833      1.75184072235974
  C   1.96122957174372      0.63545379375147     -0.38793207765763
  N   2.88689320511475      0.55108283871747     -1.10378596822027
