13
Coordinates from ORCA-job run
  C   -0.40886839847867      0.09247898944395     -0.33110275865158
  C   0.72649555057128      0.56010228564563      0.59078041551230
  F   -0.57263066864440      1.02237942702209     -1.29609868180968
  H   0.78007365702591     -0.10182384332068      1.45800674987709
  H   0.51522702640086      1.57662944537705      0.93552917284537
  N   -0.32261086881778     -1.18408533345502     -0.93184120606691
  H   0.48077821863003     -1.23985185823206     -1.54552294678773
  H   -0.29814792981612     -1.91852919158180     -0.23781489544481
  N   -1.66850065655796      0.07484775054598      0.53566303136206
  O   -2.51026367641725      0.93703016607225      0.34441828697847
  O   -1.69347030102559     -0.81955827514473      1.37673813866498
  C   1.98820581223111      0.53034496709511     -0.13985740392651
  N   2.98371223489857      0.47003547053222     -0.75789790255307
