13
Coordinates from ORCA-job run
  C   -0.37222787997498     -0.02469433802518     -0.52619861779855
  C   0.87649287881573      0.81445284161293     -0.32352309687716
  F   -1.06962963432246      0.47743799822401     -1.59037097988265
  H   0.58459439005064      1.85654366695123     -0.19710313730818
  H   1.47974212386710      0.71764717472978     -1.22904660096344
  N   -0.11237991482805     -1.37758135182999     -0.72853685451353
  H   0.54436163041698     -1.75028786893828     -0.05593503334353
  H   -0.96650944549822     -1.92066946505296     -0.71944305586284
  N   -1.35856549060687      0.23857242090483      0.65810559174074
  O   -1.33471012007051      1.35001877842755      1.17452873724264
  O   -2.12267536645140     -0.67972030216046      0.93506426351040
  C   1.63139202983930      0.35688318037384      0.83737723069067
  N   2.21911479876274     -0.05860273521730      1.76408155336543
