13
Coordinates from ORCA-job run
  C   -0.25674170547267     -0.06943179796004     -0.36362849301402
  C   1.12101806980741      0.00618246178134      0.26753866495911
  F   -0.41237733505851      0.99870514743939     -1.22572493807246
  H   1.18981627666032     -0.73010121260466      1.06808999328972
  H   1.85178897000418     -0.25400678615289     -0.50449029623043
  N   -0.50517813751594     -1.31720325088848     -0.95064571839406
  H   -1.44272383366566     -1.34879007174585     -1.33378824148384
  H   0.17491787821231     -1.53417405843300     -1.66691393471116
  N   -1.35475708764672      0.12633151728041      0.67964117104136
  O   -1.02295178044423      0.26151643669119      1.85119937536373
  O   -2.49563308083001      0.11705254495079      0.23283943561321
  C   1.43402758445108      1.33848253691600      0.77549926650043
  N   1.71879418149843      2.40543653272579      1.16938371513841
