13
Coordinates from ORCA-job run
  C   -0.28543367703695      0.06518277552647     -0.36511408975192
  C   0.74917361315882      0.53738684466140      0.64654176821398
  F   -0.42207241069220      0.96512959649254     -1.36019360217282
  H   0.42918905518593      1.50483007442726      1.04441352688442
  H   0.79652079156565     -0.16982010678580      1.47741570496913
  N   0.01066430215339     -1.19328893068367     -0.91296394250516
  H   -0.63860689328136     -1.43858629820006     -1.64997776059047
  H   0.03809258725200     -1.91486853098018     -0.20597645661189
  N   -1.64201940854446      0.06962837864100      0.39978985886719
  O   -2.51626519533814      0.85131988356350      0.05686505599997
  O   -1.70107263985537     -0.75648148072780      1.30792409409923
  C   2.05996569852024      0.67625077570430      0.02069487964303
  N   3.12186417691245      0.80331701836106     -0.46041903704470
