13
Coordinates from ORCA-job run
  C   -0.22915812598081     -0.02680212104788     -0.49388962751599
  C   1.15117058043001      0.18679462065678      0.10688419517940
  F   -0.55754226528249      0.99873177428203     -1.30549572364489
  H   1.39869474347305     -0.65193013043051      0.76019552639998
  H   1.86008369324911      0.20805653514718     -0.72379762608875
  N   -0.30466079992029     -1.23504580242056     -1.21807369737093
  H   -0.18986623706910     -2.03367816911808     -0.60792956533288
  H   -1.18737061020185     -1.29980196176535     -1.71145653582086
  N   -1.24831653522250      0.00803946798931      0.67605217558707
  O   -1.07809784211300     -0.88765259078448      1.50047738339988
  O   -2.11864177209671      0.86428328233471      0.68280853814274
  C   1.22370491780653      1.43441144079351      0.86164127987745
  N   1.28100025292805      2.43459365436334      1.47158367718777
