13
Coordinates from ORCA-job run
  C   -0.24602388030570      0.00774334082190     -0.39819559152287
  C   0.76423621604638      0.58831525159731      0.58115949426861
  F   -0.18643036769974      0.65382201064983     -1.58046548896707
  H   0.54791660113240      1.65266067157925      0.71148991949681
  H   0.65421124413469      0.10047515152544      1.55198071305679
  N   -0.08061743607109     -1.37045913904529     -0.61183921938888
  H   -0.20401552564864     -1.89998226498870      0.24016115293872
  H   -0.70209005026516     -1.70936107797249     -1.33578609984441
  N   -1.64263397216947      0.34687870969664      0.20081813444162
  O   -1.87858955502565     -0.22580173621106      1.26237779526901
  O   -2.37662770359925      1.11732497494005     -0.39965598062716
  C   2.12501092378542      0.42546390269785      0.08052890077746
  N   3.22765350568583      0.31492020470928     -0.30357372989868
