13
Coordinates from ORCA-job run
  C   -0.35135423433941     -0.08477280819670     -0.43537220717234
  C   0.85308897787003      0.81642534365328     -0.24219381773173
  F   -0.97703877160772      0.33848780945898     -1.60711588353589
  H   0.51956452032763      1.85421894863867     -0.24304634804750
  H   1.51041564961637      0.67461480704036     -1.10552005978380
  N   -0.05048847388160     -1.44089459795225     -0.39494826493598
  H   -0.87647576119506     -2.01752646781723     -0.48150626939704
  H   0.66617882364029     -1.70292059768946     -1.05623763687687
  N   -1.41538961724889      0.17900870715424      0.63015163784538
  O   -2.29939541315844     -0.66513734418619      0.71644105697167
  O   -1.33786193440307      1.22709405521976      1.26028320856627
  C   1.57745814200406      0.52271010531294      0.98928991684962
  N   2.18229809237581      0.29869203936361      1.96877466724819
