13
Coordinates from ORCA-job run
  C   -0.38300982709484     -0.00426135220900     -0.37259414533265
  C   0.75582660372279      0.67867391020186      0.39808077808231
  F   -0.40797402733515      0.50749847382696     -1.62156196344926
  H   0.70266713800326      0.38694900248021      1.44933545379553
  H   0.63955444835390      1.76419534988908      0.32750159770880
  N   -0.40686890392405     -1.41525481073719     -0.45336540733679
  H   0.40721896035778     -1.76109159316239     -0.94589329212017
  H   -0.48170942921289     -1.83743081726261      0.46180114174701
  N   -1.67231333611221      0.40735372994586      0.33983622588197
  O   -2.40837312776090      1.20441490157950     -0.21794709032730
  O   -1.82708077877320     -0.10508094279576      1.44486754327210
  C   2.03690239309444      0.27320843525498     -0.16845275389083
  N   3.04515988668107     -0.09817428701152     -0.63960808803073
