13
Coordinates from ORCA-job run
  C   -0.40583132273158      0.11086731611900     -0.33020165607340
  C   0.73461788291872      0.52949002486683      0.60822595610500
  F   -0.54737199059718      1.06887312161030     -1.27024634255564
  H   0.76830038948579     -0.15410136334346      1.45950959412001
  H   0.54568832335666      1.54218147921272      0.97647963352676
  N   -0.34397967280662     -1.15082799933745     -0.96489062560612
  H   -0.32797823481064     -1.90348455621515     -0.29047628381179
  H   0.45604004908641     -1.20321437254074     -1.58300792423460
  N   -1.66943746412858      0.09580240986740      0.53208812696640
  O   -2.49128757169811      0.98132457864414      0.36310005034060
  O   -1.71750872456492     -0.82234303762761      1.34582977665563
  C   2.00005743955437      0.48805426526709     -0.11586804331293
  N   2.99769089693569      0.41937813347693     -0.72954226211993
