13
Coordinates from ORCA-job run
  C   -0.33726068446250     -0.06695788373024     -0.23616605840504
  C   0.76574786940691      0.80142486274746      0.34516643151458
  F   -0.49030430332048      0.26863864496049     -1.57507644419616
  H   0.77047978380979      0.70485942671751      1.43162970100469
  H   0.57023463039172      1.84380581143112      0.09204463937272
  N   -0.15766734966235     -1.42935974945075     -0.00021530732147
  H   0.72564974133206     -1.76241980414953     -0.36436311506075
  H   -0.92982053564138     -1.96839380776168     -0.37134684796885
  N   -1.68481793782968      0.31607953686241      0.37449116552789
  O   -1.73805794892800      1.32774902583065      1.06488184437305
  O   -2.61942510770778     -0.41920343181723      0.08029064309727
  C   2.05319849623573      0.38113130359422     -0.20043879578801
  N   3.07304334637594      0.00364606476556     -0.64089785614992
