13
Coordinates from ORCA-job run
  C   -0.27220379336136     -0.09094674737236     -0.34724350854731
  C   1.13272128931189      0.07606355001763      0.20112794486442
  F   -0.54077058876528      0.95185840021624     -1.21234295825593
  H   1.83224758341294     -0.15321081978263     -0.60874235854545
  H   1.29189938197077     -0.64142106524401      1.00590046217286
  N   -0.47955830015894     -1.36076316418481     -0.90246413840643
  H   -1.43454095815864     -1.45257348967622     -1.22869059131399
  H   0.16776577597473     -1.54719060310111     -1.65685488819463
  N   -1.31795950079301      0.05704797665991      0.75590066822089
  O   -2.48008015590538     -0.02631591152120      0.37621112675182
  O   -0.92867807709937      0.23401256033401      1.90403343552039
  C   1.39355215379642      1.43263687578624      0.67348188449367
  N   1.63560518977524      2.51980243786831      1.03968292123968
