13
Coordinates from ORCA-job run
  C   -0.33648183109177      0.02776370813707     -0.45378373517195
  C   0.97555488762804      0.70092866741731     -0.09924533851858
  F   -0.82924459043609      0.69096432154669     -1.57646741916805
  H   1.65018864503739      0.57268740736879     -0.95129701903901
  H   0.79955973426764      1.76874626970296      0.03005308815348
  N   -0.24104153764506     -1.35227393277053     -0.58980949317555
  H   -1.13800457620081     -1.77841143876058     -0.78056637624689
  H   0.45958410373611     -1.62968155557244     -1.26236158692956
  N   -1.40485508484105      0.30938600472086      0.60253184859824
  O   -1.20558223652335      1.23901594989630      1.37543313590400
  O   -2.40789864066721     -0.39156139597629      0.54160046797063
  C   1.58242731636474      0.14152615446071      1.10325317989842
  N   2.09579381037143     -0.30009016017085      2.06065924772483
