13
Coordinates from ORCA-job run
  C   -0.35839011662884     -0.07246619259267     -0.43172973301867
  C   0.88331162380961      0.77981229526241     -0.25297775496919
  F   -0.97672308638203      0.37154300337931     -1.59959478709499
  H   0.59191717915449      1.83008653662002     -0.25837513960670
  H   1.52788026086736      0.60579791806049     -1.12004729699764
  N   -0.11253431473350     -1.43967565057697     -0.38866158305249
  H   0.58719238861053     -1.73223213099186     -1.05541000585963
  H   -0.96222061405956     -1.98208667854307     -0.46819590341590
  N   -1.40109310264486      0.23806600596637      0.64204009888297
  O   -1.27472829770932      1.28342005277501      1.26854748243239
  O   -2.31835000603707     -0.56859172469180      0.73876089387432
  C   1.60502979646517      0.46421802316926      0.97452936239975
  N   2.20870828928802      0.22110854216348      1.95011436642578
