13
Coordinates from ORCA-job run
  C   -0.41511387950031     -0.00851562985412     -0.56474229566114
  C   0.84611848287854      0.79222724162552     -0.23396321298876
  F   -0.95597574833894      0.59645403644674     -1.66415115352207
  H   0.57555206141464      1.84038157081901     -0.08538406551466
  H   1.50595065290898      0.73810736939704     -1.10553264464241
  N   -0.27966439210389     -1.38832693568372     -0.75063212382817
  H   -0.56746866628745     -1.90936780969445      0.06557995963718
  H   0.64403522727558     -1.66148091251506     -1.05159683982948
  N   -1.42120275746406      0.23732734777703      0.57536131147305
  O   -1.96100738905864      1.33372140828572      0.57394713276486
  O   -1.56031083431578     -0.64971666423216      1.41171418778707
  C   1.52621120053490      0.26013919509051      0.94149156758241
  N   2.06487604205642     -0.18095021746206      1.88590817674212
