13
Coordinates from ORCA-job run
  C   -0.21316144209708     -0.13176858074240     -0.48362660173290
  C   1.11929101875134      0.33357697980066      0.08179583812795
  F   -0.63717757247269      0.70627047463094     -1.45110219622650
  H   1.44363534353528     -0.35442904794462      0.86475132156568
  H   1.84154350805806      0.30183380089323     -0.73704518872302
  N   -0.13367116802755     -1.44033225913214     -1.00432559654712
  H   -0.99230987592891     -1.68599027480113     -1.48314503085355
  H   0.05918228378298     -2.11254508493733     -0.27344208656336
  N   -1.25694766854369     -0.02989731169276      0.66050147820551
  O   -2.21918730059177      0.70942277069708      0.52503551899997
  O   -1.00616776486024     -0.75784817182649      1.61867681365267
  C   1.03269313250140      1.68712314208710      0.62216102427455
  N   0.96327750589287      2.77358356296786      1.05876470582013
