13
Coordinates from ORCA-job run
  C   -0.27270315832632     -0.15736611693697     -0.32189517805360
  C   1.11125683768102      0.28311655791000      0.11739815899947
  F   -0.77295058634384      0.76917517506381     -1.21638968507912
  H   1.78950896986471      0.12879837683924     -0.72753822072392
  H   1.44274629151148     -0.34586098656615      0.94342996792452
  N   -0.28576255365599     -1.47478891021655     -0.79825144899756
  H   0.33915528254124     -1.59320240284858     -1.58439197628230
  H   -1.22701081243687     -1.75128228409468     -1.05178368014605
  N   -1.25969732763059     -0.12547068595110      0.84298729986574
  O   -0.83843488398805      0.18229550450693      1.95143508186373
  O   -2.40962952884242     -0.43085008187924      0.55012194578806
  C   1.15720179448161      1.69073683770054      0.50141985311691
  N   1.22531967514403      2.82469901647274      0.79145788172411
