13
Coordinates from ORCA-job run
  C   -0.28758067528090     -0.07689665198397     -0.33788221016866
  C   1.13695722014798      0.12632261997489      0.14363817113918
  F   -0.66468712731604      1.01854935599574     -1.09053361648267
  H   1.79667058939696      0.01255330376170     -0.72211798727705
  H   1.38467980485446     -0.64855079331275      0.86881677330214
  N   -0.45870868511687     -1.30433106699131     -0.99166476741340
  H   -1.42528210227448     -1.42512836110388     -1.27085040134860
  H   0.15131392563508     -1.38704929056320     -1.79399012394614
  N   -1.27043692550631     -0.08664977285314      0.83080719222544
  O   -0.82111656110009      0.01030079309701      1.96641430159459
  O   -2.44734072230271     -0.20522779032683      0.51109547754269
  C   1.35082395527613      1.44985403020184      0.72113541407350
  N   1.55470730358678      2.51525362410390      1.16613177675897
