13
Coordinates from ORCA-job run
  C   -0.22900904726173     -0.03571269878745     -0.49083867777119
  C   1.14629780760637      0.20480828493722      0.11125247071129
  F   -0.57310618583140      0.97900002794550     -1.30933373413465
  H   1.40025784271249     -0.61749915841693      0.78274115141780
  H   1.85887711453574      0.21753494047383     -0.71659015713615
  N   -0.28291110412859     -1.24936562453442     -1.20764129701468
  H   -1.16613294480707     -1.33584138451493     -1.69686908698099
  H   -0.14851870073228     -2.04205430957947     -0.59389891697256
  N   -1.25086722603283     -0.01095048785191      0.67690698587752
  O   -2.13604450367809      0.83019290267229      0.67623922739227
  O   -1.06682334400583     -0.89750463234533      1.50826031144390
  C   1.20197338415569      1.47018736675670      0.83777536547129
  N   1.24800690746754      2.48820477324491      1.41899635769617
