13
Coordinates from ORCA-job run
  C   -0.34357377136093     -0.02110852530866     -0.45671270670517
  C   1.07528156916181      0.14959887952503      0.09401841154944
  F   -0.60840102316376      1.01186211589823     -1.28369630437059
  H   1.28917434177170     -0.67274858404695      0.77956463959002
  H   1.76787229559251      0.08846388973408     -0.75053595369135
  N   -0.64634912616788     -1.23583319845202     -1.12103565293870
  H   -0.56837166254357     -2.02541344669266     -0.49468270335787
  H   -0.05927455704433     -1.36153735246979     -1.93520238486198
  N   -1.30224626394135      0.05735732674716      0.73030653360474
  O   -2.05323585774393      1.01448542505426      0.80597269528527
  O   -1.20248174386946     -0.88186514293016      1.51579464506128
  C   1.25580256631583      1.42667822637925      0.77940472729740
  N   1.39580323299337      2.45006038656224      1.33580405353751
