13
Coordinates from ORCA-job run
  C   -0.29964254013663     -0.00975546010927     -0.57064218099366
  C   0.91433808571846      0.81636407355836     -0.18509350065524
  F   -0.84793672709644      0.52077959634082     -1.70580208759122
  H   0.61175621295301      1.85692865108685     -0.07266288543364
  H   1.63084457014915      0.73657555437848     -1.00568510498546
  N   -0.02005205323470     -1.35942560971816     -0.76805982475183
  H   -0.86970811283327     -1.89680099915508     -0.88704392923629
  H   0.53844885515856     -1.75205850815500     -0.02210279274516
  N   -1.43324774734430      0.23357180111895      0.47835204429231
  O   -2.22840272714300     -0.68695597077833      0.63338718515795
  O   -1.47602286193432      1.33442125394699      1.01557640693145
  C   1.50895252481308      0.32503611865619      1.05257384414700
  N   1.96967252093039     -0.11868050117080      2.03620282586379
