13
Coordinates from ORCA-job run
  C   -0.41588999050656      0.00417060615084     -0.55141290545765
  C   0.87186055441789      0.76974332811926     -0.26181733553473
  F   -0.99339429773975      0.64001847080677     -1.62354317138738
  H   1.51219375549017      0.68687782946492     -1.14540271221125
  H   0.63098579864541      1.82463879218788     -0.11820104054027
  N   -0.29910847526393     -1.36823552121670     -0.75438339350665
  H   -0.74463154028021     -1.91428524153525     -0.03182138147995
  H   0.63895737495840     -1.68158678397981     -0.94667976385887
  N   -1.39168768618236      0.27153011857791      0.61553071581585
  O   -1.72450409114926      1.43990145490086      0.75580284666175
  O   -1.73987830553268     -0.67747491837872      1.31006974258626
  C   1.55707393736608      0.23085545502866      0.90768097850598
  N   2.09802296577680     -0.22415359012662      1.84417742040692
