13
Coordinates from ORCA-job run
  C   -0.36571930363200     -0.04333944569616     -0.53089528931458
  C   0.87697534580094      0.80784724748415     -0.33931015786299
  F   -1.05327471452702      0.42120632865172     -1.61790039520207
  H   1.49544985693625      0.68064567602936     -1.23072208461326
  H   0.57974057591835      1.85276714710871     -0.25512087320795
  N   -0.09657858802900     -1.40035282717489     -0.68765146061633
  H   -0.94810523052157     -1.94782884260253     -0.67192527827330
  H   0.55354050024561     -1.74850771017723      0.00433258765064
  N   -1.36568676317282      0.25211560945429      0.63415419746673
  O   -1.36265069640192      1.38372616510839      1.10502569861198
  O   -2.11771588048102     -0.66608728029126      0.94284261452050
  C   1.61464715815268      0.39490247764414      0.84882582323607
  N   2.18937773971153      0.01390545446130      1.79834461760457
