13
Coordinates from ORCA-job run
  C   -0.07177474480330      0.48003437360146     -0.09213206200388
  C   1.08451912099014     -0.19689134604355     -0.30556972147483
  H   2.04308970398071      0.29054358356575     -0.42627796770416
  N   -0.06262330939412      1.85599011828580     -0.11882192323405
  H   0.83726404002602      2.30857022833923     -0.07362170444633
  H   -0.77774571197920      2.31693507265045      0.41893545835246
  C   -1.42752854964351     -0.13778058858065      0.09349992591548
  H   -1.72515832913781     -0.67644538854393     -0.80605760688193
  H   -2.17012466130204      0.63500863135430      0.30168171994216
  H   -1.41929626428540     -0.86749253645127      0.90145158575360
  N   1.18789676757507     -1.62116476088839     -0.41981914958461
  O   2.32736918140941     -2.06496065646347     -0.58664336408207
  O   0.17411275656402     -2.32234673082571     -0.34662519055183
