13
Coordinates from ORCA-job run
  C   -0.26308028742923      0.19228449015127     -0.03537940991628
  C   0.46945754327310     -0.89602859569239     -0.40211107030612
  H   0.02456019378448     -1.79157772569572     -0.80660138311039
  N   0.22441101121366      1.31991995652062      0.53829507521162
  H   1.22554925807021      1.44217282291208      0.52515124876483
  H   -0.35636393871614      2.14039033629973      0.52999210566379
  C   -1.75623914556513      0.14021402646957     -0.18760648699049
  H   -2.23620657087614      0.27277253786820      0.78530736722061
  H   -2.08360549046404     -0.80786732738267     -0.61136663193768
  H   -2.09737061015983      0.94587283927569     -0.84463917782850
  N   1.89327955179432     -0.96329384189379     -0.33261197794531
  O   2.42408639624025     -2.00272804435822     -0.72839697919900
  O   2.52852208883449      0.00886852552563      0.10896732037292
