13
Coordinates from ORCA-job run
  C   -0.26168302270806      0.20761203239756     -0.10000900755670
  C   0.49569734518653     -0.91572918989093      0.04047268143209
  H   0.07689100303262     -1.87479386635332      0.30208285644445
  N   0.20729175157786      1.45258081429482     -0.36025968025827
  H   1.16968315423105      1.52809425919585     -0.65230012124039
  H   -0.44644239462911      2.14318503678153     -0.68603796127266
  C   -1.74215213440402      0.11209162925862      0.13313820454669
  H   -2.04472629803395     -0.90543335536324      0.37535401115536
  H   -2.28751427997008      0.42876154711181     -0.76094833226192
  H   -2.03405209270129      0.76948725257875      0.95604585980979
  N   1.90526329375874     -0.96370097323827     -0.17589559903108
  O   2.50936228523458      0.07710745676583     -0.48501506334444
  O   2.45438138942512     -2.05926264353901     -0.04562784842291
