13
Coordinates from ORCA-job run
  C   -0.07834668544699      0.44241998457361     -0.01371714116629
  C   1.07567869758498     -0.26920477895546     -0.03776825893553
  H   2.03705399925769      0.19257882122487      0.14742886800969
  N   -0.03041459962321      1.77657963190128      0.33546021643158
  H   0.87256592097079      2.22410739026100      0.30753673858821
  H   -0.77637051016629      2.34935674577500     -0.02509260402308
  C   -1.47081451248350     -0.05799409678484     -0.25295705498698
  H   -1.90544228544253      0.47661773640727     -1.10386052846637
  H   -2.08210089512241      0.16275209164014      0.62585811880158
  H   -1.49253531297717     -1.12157035505684     -0.45385222097422
  N   1.22279809456498     -1.68191483875718     -0.26796239253635
  O   0.24285807505426     -2.40039403124427     -0.47393624282791
  O   2.38607001382940     -2.09433430098458     -0.24513749791432
