13
Coordinates from ORCA-job run
  C   -0.27158823771866      0.19271205956434     -0.14316718504760
  C   0.51056990610740     -0.90340269193408      0.06391277045031
  H   0.12670751788908     -1.82807700537559      0.46551499353898
  N   0.13319065507092      1.36152074628904     -0.69660839654703
  H   1.12657948329823      1.50021217574968     -0.80213998098155
  H   -0.45467629804570      2.16850487813460     -0.58096556835942
  C   -1.73634885183503      0.10305909728159      0.17673607812194
  H   -2.01443743209468      0.87590732943556      0.89949745187690
  H   -2.32726848779183      0.26092189994596     -0.72911899146763
  H   -1.99566656744357     -0.86712410103760      0.59757404876959
  N   1.91638258911337     -0.94079450067379     -0.17484763631297
  O   2.50210777525365     -1.99140189341760      0.09349345207667
  O   2.48344794819683      0.06696200603789     -0.62988103611818
