13
Coordinates from ORCA-job run
  C   -0.29484288224293      0.17004456081980     -0.15088171177816
  C   0.54306445173480     -0.89921636307171     -0.01362437774852
  H   0.21051560814567     -1.84213462420851      0.39284523056303
  N   0.07542347039613      1.39112292028878     -0.59324096549044
  H   -0.59515998942285      2.12932699933914     -0.69990943419383
  H   1.03605604550380      1.55584045338620     -0.84533897794757
  C   -1.71057139897058      0.06254957080104      0.34164069778465
  H   -1.76640732575653      0.47765005727864      1.35029997790865
  H   -2.03167948713278     -0.97845683102011      0.38684164553514
  H   -2.39640833409409      0.60757524621617     -0.31074417871287
  N   1.93085213084162     -0.88872482845766     -0.34587797596524
  O   2.47021512676921      0.17872734081725     -0.68307446482442
  O   2.52694258422852     -1.96630450218903     -0.28793546513044
