13
Coordinates from ORCA-job run
  C   -0.09860493280953      0.47105456779395     -0.17694894669701
  C   1.07691748024720     -0.18248053312298     -0.35612218044950
  H   1.97427656154458      0.30009571883931     -0.72054155630085
  N   -0.15094186126507      1.83142447153039     -0.37919851528328
  H   0.62476075475352      2.25167314797815     -0.86731056263864
  H   -1.04739657194468      2.20961204637516     -0.63692643537357
  C   -1.37672883366797     -0.14232526496969      0.31727431837438
  H   -1.66944747672599     -0.99023075709742     -0.29994308199273
  H   -1.24741583240542     -0.52664640753394      1.32876934117078
  H   -2.17561802036665      0.60181315733549      0.32282328518627
  N   1.29222798790848     -1.56945643324783     -0.06836189472564
  O   2.42432825682837     -1.99796031672863     -0.30915046207338
  O   0.37264248790317     -2.25657339715197      0.38663669080318
