13
Coordinates from ORCA-job run
  C   -0.08608164051467      0.46873707427706     -0.01871578454778
  C   1.09005786974639     -0.20571192332872      0.03431300390671
  H   2.02073712164966      0.24968040120809      0.34650587663388
  N   -0.10174086536602      1.81915654832905      0.24553133567548
  H   0.71867759910606      2.21024260671496      0.68205755209984
  H   -0.96781370305294      2.19524375490415      0.59405566670048
  C   -1.40937151667844     -0.10797796707493     -0.43137832731265
  H   -1.37356840943553     -0.43358896451634     -1.47091341667812
  H   -2.19820828637100      0.63918610196699     -0.32426562231407
  H   -1.65482097828382     -0.98901681225082      0.15929374270157
  N   1.26079157336952     -1.58010895480038     -0.33162060994404
  O   0.30027084990693     -2.23107330281892     -0.75408084472277
  O   2.39907038592387     -2.03576856261020     -0.19078257219854
