13
Coordinates from ORCA-job run
  C   -0.10402311219932      0.47073080849591     -0.17111206299259
  C   1.01093350978340     -0.20601280131328     -0.54509136618398
  H   1.82895480615756      0.25178301418783     -1.08568794853732
  N   -0.17701195956840      1.82645857633142     -0.39748393172748
  H   -1.10137199257478      2.21164738657583     -0.49898733965649
  H   0.50108665241392      2.22189429857389     -1.03032574809879
  C   -1.27534088079172     -0.10900852519562      0.56770301906729
  H   -0.96766056923534     -0.45792588187806      1.55331863353145
  H   -1.67816266753944     -0.97527709699531      0.04545225919772
  H   -2.05654748052300      0.64387477799472      0.68958049814253
  N   1.26035292848190     -1.58843098743619     -0.26352999873868
  O   2.31756237598073     -2.04457471533719     -0.70785165264170
  O   0.43922838961448     -2.24515885400395      0.38401563863804
