13
Coordinates from ORCA-job run
  C   -0.07557137463629      0.47598475019900     -0.05202022076884
  C   1.09329853531910     -0.21127415297791     -0.00140869667696
  H   2.04327135767312      0.25201050922320      0.23082678368927
  N   -0.06121472864182      1.84316646008590      0.10444419209533
  H   0.78393135009240      2.25373957099148      0.47015004045279
  H   -0.90471038594188      2.26008607858155      0.46176660408239
  C   -1.42427345509594     -0.10937431648790     -0.35575341767601
  H   -2.19736403451683      0.65710082742989     -0.27325812409745
  H   -1.44184016584354     -0.51831255966724     -1.36587453053924
  H   -1.65324458553561     -0.93573258703254      0.31518151672162
  N   1.22888160096760     -1.61307866821219     -0.26416941947441
  O   2.36711515888392     -2.07442230372704     -0.14262161869480
  O   0.24072072727575     -2.27989360840619     -0.58626310911368
