13
Coordinates from ORCA-job run
  C   -0.26733690412767      0.20089784822162     -0.12118721154300
  C   0.51347473494092     -0.88901654318059      0.11966471157053
  H   0.10982144190084     -1.84199582317794      0.42389510074869
  N   0.17816748660793      1.43988581682407     -0.44384006760650
  H   -0.48026282059624      2.08888235263120     -0.83854099624688
  H   1.14898949292245      1.52324488079664     -0.70450105179868
  C   -1.75288570255435      0.07730496802549      0.06144570381422
  H   -2.03730257600541     -0.92958383907812      0.36294152562195
  H   -2.27003899934319      0.31421123503470     -0.87322036651878
  H   -2.09560723714148      0.78134774621217      0.82390211362840
  N   1.93039728229819     -0.91125615563790     -0.04436909422954
  O   2.50245129894475     -1.98115819557302      0.17221246805592
  O   2.51913250215329      0.12523570890168     -0.39540283549634
