13
Coordinates from ORCA-job run
  C   -0.08414622824146      0.46279479223082      0.00853035981396
  C   1.08872875895373     -0.21925765779248      0.02430940185476
  H   2.03343086855558      0.23285714243348      0.29660195644237
  N   -0.10997383354075      1.76890057052820      0.44107718145222
  H   -0.83525421504391      2.35190608584487      0.05755815373772
  H   0.77808186540670      2.23543961413732      0.54255202146303
  C   -1.42286614964369     -0.10409736389588     -0.36577365203946
  H   -2.18414281881272      0.67830995266464     -0.34793287849228
  H   -1.39224090499260     -0.56420412746017     -1.35205995547567
  H   -1.71064581771237     -0.88966048384360      0.33277107509515
  N   1.22815822066623     -1.61131958291518     -0.28351412924705
  O   0.23305154238396     -2.28349020310659     -0.57135322704516
  O   2.37781871202131     -2.05817873882543     -0.24076630755958
