13
Coordinates from ORCA-job run
  C   -0.25815652912080      0.21234189875760     -0.11226269476294
  C   0.46819672614236     -0.92798416395080     -0.27700223802411
  H   0.01499037620867     -1.88394773924279     -0.48764387916096
  N   0.24837228728833      1.45477212648415      0.08300494408825
  H   1.22998952015787      1.51797371343422      0.30614044458295
  H   -0.36894828714049      2.16211635653783      0.44244928030474
  C   -1.75318893447470      0.13828788381804     -0.23426545614162
  H   -2.09504148378106      0.78851922249940     -1.04344117243975
  H   -2.08907600353567     -0.87736426928459     -0.43740007564379
  H   -2.22541224677314      0.47664668821586      0.69292690306194
  N   1.88858939265701     -0.99691484241775     -0.16198680004964
  O   2.53090182463569      0.03923701925388      0.07792145934103
  O   2.40878335773593     -2.10468389410504     -0.30644071515609
