13
Coordinates from ORCA-job run
  C   -0.07144566065234      0.45218919305640      0.04949547411165
  C   1.09481557248891     -0.22976353893635     -0.07674613848545
  H   2.06065042912647      0.20278058524378      0.14924455979728
  N   -0.05560125467722      1.72293762339271      0.57707318208352
  H   0.83982446666766      2.18148913669222      0.64371209405969
  H   -0.80620414686664      2.33199215933283      0.29672937870554
  C   -1.43890818390975     -0.08527506218862     -0.25888846198977
  H   -1.67694980981154     -0.91931007656954      0.40110907652430
  H   -1.48781660588415     -0.47240288580324     -1.27533036771193
  H   -2.19138168783828      0.69445508678650     -0.12530071198132
  N   1.20157275096552     -1.59406236788032     -0.49979080788583
  O   0.18278828062092     -2.24347045158459     -0.75526905937491
  O   2.34865584977045     -2.04155940154175     -0.58503821785277
