13
Coordinates from ORCA-job run
  C   -0.29593218639442      0.15378461185077     -0.15532628920656
  C   0.58279833956531     -0.84033604890597      0.11916517071614
  H   0.29317873525342     -1.76299385986816      0.59868914462010
  N   -0.00627379924411      1.30932309847074     -0.83273010309742
  H   0.97997885424377      1.50642223186376     -0.92114552457803
  H   -0.56128554760769      2.11214727028425     -0.58315142627531
  C   -1.72621649133470      0.01581619039332      0.28218366591530
  H   -1.87501985456473      0.53428633349005      1.23427766782817
  H   -2.38821251386344      0.45965814422605     -0.46354301432054
  H   -2.00816039103346     -1.02748503254595      0.42091422869067
  N   1.96402966400139     -0.81922203341558     -0.27899274110300
  O   2.51012645355094      0.26696906177649     -0.51649398087921
  O   2.52998873742772     -1.90936996761978     -0.36284679831031
