13
Coordinates from ORCA-job run
  C   -0.05391413558272      0.47342112426073     -0.01859855839428
  C   1.07184964580645     -0.28123683658539      0.04670193121157
  H   2.04386510297351      0.12417601824354      0.29526610128782
  N   0.00332683422661      1.80192875281753      0.33509998254137
  H   0.91891163392384      2.21605748234266      0.41699235024889
  H   -0.68235639836615      2.40662461404735     -0.08566468901556
  C   -1.42560891204208     -0.02683343891719     -0.36874858645685
  H   -1.76755360358566     -0.74854590874044      0.37284029131471
  H   -2.13369939032214      0.80342924929157     -0.40442252628541
  H   -1.42055958375350     -0.54598283518049     -1.32578559880167
  N   1.12138733435055     -1.69481125461874     -0.18084721568547
  O   0.08530004190194     -2.31708234890965     -0.43390799912746
  O   2.24005143046936     -2.21114461805147     -0.10792548283767
