13
Coordinates from ORCA-job run
  C   -0.29388000600755      0.15887598835547     -0.13343916995096
  C   0.67163966505875     -0.70775090602939      0.28204327107504
  H   0.46592849354685     -1.54375919578362      0.93199131965400
  N   -0.09398533724473      1.26238747529082     -0.89501601371458
  H   -0.89289093691889      1.67687303157977     -1.34268204259419
  H   0.80652685619797      1.35318518422811     -1.34020155295723
  C   -1.70262829760877     -0.04905587838465      0.34317568428088
  H   -1.78380777869420     -0.92598164628232      0.98350265272112
  H   -2.04105597055800      0.82625172476831      0.90336348561739
  H   -2.37472260368705     -0.18379790940338     -0.50962281270371
  N   2.03889084902922     -0.63709790454821     -0.11949933768488
  O   2.79401824096586     -1.51186042544637      0.30852660913773
  O   2.40596682592055      0.28173046165547     -0.87114209288061
