13
Coordinates from ORCA-job run
  C   -0.27006384467476      0.19730915522867     -0.11670100135496
  C   0.53900565935553     -0.86907062753489      0.13590903065176
  H   0.16947475699468     -1.80210206874518      0.53162288269002
  N   0.13713585267390      1.41665082711000     -0.54682960595633
  H   -0.55467589979034      2.03514321378464     -0.93320224528160
  H   1.08702328552196      1.49182558950149     -0.87747180099937
  C   -1.73800038336051      0.07356600008858      0.17476078955082
  H   -1.98865772472264     -0.91433426946979      0.55798154579844
  H   -2.03695869628788      0.82188929125152      0.91307867689458
  H   -2.32041150655599      0.24616721010647     -0.73525705414044
  N   1.94240109936246     -0.88869990618171     -0.11896053803736
  O   2.49264920552674      0.12775863595445     -0.57511113360206
  O   2.54207819595685     -1.93610305109425      0.13018045378651
