13
Coordinates from ORCA-job run
  C   -0.26727836669928      0.19924322710648     -0.08537459264820
  C   0.50938833175512     -0.86798130454694     -0.42095921762714
  H   0.09894436571326     -1.79878186959848     -0.78004661469039
  N   0.18414905089889      1.41499591254141      0.31038226141918
  H   -0.46414168483165      2.02770569013989      0.77419710563779
  H   1.16118687680000      1.48177601192814      0.55242677098035
  C   -1.75698188428182      0.08490993421391     -0.23750493125358
  H   -2.11859109565339      0.83252286211278     -0.94788379748734
  H   -2.05001533641665     -0.90307152876292     -0.58900204221123
  H   -2.24879618069978      0.26690346856606      0.72282241838037
  N   1.92966581828362     -0.89806919633127     -0.29155918350388
  O   2.52453994126942      0.11232745177329      0.12020877170415
  O   2.49693016386226     -1.95148065914234     -0.58670694870007
