13
Coordinates from ORCA-job run
  C   -0.11461983161034      0.45927686206851     -0.22153088363972
  C   1.06885472961963     -0.18315848752328     -0.38806415908768
  H   1.95519563118918      0.29985002340817     -0.77809770734050
  N   -0.23986506503516      1.76234117399587     -0.64561596176736
  H   -0.92976066033395      2.32161555925770     -0.17214447787096
  H   0.61114371744722      2.25846028332816     -0.86046644771816
  C   -1.37411974898063     -0.15062071991381      0.32203195738024
  H   -1.72459883862726     -0.94710178075348     -0.33422564122475
  H   -2.15645100415018      0.60635329035831      0.40531961028632
  H   -1.20027623975737     -0.60733854704557      1.29498071396309
  N   1.29383676161108     -1.56876089759990     -0.10138163986294
  O   0.36670401640554     -2.27340335600012      0.30939584724278
  O   2.44395653222221     -1.97551340358057     -0.28820121036036
