13
Coordinates from ORCA-job run
  C   -0.10604829844550      0.47072199594041     -0.16735953368108
  C   1.11037899953385     -0.13038893195417     -0.16025319751241
  H   2.03697782752940      0.40502002435983     -0.32072953766749
  N   -0.18142162685237      1.83870266878128     -0.29442948027827
  H   -1.02984338896903      2.20395092930138     -0.69404036612567
  H   0.65249555535163      2.31797080981408     -0.59676298297505
  C   -1.42470634822034     -0.21689853951728      0.03846303469862
  H   -2.24458228690436      0.49534067306802     -0.07343496058913
  H   -1.47346036434187     -0.65461412328243      1.03538812468955
  H   -1.55273789797835     -1.03781925223694     -0.66518935381787
  N   1.33118931976196     -1.52445736009649      0.08418515269968
  O   0.37605215982387     -2.26889276435586      0.32574077617943
  O   2.50570634971110     -1.89963612982183      0.02942232437968
