13
Coordinates from ORCA-job run
  C   -0.25080826844705      0.22135182689755     -0.10176053378075
  C   0.41380073564302     -0.96709774613040     -0.14010103369796
  H   -0.07900695998078     -1.90616650711599     -0.33750341176454
  N   0.29430042333140      1.42506170376688      0.20072820472705
  H   -0.22375496772566      2.25126700338211     -0.04302090854147
  H   1.30124677323736      1.47870539228927      0.22263619012122
  C   -1.73580683887838      0.22374100610357     -0.32535307477018
  H   -2.24588078590947      0.62232519191072      0.55524478806662
  H   -2.11292866801654     -0.77832552370989     -0.52342292745390
  H   -1.98917007996797      0.86024630972338     -1.17848119598105
  N   1.82414719715851     -1.10221490291798      0.02711922991894
  O   2.50931337397291     -0.09153664115912      0.25759916022683
  O   2.29354806558265     -2.23735711304011     -0.07168448707081
