13
Coordinates from ORCA-job run
  C   -0.28001086965105      0.18472548351005     -0.17895118771569
  C   0.55075976606069     -0.80726864460490      0.24093996292765
  H   0.19540713745600     -1.75429689363105      0.61845673036086
  N   0.11304578960507      1.40962096043057     -0.62261751326683
  H   -0.55673602416561      1.92936124894457     -1.16518308657563
  H   1.07810870313969      1.48899827960646     -0.90885293582458
  C   -1.76297558619231     -0.02086495988203     -0.01152652889882
  H   -2.05602006070554     -1.01647128687163     -0.34571206175816
  H   -2.33776204694357      0.71754669059477     -0.57383401959443
  H   -2.04095442623257      0.08219297429663      1.03961097384458
  N   1.97863963280534     -0.74003159875459      0.18431499686075
  O   2.59911377018585     -1.69858813595256      0.64605193478076
  O   2.51938421463801      0.22407588231370     -0.38069726514045
