13
Coordinates from ORCA-job run
  C   -0.07323033706877      0.46547029229101      0.00425655562104
  C   1.08377454277655     -0.24279321646276      0.02517366691115
  H   2.02646320977325      0.17174867313196      0.35762748347353
  N   -0.05159298267278      1.80197499338744      0.33341875883676
  H   0.77796406318206      2.14609725144165      0.79187684533529
  H   -0.90732153742884      2.18296113398583      0.70192086485176
  C   -1.41131694783614     -0.05285031863269     -0.43712467001692
  H   -2.17701271885486      0.71353552292101     -0.30138121375217
  H   -1.38104099395904     -0.33539004844038     -1.48929306318376
  H   -1.68699486921660     -0.94952216213966      0.11559108497771
  N   1.21699397429111     -1.60171717785560     -0.40851798784901
  O   2.34430609606009     -2.09216843773867     -0.29940683697217
  O   0.23700850095398     -2.20734650588915     -0.85314148823322
