13
Coordinates from ORCA-job run
  C   -0.06888687772549      0.47470795179842     -0.03553288159875
  C   1.08778321823795     -0.23355163756511      0.00613755983183
  H   2.05380197872087      0.21904290157287      0.18767047148926
  N   -0.04854397738436      1.81783733511116      0.26318132442777
  H   0.85315612040165      2.26830469346159      0.28815437162943
  H   -0.77328399658956      2.37847326339542     -0.15324457366913
  C   -1.43380385398495     -0.09133146124072     -0.30103910867077
  H   -2.17204836188924      0.71099353687002     -0.35932901757239
  H   -1.44644538596391     -0.67013594514330     -1.22292085162689
  H   -1.72236886594951     -0.77542820527954      0.49704859696888
  N   1.18339860496672     -1.65273336023537     -0.16473716465881
  O   0.16101144216392     -2.32666625100277     -0.32420320400360
  O   2.32522995499592     -2.12051282174266     -0.14118552254683
