13
Coordinates from ORCA-job run
  C   -0.27756236102564      0.18571047421816     -0.09767943992666
  C   0.58681150812655     -0.85049775233678      0.08856108763071
  H   0.27758808092004     -1.80620901683829      0.48186757765659
  N   0.05523429413104      1.42936071711636     -0.52262268327529
  H   -0.68187688156592      2.02429220342450     -0.85914625372144
  H   0.98071843233098      1.54962024608640     -0.90517133389101
  C   -1.72107023194070     -0.00465633612801      0.27039403664546
  H   -2.00923343153643      0.71728544828980      1.03866715292822
  H   -1.90994808469056     -1.00879389397148      0.64676487759339
  H   -2.35890409216033      0.15979930499655     -0.60326652846125
  N   1.97386333276645     -0.80622358868805     -0.24201010136799
  O   2.62883777948472     -1.83190354883470     -0.04756368092323
  O   2.45554165515980      0.24021574266554     -0.70779471088752
