13
Coordinates from ORCA-job run
  C   -0.07928833350145      0.47320842932268     -0.03582793103947
  C   1.07080678331381     -0.23022763660996      0.11723107306239
  H   2.00865348728547      0.22277766310373      0.41084044981653
  N   -0.09863988860391      1.81158144658248      0.28255527335800
  H   -0.78239614563703      2.37495371265634     -0.19490134856709
  H   0.79223179366522      2.26702616201101      0.40664209456237
  C   -1.40520690868435     -0.09522166853555     -0.45172459498778
  H   -1.76242044028510     -0.80796965982628      0.29142960571915
  H   -2.14312502683054      0.70253239555276     -0.55706792040572
  H   -1.32046281078447     -0.64290371663642     -1.38884817798596
  N   1.19327148469417     -1.64585269346032     -0.06593409730704
  O   0.20033453096499     -2.31995030428108     -0.35681009574613
  O   2.32724147440321     -2.10995412987938      0.08241566952074
