13
Coordinates from ORCA-job run
  C   -0.05463964078255      0.47370094251457     -0.01960433047495
  C   1.06279287812708     -0.28865474415888      0.08598699629428
  H   2.02750096472381      0.10954280129568      0.37194374713638
  N   -0.00170229737650      1.80110024083954      0.33976661319770
  H   -0.66536863349259      2.41115171281642     -0.10790478966493
  H   0.91345095752541      2.20821267788176      0.45544961517043
  C   -1.41552273094284     -0.01623829549545     -0.42212411222837
  H   -2.11675367251674      0.81857810825135     -0.47956478882413
  H   -1.78879289080065     -0.73863189091166      0.30363842734638
  H   -1.37886286049435     -0.53249087638853     -1.38000870634695
  N   1.11172552223328     -1.70216040521867     -0.14236517815666
  O   2.22301913454542     -2.22643391998062     -0.02657736806207
  O   0.08215326925122     -2.31667635144551     -0.43763612538711
