13
Coordinates from ORCA-job run
  C   -0.27128978662365      0.19606019352817     -0.11395256933077
  C   0.54657187761043     -0.86459603636548      0.13400844328346
  H   0.18675460407722     -1.79875450838298      0.53594835029477
  N   0.12406768257259      1.41655998724599     -0.55189627818581
  H   -0.57554569506630      2.02852306122778     -0.93464159178649
  H   1.06973567147241      1.49551813877720     -0.89364269800380
  C   -1.73534616952496      0.06429294299085      0.19311549243257
  H   -2.32815950404840      0.23231738038008     -0.71103877471227
  H   -1.97638646223634     -0.92442571182082      0.58031199355288
  H   -2.03086544490938      0.81209139618740      0.93335214403993
  N   1.94735788742778     -0.87700261692126     -0.13580558823483
  O   2.48646317590971      0.14071247700847     -0.60240179567845
  O   2.55564216333890     -1.92029670385541      0.10964287232881
