13

C	-0.402816	0.090706	-1.470405
C	0.0	0.0	0.0
Cl	-0.030118	-1.414078	-2.363171
H	1.094025	0.0	0.0
H	0.219507	0.878417	-1.89617
C	-1.816299	0.421165	-1.656171
N	-2.951805	0.697997	-1.776883
C	-0.579632	-1.155329	0.667641
N	-1.062824	-2.052296	1.256913
N	-0.35599	1.277593	0.618285
H	-1.20775	1.223545	1.162306
H	0.416158	1.538879	1.219687
F	2.534421	0.0	0.0
