13

C	-0.362272	-0.082054	-1.462877
C	0.0	0.0	0.0
Cl	-2.153591	-0.121036	-1.768629
H	1.102724	0.0	0.0
H	0.031601	-1.00691	-1.8883
C	0.19103	1.053418	-2.197897
N	0.592351	1.950113	-2.839663
C	-0.474861	-1.175449	0.714884
N	-0.83449	-2.117077	1.32131
N	-0.413434	1.266914	0.581548
H	-1.266451	1.189443	1.118638
H	0.337047	1.584737	1.182614
F	2.510895	0.0	0.0
