13

C	-0.35093	-0.014261	-1.469021
C	0.0	0.0	0.0
Cl	-2.141787	-0.036971	-1.790655
H	1.102722	0.0	0.0
H	0.04467	-0.921417	-1.930035
C	0.210282	1.150988	-2.14947
N	0.620593	2.071068	-2.751432
C	-0.478265	-1.211838	0.651053
N	-0.853693	-2.188851	1.189095
N	-0.420412	1.236119	0.638242
H	0.314993	1.517382	1.274028
H	-1.28852	1.135513	1.147094
F	2.512086	0.0	0.0
