13

C	-0.449012	0.017461	-1.471463
C	0.0	0.0	0.0
Cl	0.25671	1.428521	-2.324239
H	1.095362	0.0	0.0
H	-1.535722	0.142116	-1.552762
C	-0.080552	-1.202048	-2.18694
N	0.188777	-2.171499	-2.792863
C	-0.572545	-1.189064	0.619582
N	-1.051171	-2.145332	1.110367
N	-0.380484	1.193085	0.740659
H	0.39679	1.836189	0.665119
H	-1.217246	1.635053	0.377005
F	2.52612	0.0	0.0
