13

C	-0.553364	-0.000676	-1.426714
C	0.0	0.0	0.0
Cl	0.197228	1.320904	-2.375353
H	1.100642	0.0	0.0
H	-1.623322	0.22241	-1.409086
C	-0.336788	-1.267472	-2.123035
N	-0.19615	-2.290096	-2.683689
C	-0.529975	-1.146698	0.715242
N	-0.977523	-2.051467	1.321044
N	-0.401821	1.268931	0.64745
H	0.474111	1.757823	0.79762
H	-0.786723	1.08007	1.565245
F	2.537187	0.0	0.0
