13

C	-0.374966	0.028643	-1.463688
C	0.0	0.0	0.0
Cl	-2.168444	-0.023474	-1.749948
H	1.091308	0.0	0.0
H	0.031498	-0.853422	-1.962727
C	0.146471	1.228659	-2.113658
N	0.530034	2.173031	-2.694456
C	-0.46422	-1.233778	0.620522
N	-0.839103	-2.206083	1.166285
N	-0.424192	1.210603	0.684535
H	0.314689	1.46849	1.324961
H	-1.287953	1.084908	1.196994
F	2.515438	0.0	0.0
