13

C	-0.298633	-0.119453	-1.503016
C	0.0	0.0	0.0
Cl	0.133569	-1.727436	-2.155307
H	1.091275	0.0	0.0
H	0.358569	0.59942	-1.998327
C	-1.694729	0.169534	-1.834782
N	-2.817166	0.448366	-2.045684
C	-0.619481	-1.078759	0.754611
N	-1.121646	-1.945775	1.369703
N	-0.37543	1.297827	0.535273
H	0.389075	1.937447	0.359629
H	-1.244362	1.661145	0.160567
F	2.533073	0.0	0.0
