16

C	0.0	0.0	0.0
C	-0.520514	-0.116839	-1.431019
Cl	1.780254	0.0	0.0
H	-1.611996	-0.096074	-1.330235
H	-0.24787	-1.137436	-1.727087
N	-0.366718	1.373532	0.607028
O	-0.087717	2.354462	-0.075896
O	-0.8686	1.396922	1.719342
N	-0.494411	-0.987986	0.895992
H	-0.341708	-1.894421	0.467863
H	-1.508627	-0.84342	0.961282
C	-0.053697	0.858329	-2.504729
H	1.032473	0.965978	-2.517516
H	-0.371412	0.477749	-3.479973
H	-0.494082	1.842395	-2.364724
Br	-3.8181	0.0	0.0
