16

C	0.0	0.0	0.0
C	-0.543754	0.00509	-1.420914
Cl	1.782494	0.0	0.0
H	-0.458088	-1.038971	-1.736408
H	-1.615087	0.214343	-1.322099
N	-0.31154	1.353735	0.73193
O	-0.360199	1.298701	1.956759
O	-0.443268	2.370056	0.062733
N	-0.515824	-1.085673	0.723421
H	-0.306376	-0.968466	1.708161
H	-1.535436	-1.061164	0.602565
C	0.104062	0.906839	-2.46369
H	-0.008658	1.960122	-2.209912
H	1.167802	0.687425	-2.591776
H	-0.392112	0.731101	-3.423421
Br	-3.815673	0.0	0.0
