17

C	0.0	0.0	0.0
C	-0.45376	-0.233376	-1.443767
F	1.417681	0.0	0.0
H	-1.544952	-0.267857	-1.361233
N	-0.48112	1.205536	0.574592
H	-1.426999	1.028715	0.914086
H	-0.566426	1.866441	-0.193451
C	-0.35884	-1.149654	0.860906
N	-0.538299	-2.068938	1.567422
C	0.083564	-1.527941	-2.038143
H	-0.284281	-1.64505	-3.061727
H	1.177302	-1.514591	-2.057933
H	-0.242259	-2.396759	-1.461326
N	-0.096683	0.967463	-2.200955
H	0.851257	0.884246	-2.548688
H	-0.720984	1.061775	-2.991064
Br	-3.747299	0.0	0.0
