17

C	0.0	0.0	0.0
C	-0.597147	-0.113136	-1.400609
F	1.421761	0.0	0.0
H	-1.669098	-0.259481	-1.20529
N	-0.482875	1.150775	0.634419
H	0.000401	1.346346	1.497901
H	-0.468572	1.922062	-0.019081
C	-0.309266	-1.210378	0.801758
N	-0.439634	-2.194839	1.426892
C	-0.017963	-1.289647	-2.172307
H	-0.510222	-1.36554	-3.145946
H	-0.17314	-2.230824	-1.640284
H	1.056551	-1.154657	-2.329873
N	-0.432431	1.173823	-2.07813
H	-1.290616	1.405934	-2.561734
H	0.321412	1.126628	-2.75217
Br	-4.070552	0.0	0.0
