17

C	0.0	0.0	0.0
C	-0.427093	-0.183736	-1.478093
F	1.418028	0.0	0.0
H	0.278421	-0.932493	-1.857992
N	-0.561015	1.129863	0.600502
H	-0.387212	1.212523	1.590933
H	-0.372434	1.986239	0.103396
C	-0.345082	-1.208766	0.780949
N	-0.5408	-2.196441	1.384002
C	-0.21811	1.115461	-2.249191
H	0.760768	1.559597	-2.046055
H	-0.297127	0.902004	-3.315718
H	-1.009291	1.828896	-2.004348
N	-1.764122	-0.6713	-1.69502
H	-1.867769	-1.61667	-1.347269
H	-2.484572	-0.12521	-1.216025
Br	-4.700534	0.0	0.0
