17

C	0.0	0.0	0.0
C	-0.451659	0.747434	-1.282037
F	1.386078	0.0	0.0
H	0.263293	0.414898	-2.044829
N	-0.563059	0.542051	1.169213
H	-0.406444	-0.019599	1.993084
H	-0.298888	1.503818	1.318186
C	-0.371017	-1.430907	-0.103176
N	-0.562983	-2.583509	-0.215204
C	-0.299368	2.252986	-1.092723
H	-1.093655	2.626205	-0.44104
H	0.677726	2.52114	-0.680002
H	-0.420345	2.737219	-2.06232
N	-1.781736	0.458411	-1.751433
H	-2.50949	0.611655	-1.049238
H	-1.877028	-0.509454	-2.033739
Br	-4.753639	0.0	0.0
