17

C	0.0	0.0	0.0
C	-0.501776	-0.014441	-1.44733
F	1.414516	0.0	0.0
H	0.224849	-0.635151	-1.986097
N	-0.541912	1.057728	0.751219
H	-0.290812	1.960836	0.376969
H	-0.32044	0.993224	1.734124
C	-0.317871	-1.28342	0.6759
N	-0.409414	-2.268826	1.306873
C	-0.492811	1.390397	-2.056875
H	-1.281326	1.999252	-1.609183
H	0.480029	1.883417	-1.938865
H	-0.703094	1.318276	-3.127105
N	-1.767942	-0.710776	-1.450302
H	-2.5032	-0.258801	-0.89864
H	-2.125875	-0.827614	-2.389028
Br	-4.84864	0.0	0.0
