15
Coordinates from ORCA-job run
  C   -0.49236785136094     -0.68924415307879      0.15322866542274
  C   0.87930756848092      0.01672030988314      0.07199709529815
  F   -0.25850488191237     -2.00704567284079      0.39308371439599
  H   1.45433815122307     -0.29176448384579      0.95206651641755
  N   -1.14183014330213     -0.10695315762651      1.41579975801636
  O   -0.51908077654733     -0.31672713602272      2.45317410471039
  O   -2.17551950885233      0.53512678635614      1.29937519983518
  N   -1.38770956628467     -0.55485148557283     -0.91516234653040
  H   -1.65657733069495      0.41102929641146     -1.04110797070855
  H   -0.99184931294307     -0.93908919058787     -1.76391326063371
  N   0.63484351886568      1.45486252981645      0.00655258202089
  H   1.22704649843288      1.90617412301762     -0.67656160826134
  H   0.80953336400772      1.87916583720060      0.90831097922014
  C   1.55711457781809     -0.46571920424179     -1.13023778930342
  N   2.06225569306944     -0.83268439886832     -2.12460563989997
