15
Coordinates from ORCA-job run
  C   -0.53081775266765     -0.32400631503449      0.42793897589883
  C   0.61331954014566      0.29353423202683     -0.39910579797051
  F   -0.07356469226169     -0.45738051527487      1.69896288749255
  H   0.22737886337404      0.43725398834126     -1.41159218305441
  N   -1.68000439233596      0.67398377225514      0.44416497238415
  O   -1.94499608054958      1.23371410788335      1.49517006904453
  O   -2.22225419648020      0.84058652974944     -0.64677310877010
  N   -1.03610281073407     -1.55394943640988     -0.03770760909659
  H   -1.67018102550465     -1.40510784738606     -0.81185841953976
  H   -0.25718984305619     -2.13309951239007     -0.33116471426282
  N   1.68360806383522     -0.68964320066707     -0.43420170885386
  H   2.17353963671617     -0.69904355675415      0.45280155298668
  H   2.34974323669236     -0.46312041905323     -1.16147791569473
  C   1.00410345680432      1.60700151475301      0.14296613358457
  N   1.36441799602221      2.63927665796079      0.57287686585147
