15
Coordinates from ORCA-job run
  C   -0.48208482797373     -0.56098810916053      0.07286598382764
  C   0.91008123407429      0.07567120646164     -0.00164586041850
  F   -0.31148348713540     -1.92944901451159     -0.04027646565886
  H   1.47172458484936     -0.31783345849960      0.85619531442228
  N   -1.06557087416642     -0.41485453693136      1.48472267484824
  O   -0.44588202815219      0.26245681055320      2.30182814201637
  O   -2.13510642291710     -0.97814519689991      1.66678619092375
  N   -1.40256293752358     -0.01265656214405     -0.80446060812096
  H   -0.99851162584193      0.35448548323158     -1.65239299102279
  H   -2.20852024572990     -0.60196651448064     -0.95529248527911
  N   0.81858758298017      1.52531582498849     -0.07120766831469
  H   0.48021486268116      1.86992987696062      0.81942081916969
  H   1.73865752290515      1.91664543449953     -0.23370583922512
  C   1.55267931471303     -0.41747514129320     -1.22750271020704
  N   2.07877734723707     -0.77013610277417     -2.21533449696090
