15
Coordinates from ORCA-job run
  C   -0.49758529463568     -0.61864687687674     -0.01646639635537
  C   0.91588422963437     -0.04351351229313     -0.01898900436080
  F   -0.46243677334034     -1.97074164315598     -0.16955258081644
  H   1.43579161386726     -0.48788324744579      0.83197695858099
  N   -1.04633944413895     -0.44122768530520      1.43945121341024
  O   -2.22444431966942     -0.12165313746704      1.54605654579311
  O   -0.27221418457526     -0.68115192922159      2.36002554158737
  N   -1.31409081770168     -0.03967587871171     -0.98390285444862
  H   -2.25175080836640     -0.41911782204358     -0.94247373716115
  H   -1.34939824640233      0.96184087252105     -0.84145201983860
  N   0.81076367846685      1.40296257383131      0.14722205514922
  H   1.45617854153059      1.73159786373471      0.85164075023242
  H   1.01230065187432      1.88644273923631     -0.71844839603326
  C   1.60488162809202     -0.44695062883875     -1.24958030062346
  N   2.18345954536466     -0.71028168796386     -2.23650777511566
