15
Coordinates from ORCA-job run
  C   -0.47821594156414     -0.55038135147624      0.16026475745318
  C   0.83953196189670      0.06312231443470     -0.31345966375952
  F   -0.11520610068748     -1.56038620328401      1.03370658052250
  H   1.37706339215645     -0.77117065286488     -0.79565497792059
  N   -1.25007141340888      0.46425232714807      1.00100056793138
  O   -1.69129477885202      0.07946817095795      2.07530044367995
  O   -1.38706630571302      1.56592452736492      0.49235742116945
  N   -1.31563135427079     -0.96538116816308     -0.87688108867080
  H   -0.83431342758573     -1.54063216114868     -1.55475797017368
  H   -2.14029073697296     -1.44107576025178     -0.53250306371471
  N   1.52348516025522      0.60434972476985      0.85105938554031
  H   2.28345463366485      1.20968339121515      0.57058925492097
  H   1.89511948501884     -0.15300236375643      1.41014595567597
  C   0.65788241673117      1.09402422962605     -1.33624805426813
  N   0.63555300933178      1.90320497542841     -2.18591954838629
