15
Coordinates from ORCA-job run
  C   -0.49602436387142     -0.55078289763302      0.04514163602766
  C   0.90939320194553      0.04745257344034     -0.08171326818000
  F   -0.39439278521685     -1.89680653705932     -0.26269773033949
  H   1.53102274941506     -0.47848778642483      0.65538634435033
  N   -0.93877179390588     -0.57913909390151      1.51371330064568
  O   -2.01252910675528     -1.12473457907011      1.72317151297658
  O   -0.21434593861520     -0.04311316513082      2.34934008203408
  N   -1.47020640591811      0.13746646530270     -0.65774859028207
  H   -2.31591954649515     -0.39747601351307     -0.79313452764515
  H   -1.13498360033621      0.59270872143083     -1.49279966168134
  N   0.87580262686367      1.49464161707346      0.05341877176560
  H   1.79229570308679      1.87682116800749     -0.14631207029024
  H   0.63810114899204      1.72385967385703      1.01115296567300
  C   1.41092019394694     -0.29103756996662     -1.42068640035577
  N   1.82063791686408     -0.51037257641258     -2.49823236469890
