15
Coordinates from ORCA-job run
  C   -0.51148600695985     -0.28269794886658      0.47914698440103
  C   0.59542600731612      0.25974020066284     -0.44533285106244
  F   -0.03266963124916     -0.22345826476291      1.74792951496956
  H   0.18904695789626      0.25071315893985     -1.46003833157970
  N   -1.69968210424366      0.66430937748856      0.38191838185347
  O   -1.96608658124189      1.35853914277826      1.34896522987785
  O   -2.26917405151571      0.65453193616053     -0.70779877268606
  N   -0.97183857795758     -1.58249156701080      0.19210108938579
  H   -0.17570209833704     -2.16367198090915     -0.04566032134836
  H   -1.63329902442920     -1.56385008130671     -0.57289512338133
  N   1.70258336605086     -0.68032119883489     -0.37076260674881
  H   2.20799111304317     -0.54991276739167      0.49793111062796
  H   2.34676428114032     -0.52899610931567     -1.13641490345512
  C   0.94457560504098      1.64712428092081     -0.09309196344060
  N   1.27355074544636      2.74044182144754      0.18400256258678
