15
Coordinates from ORCA-job run
  C   -0.48863460500387     -0.60891578179303      0.25004879076270
  C   0.84641355997745     -0.03320809441285     -0.26111022104944
  F   -0.14702783190902     -1.57745592216190      1.14265613055162
  H   1.38792092060055     -0.91217215350038     -0.65171877606115
  N   -1.20964893402796      0.49281322631155      1.01502409032063
  O   -1.20569158352553      0.43998541521370      2.23255941461726
  O   -1.72199887023503      1.35108385900155      0.30388851375489
  N   -1.40444990715149     -1.13268599579445     -0.68613211015910
  H   -1.81949805961213     -0.39365411322173     -1.23844207854370
  H   -0.97108858030413     -1.82578791621969     -1.28219416499042
  N   1.51361229999019      0.66407646000643      0.82405524650494
  H   1.72651603744654      0.00979220024479      1.56756274760026
  H   2.37678924035552      1.08340125653863      0.50266048817395
  C   0.62492805417090      0.87408734945314     -1.39003750257103
  N   0.49185825922801      1.56864021033425     -2.32682056891144
