15
Coordinates from ORCA-job run
  C   -0.52874033619399     -0.54855805613950      0.12756442493203
  C   0.88593713125291     -0.07899520021474     -0.22564714367026
  F   -0.41429398928995     -1.63765068071544      0.95886955177139
  H   1.33188573137749     -0.95031476341912     -0.72138935130624
  N   -1.27928620717512      0.48701817754142      0.95661016555443
  O   -0.75078287702766      1.57833256875818      1.14199272377792
  O   -2.38153366636541      0.13204259748855      1.35430254107516
  N   -1.32026302465914     -0.77498305964375     -1.00472617437875
  H   -0.87998598334535     -1.41081893196448     -1.65633546288007
  H   -2.23847539436814     -1.11204825449652     -0.74150121417464
  N   1.66887739237121      0.18860141861657      0.96201229644046
  H   1.48811572161213      1.12562044639262      1.29597999349403
  H   2.65436566700945      0.09484119161904      0.75760406813972
  C   0.84648928709736      1.01503876433788     -1.21417443806801
  N   0.91769054770424      1.89287378183927     -1.99116198070717
