15
Coordinates from ORCA-job run
  C   -0.55094199027002     -0.26583452861627      0.28516665089889
  C   0.63744506155199      0.36289338860078     -0.44099054222809
  F   -0.22370064529144     -0.34938996509794      1.63116492523168
  H   0.33257110710508      0.53834203601370     -1.47367072384370
  N   -1.77268165057166      0.63758369547105      0.24317437697739
  O   -1.74956986511712      1.59043107206589     -0.52886075052742
  O   -2.70135392501092      0.29438686850741      0.96359682939661
  N   -0.91894678337076     -1.47592441038638     -0.29556162055533
  H   -0.09681687828553     -2.04512377526085     -0.45465614699887
  H   -1.62294541290308     -1.95430448176248      0.25199615936417
  N   1.71401227977630     -0.62082090111361     -0.42116933910517
  H   2.14437404237917     -0.63811132438172      0.49647679592541
  H   2.42514507156490     -0.36963584695576     -1.09613752239903
  C   0.99998319116284      1.65135340264995      0.17334201192634
  N   1.38342639728022      2.64515477026622      0.66712889593715
