15
Coordinates from ORCA-job run
  C   -0.48943474047109     -0.65576444261530      0.10616021127192
  C   0.93096606947715     -0.15528758736843     -0.18228058193935
  F   -0.41450984578228     -1.78210161504307      0.84691245925695
  H   1.44779519785333     -1.06178437945211     -0.51293006682620
  N   -1.20338392674755      0.37381506879643      1.00960441196503
  O   -0.97692725726929      1.55195777951072      0.73782378776623
  O   -2.00052061015086     -0.04709484303738      1.83402963665235
  N   -1.22494356283929     -0.92508764257838     -1.06112604350285
  H   -2.12198889433938     -1.34014810371957     -0.84017921795238
  H   -1.33579630478857     -0.11208600938488     -1.65303082913543
  N   1.55254440124744      0.31399673934656      1.03820712973936
  H   2.55530472379749      0.19666585708349      0.99407575443581
  H   1.34188006994989      1.29136590671708      1.19403094165476
  C   0.94811005271376      0.79503865640835     -1.30799810805155
  N   0.99190462734925      1.55651461533643     -2.20129948533462
