15
Coordinates from ORCA-job run
  C   -0.48867122314609     -0.60583652232016      0.25897808672993
  C   0.84475580507956     -0.03810308251033     -0.26615349819249
  F   -0.14403697030490     -1.56546179242522      1.15959401576725
  H   1.38140576912879     -0.92151287603048     -0.65336696234054
  N   -1.20217546819461      0.50639808390347      1.01612431332628
  O   -1.71689477078325      1.35778590120650      0.29866491406194
  O   -1.18979170741540      0.46757893607153      2.23419686954972
  N   -1.41143589072105     -1.13689813947619     -0.66635582517013
  H   -0.98169291447938     -1.83419309632731     -1.26022542928652
  H   -1.82844413882956     -0.40159765622323     -1.22228508312110
  N   1.52101883459494      0.66643403065981      0.80848595632955
  H   1.73655052197031      0.01751401453444      1.55613437011410
  H   2.38345524039546      1.08051578865140      0.47840332193929
  C   0.61775637970969      0.86035856171123     -1.40110795088624
  N   0.47920053299551      1.54801784857454     -2.34208709882105
