15
Coordinates from ORCA-job run
  C   -0.49517264095507     -0.65503967554249      0.14862888894867
  C   0.91469489675922     -0.06965993677427      0.03071547448844
  F   -0.35355299974283     -2.01568658115546      0.31635891708534
  H   1.48825523196969     -0.47617876127726      0.86645016506201
  N   -1.04632419343076     -0.15946016567140      1.49572010596119
  O   -0.37398896442686     -0.46199827991665      2.47047695134802
  O   -2.09538099071437      0.47247955374845      1.49865263712891
  N   -1.38089749156827     -0.33315400581706     -0.86542435794595
  H   -2.19504926018167      0.18558928301274     -0.58112160624353
  H   -0.98832880015655     -0.08851693746181     -1.75820350101565
  N   0.82768412890148      1.37017962960647      0.17556098641671
  H   0.49758032117565      1.80450335843463     -0.67685435323342
  H   1.73186716742406      1.76156525745863      0.40417297401833
  C   1.51311287209881     -0.52953542406758     -1.23531621265657
  N   1.95550072284742     -0.80408731457692     -2.28881706936253
