15
Coordinates from ORCA-job run
  C   -0.30770815949227     -0.73715512771476      0.05637576178221
  C   0.90267517777935      0.18595409434766     -0.07523726582100
  F   0.09966038512328     -2.03804759058363      0.11394399958064
  H   1.58468720238861     -0.05640125093152      0.74650444291155
  N   -0.91583464054147     -0.51886808557056      1.48026320888477
  O   -0.20987115233973     -0.00105556710143      2.34316973907066
  O   -2.06183560657841     -0.92417497994612      1.63176107694437
  N   -1.23315842988024     -0.54709801757831     -0.95756815641503
  H   -1.37891377248002      0.44310613055479     -1.11046810586423
  H   -2.10137952992326     -1.03353754781128     -0.77652050497740
  N   0.42455649945088      1.56776038853884     -0.05949885586419
  H   0.42340518187475      1.90513665078406      0.89537399966152
  H   1.02826197411883      2.16406807932827     -0.61014584153130
  C   1.58206983253563     -0.11068729780875     -1.33789254865569
  N   2.16138503796408     -0.29799987850726     -2.34106094970690
