14

C	-0.356773	-0.091898	-1.482582
C	0.0	0.0	0.0
F	-0.25547	1.245841	-1.951154
H	1.089098	0.0	0.0
H	-0.436669	0.892467	0.436969
N	0.510942	-0.97478	-2.131518
H	1.471419	-0.851002	-1.813973
H	0.431897	-0.927363	-3.137781
C	-1.768512	-0.461727	-1.741667
N	-2.8872	-0.744397	-1.957791
N	-0.51481	-1.166916	0.752919
O	-1.474034	-0.965	1.504481
O	0.028819	-2.253053	0.576287
Cl	3.311751	0.0	0.0
