14

C	-0.397119	0.118694	-1.473994
C	0.0	0.0	0.0
F	-0.281992	1.439461	-1.857705
H	1.087912	0.0	0.0
H	-0.366943	-0.947599	0.393371
N	0.457959	-0.667104	-2.310644
H	0.20443	-1.645178	-2.27472
H	1.419728	-0.562211	-1.98197
C	-1.811566	-0.270501	-1.699478
N	-2.928322	-0.578888	-1.888161
N	-0.583488	1.066082	0.842669
O	-0.05303	2.172089	0.823989
O	-1.590764	0.769047	1.49584
Cl	3.303893	0.0	0.0
