14

C	-0.360526	-0.04746	-1.480139
C	0.0	0.0	0.0
F	-0.237936	1.268803	-1.979547
H	1.089024	0.0	0.0
H	-0.388259	-0.876161	0.518901
N	0.529393	-0.958367	-2.079688
H	0.435135	-0.97627	-3.085633
H	1.491395	-0.767667	-1.796578
C	-1.75692	-0.441227	-1.781073
N	-2.844591	-0.783	-2.06115
N	-0.585693	1.195303	0.649448
O	0.158449	1.964324	1.246108
O	-1.809593	1.315387	0.557411
Cl	3.343525	0.0	0.0
