14

C	-0.595927	0.001884	-1.390769
C	0.0	0.0	0.0
F	-1.999212	-0.199163	-1.23894
H	1.088459	0.0	0.0
H	-0.365572	0.877549	0.534617
N	-0.313997	1.23157	-2.020794
H	-0.596873	2.013585	-1.448871
H	-0.734254	1.280423	-2.936954
C	-0.154862	-1.090089	-2.28067
N	0.115796	-1.8912	-3.093492
N	-0.474967	-1.167409	0.780127
O	-0.848341	-0.958377	1.932094
O	-0.439012	-2.268185	0.237047
Cl	3.274882	0.0	0.0
