14

C	-0.607793	-0.034145	-1.398803
C	0.0	0.0	0.0
F	-0.29572	-1.309608	-1.868207
H	1.088822	0.0	0.0
H	-0.366316	-0.871795	0.542798
N	-2.030017	0.12661	-1.420229
H	-2.320672	1.022935	-1.775384
H	-2.450881	-0.04686	-0.518858
C	-0.013714	0.924414	-2.352054
N	0.368904	1.66896	-3.17498
N	-0.476888	1.192904	0.731532
O	-0.893155	1.031419	1.880141
O	-0.431247	2.273127	0.144159
Cl	3.269616	0.0	0.0
