19

C	0.0	0.0	0.0
C	-0.423899	-0.320254	-1.484141
Cl	1.771649	0.0	0.0
H	0.506627	-0.555359	-2.005617
N	-0.639772	1.089617	0.546854
H	-1.678673	0.818529	0.416319
H	-0.427955	1.149661	1.536446
N	-0.23656	-1.304209	0.917222
O	0.179381	-2.386648	0.519807
O	-0.770353	-1.115176	2.004301
C	-1.030567	0.929954	-2.124508
H	-2.017069	1.075426	-1.684227
H	-0.417731	1.818407	-1.961567
H	-1.130793	0.76096	-3.202401
C	-1.368974	-1.508485	-1.700813
H	-2.245043	-1.359648	-1.066502
H	-1.679997	-1.493722	-2.752147
H	-0.877589	-2.460868	-1.506525
F	-2.917748	0.0	0.0
