19

C	0.0	0.0	0.0
C	-0.297873	-0.141734	-1.555665
Cl	1.771595	0.0	0.0
H	0.536753	0.434865	-1.965877
N	-0.616807	1.12006	0.517646
H	-0.410413	1.196534	1.508657
H	-1.66863	0.831017	0.380153
N	-0.325581	-1.281666	0.892077
O	-0.72647	-1.04325	2.02512
O	-0.087451	-2.404837	0.461554
C	-1.534424	0.534676	-2.145007
H	-1.636543	1.555042	-1.774826
H	-2.441566	0.003634	-1.876397
H	-1.379388	0.575909	-3.231447
C	-0.169603	-1.552204	-2.128045
H	-0.199165	-1.473178	-3.220796
H	-1.005918	-2.173226	-1.805939
H	0.757451	-2.048383	-1.841968
F	-2.829776	0.0	0.0
