19

C	0.0	0.0	0.0
C	-0.337197	-0.111634	-1.564895
Cl	1.774494	0.0	0.0
H	0.59877	0.157967	-2.059142
N	-0.572244	1.070499	0.708157
H	-1.608931	0.841025	0.582626
H	-0.355354	1.919232	0.197836
N	-0.362781	-1.27781	0.804789
O	-1.031744	-1.148929	1.814147
O	0.109383	-2.340039	0.408065
C	-1.378266	0.894699	-2.054662
H	-1.150324	1.923214	-1.75435
H	-2.341832	0.623735	-1.619855
H	-1.39167	0.863079	-3.149045
C	-0.720313	-1.497562	-2.071973
H	-1.642159	-1.813536	-1.582465
H	0.062082	-2.235698	-1.895666
H	-0.893806	-1.429794	-3.151246
F	-2.83537	0.0	0.0
