12
Coordinates from ORCA-job run
  C   0.38270561807034     -0.25332412200672     -0.35672621296778
  C   -0.65795813157465      0.02642164459405      0.45724088683697
  N   1.74844765571818      0.22777974044520     -0.04285968120208
  O   1.86315858054980      1.41801802193955      0.21540926650457
  O   2.62155737478198     -0.62820772986240     -0.09478119900437
  C   0.25990012484403     -1.01823419907207     -1.54321952167685
  N   0.14949541209970     -1.64559153579426     -2.53569227373622
  C   -1.98611082326717     -0.39392313688221      0.19819127886794
  N   -3.09011825261016     -0.75180875400325     -0.01092715434977
  N   -0.46826341163956      0.81762631641061      1.69568581502607
  O   0.41918707914308      0.44625836041910      2.45129499030034
  O   -1.24300122611556      1.75498539381240      1.83238380540116
