12
Coordinates from ORCA-job run
  C   -0.55511987444549      0.12539327010517      0.56165535399709
  C   0.57582605416837     -0.16324274331623     -0.12368368513146
  N   -1.14589601492514     -0.84849432030928      1.52282155024873
  O   -0.59191132722119     -1.93353538373889      1.62931860001903
  O   -2.14078555752095     -0.45616978629339      2.12153444004847
  C   -1.27198887048478      1.34313798171223      0.43016081796939
  N   -1.89080735241261      2.34015535464913      0.31589360352747
  C   1.34421101417982     -1.35218886202266     -0.07726191343566
  N   2.06754804835769     -2.28361876972322     -0.10416795678385
  N   1.08177805951509      0.84225044743849     -1.09962793164939
  O   1.29756094059638      0.40081896332484     -2.22087944145914
  O   1.23058488019280      1.98649384817380     -0.69176343735068
