12
Coordinates from ORCA-job run
  C   -0.66682803304220     -0.01107954066895      0.44011177043877
  C   0.40561180951151     -0.20989821916108     -0.35623434400562
  N   -0.53957285503140      0.71901582112707      1.72291165277312
  O   -1.37519887707785      1.59483581302251      1.90392638761326
  O   0.36536093975029      0.36534947387369      2.46644429260547
  C   -1.97061102450693     -0.46367744879509      0.11860798589766
  N   -3.05207557612217     -0.85203641225678     -0.14649624999846
  C   0.34379769985385     -0.91362706130083     -1.58455267186843
  N   0.28801212819461     -1.49132526623873     -2.61115480537489
  N   1.74395146777224      0.30146758263498      0.02096169256684
  O   2.64157970687377     -0.52939254649409     -0.01365953943182
  O   1.81497261382429      1.48936780425730      0.30413382878411
