12
Coordinates from ORCA-job run
  C   0.53330877941280     -0.20540021227076     -0.16929393868405
  C   -0.56282689296470      0.13380393363883      0.54903267452623
  N   1.09387252029509      0.80233041309907     -1.11223725364641
  O   0.31899414821058      1.29914620852992     -1.91870616376257
  O   2.29003244482414      1.02222147615073     -0.97267649708725
  C   1.27754561632621     -1.40902784310344     -0.11115452673362
  N   1.96165051748695     -2.36864393429346     -0.15859368559854
  C   -1.22542799083081      1.38365823656497      0.43775182598646
  N   -1.77338384364218      2.42518280747671      0.36757454387843
  N   -1.15626184422080     -0.80458231167149      1.54321389475492
  O   -2.14177514942274     -0.38414062382907      2.13813251198257
  O   -0.61672830547455     -1.89454815029201      1.67195661438383
