12
Coordinates from ORCA-job run
  C   0.57929923923561     -0.10326866065395     -0.14737127937077
  C   -0.52917441115309      0.14848945617835      0.58600454997425
  N   0.95554919055388      0.82839254539711     -1.24498241351901
  O   0.80983392542765      2.02459317382784     -1.03045997607464
  O   1.37398599807509      0.28879323815911     -2.26174215514506
  C   1.41761897741444     -1.23895785978868     -0.02181672735492
  N   2.14128696136561     -2.16874967246239      0.02651236795125
  C   -1.40080176830306      1.25327795416857      0.41786674075900
  N   -2.15869128581130      2.15143725810715      0.32087423556008
  N   -0.95506184154964     -0.82710341154123      1.62558851286164
  O   -0.06961593258139     -1.35246220201254      2.28757560751526
  O   -2.16422905267378     -1.00444181937934      1.70595053684294
