12
Coordinates from ORCA-job run
  C   -0.65485300730639      0.02694087909006      0.41390646230994
  C   0.45350991663804     -0.24647319052235     -0.31307479242298
  N   -0.63986175422068      0.86684262601002      1.63602064137646
  O   -1.06643100831640      2.00062598548608      1.48388490483046
  O   -0.25969160929415      0.31554201108021      2.65633059319035
  C   -1.93376504977019     -0.47588605276108      0.06752815334527
  N   -3.00439000637509     -0.89058141667677     -0.20392013975666
  C   0.41454253708593     -1.07376562223419     -1.46609675666531
  N   0.35116985275495     -1.76217951764122     -2.42040151700900
  N   1.78706676465090      0.28673526479649      0.05180500126490
  O   1.81319651817610      1.21100810951378      0.85266224290049
  O   2.73950684597699     -0.25980907614102     -0.49164479336393
