12
Coordinates from ORCA-job run
  C   0.33911334334727     -0.11670319470723     -0.42679403323115
  C   -0.61324887720330     -0.11555605676048      0.53070359971038
  N   1.65139478847700      0.53208614311943     -0.19884485513394
  O   2.23497647133415      0.23612750745195      0.83502702093565
  O   2.01670693686245      1.28669545072373     -1.09058023269437
  C   0.16423350151774     -0.71514994634110     -1.69937436995178
  N   0.01977569008949     -1.22432631655036     -2.75314615386014
  C   -1.87761369353643     -0.73546957516629      0.37315980529552
  N   -2.93340979514562     -1.24260447040881      0.23610657748192
  N   -0.38157501380045      0.54275434733492      1.83758492445381
  O   0.00785526133404      1.70195785528562      1.80380890909946
  O   -0.62720861327634     -0.15081174398138      2.81534880789466
