12
Coordinates from ORCA-job run
  C   0.52331004329862     -0.23038511877829     -0.16749115313842
  C   -0.56027157732137      0.15883174535036      0.54383689386707
  N   1.24669466003714      0.80367351989513     -0.95684831227131
  O   2.43801533542930      0.90571178301649     -0.69426565236049
  O   0.59093131268298      1.43516902841577     -1.77467539744836
  C   1.11258601987618     -1.51638422119548     -0.23293280917900
  N   1.67579952207038     -2.54247096285581     -0.37852841815988
  C   -1.05776252154790      1.48777671573468      0.55252853387809
  N   -1.46346323047484      2.59448048477062      0.57161644603246
  N   -1.31511050239170     -0.80348480917627      1.39355563858495
  O   -2.27847291682849     -0.33456769056129      1.98874159527025
  O   -0.91325614483031     -1.95835047461592      1.41846263492465
