12
Coordinates from ORCA-job run
  C   0.39991311673134     -0.20356976506333     -0.35274251413745
  C   -0.65961334472225     -0.03785483831425      0.46878861865149
  N   1.70996976789287      0.42833442512462     -0.07022462325336
  O   2.10300194555675      1.19911567424353     -0.93440936564610
  O   2.26451621042584      0.09140593221999      0.96553138050259
  C   0.34928728648817     -0.98397428132849     -1.53434387657858
  N   0.31193442061185     -1.64350129032190     -2.51132309214943
  C   -1.91821971093025     -0.64853359959751      0.23863975198901
  N   -2.95947743090171     -1.16074453152686      0.02882560140155
  N   -0.55461372704421      0.78960964921627      1.69228784058892
  O   0.09424264865575      1.82352541254033      1.60236439522637
  O   -1.14194118276415      0.34718721280760      2.67160588340502
