12
Coordinates from ORCA-job run
  C   0.67415264897311     -0.01508464800192     -0.06533475920115
  C   -0.38027719259339      0.02958826190476      0.78041163617330
  N   0.47611088691032     -0.12986130187668     -1.53006540045233
  O   1.29500509063601      0.47516093901599     -2.21181874520536
  O   -0.46595774707621     -0.81424460363330     -1.90737021340794
  C   2.02026223751683      0.09420889899094      0.36014828613558
  N   3.13537310693362      0.19388777798126      0.73086647970316
  C   -0.24945005647583      0.16585728422667      2.18266464670156
  N   -0.17373804538339      0.30831874106618      3.35111909187905
  N   -1.77733389214045     -0.07671505968203      0.29669537974370
  O   -2.35734993217633     -1.09760049905739      0.63565253995744
  O   -2.19879710512430      0.86648420906550     -0.35696894202699
