12
Coordinates from ORCA-job run
  C   -0.39370131624228      0.13770888887325      0.76457200225738
  C   0.66591795972601     -0.02092430299241     -0.05952411338016
  N   -1.77531796165189     -0.10041774016692      0.28679694707310
  O   -1.97885453411816     -1.16099421349912     -0.28829582880978
  O   -2.57223911923760      0.79079115695286      0.54865628725282
  C   -0.26852188316795      0.52185238900033      2.12326968433904
  N   -0.13925551225181      0.80437108006142      3.26037070717095
  C   2.00472676398188      0.18405772770611      0.35521917016698
  N   3.10930975082892      0.38537207040469      0.71360256195448
  N   0.48288187451069     -0.42114519046493     -1.47332091190648
  O   -0.31548983312317      0.23611369834820     -2.12676675213336
  O   1.18054381074535     -1.35778556422350     -1.83857975398500
