12
Coordinates from ORCA-job run
  C   0.37040177095988     -0.15151580171020     -0.40076827607803
  C   -0.63133195291930     -0.09080676706202      0.50281230686130
  N   1.68067320668758      0.48507857262835     -0.13124602671852
  O   2.11275865747794      1.18343114008872     -1.03879053436566
  O   2.19772718163615      0.23565895795380      0.94916977625490
  C   0.25086458269519     -0.80348316472625     -1.65329942761730
  N   0.14868530606796     -1.35114332887107     -2.69262037879874
  C   -1.89677530661267     -0.69633855178559      0.30419945530305
  N   -2.95252892631648     -1.19299051590349      0.13220846907516
  N   -0.45968813200253      0.62426118871636      1.78843006718327
  O   -0.76432328040423     -0.02098018867107      2.78260025134671
  O   -0.05746310726949      1.77782845934246      1.72230431755385
