12
Coordinates from ORCA-job run
  C   0.36464687572388     -0.22028051345778     -0.38547523921443
  C   -0.63688774879261     -0.01986662827508      0.49815851512902
  N   1.71747232436586      0.33272506846325     -0.14221836448832
  O   2.23679579311624      0.87471591829463     -1.10932986209866
  O   2.17727258877777      0.18234781254494      0.98173895311364
  C   0.20356264500103     -0.94607411247695     -1.59207147831478
  N   0.06486539775905     -1.56119610281791     -2.58851216762689
  C   -1.94489045203081     -0.53577375112592      0.32292803682341
  N   -3.03633504322857     -0.95701978019825      0.17381112038671
  N   -0.42408384479795      0.76451751017498      1.73738257034966
  O   -0.72962366177077      0.18534341284920      2.77073876064682
  O   0.00620512587688      1.90056116602490      1.59684915529381
