12
Coordinates from ORCA-job run
  C   0.38397223781230     -0.13004824165679     -0.40871598075969
  C   -0.60745751271780     -0.04454213419942      0.50859777923788
  N   1.75572141740967      0.36734745371994     -0.14399152646327
  O   1.94610625549574      0.91566073614980      0.93342129839653
  O   2.56905665287542      0.17646859200348     -1.04048458561983
  C   0.17307328634630     -0.70730193932624     -1.68885913061659
  N   -0.03767422886626     -1.19255029353302     -2.74231770659122
  C   -1.91868061587234     -0.51967013340602      0.25270117988425
  N   -3.01509363421504     -0.90893804230315      0.05766490032749
  N   -0.43504748221897      0.54671099283497      1.85752661881609
  O   -0.09027747989344     -0.23356478816326      2.73077358573497
  O   -0.72369889615558      1.72942779787971      1.94768356765339
