12
Coordinates from ORCA-job run
  C   -0.64993607576531     -0.01504288848198      0.45526948101228
  C   0.43982457208650     -0.34810875722340     -0.27285159239168
  N   -0.66155750819689      1.18811351058752      1.32816748915562
  O   0.09399370048852      1.15994907618130      2.28810269678440
  O   -1.45770857728070      2.05441645135752      1.00027538258208
  C   -1.84423403519694     -0.76915647580020      0.47715625349341
  N   -2.84926487670011     -1.38697616585222      0.52242272326535
  C   0.50291845502992     -1.49199142644518     -1.10545568700739
  N   0.53270961050155     -2.43707473381048     -1.80976497761756
  N   1.66473402609248      0.48608808166421     -0.22295639785196
  O   1.51143537446437      1.69753568773434     -0.12721458710871
  O   2.71808533447662     -0.13775235991143     -0.26715078431584
