12
Coordinates from ORCA-job run
  C   -0.63264113176099     -0.07860393309820      0.50621780244245
  C   0.38274414200783     -0.20536826634167     -0.37508961909603
  N   -0.50602129851473      0.79342680344920      1.69718064765379
  O   -0.81828485670063      0.26752469460045      2.75720029039024
  O   -0.12503001451041      1.93874295534389      1.49815377416938
  C   -1.86881653721435     -0.75847358639994      0.37352820565868
  N   -2.90040226623369     -1.31741779588325      0.25457704590693
  C   0.30961454142905     -1.01168961678225     -1.53802408259771
  N   0.25183993518945     -1.68911450813195     -2.50158884922732
  N   1.66066498363740      0.51756800039824     -0.17675063526371
  O   2.18873360777479      0.40343296129003      0.92081380028590
  O   2.05759889489628      1.14097229155544     -1.15221838032263
