12
Coordinates from ORCA-job run
  C   0.37260036203263     -0.25782093975641     -0.32976787551976
  C   -0.64852650346983      0.06779298143787      0.49674789906587
  N   1.77780456410062      0.15991393424914     -0.10944958081339
  O   2.46783752935479     -0.63762891949773      0.50535173625736
  O   2.09539161560241      1.21955863359811     -0.62583637655706
  C   0.18034617924978     -1.03992947988725     -1.49664633817472
  N   0.03684669953664     -1.69081970546943     -2.47012319946509
  C   -1.98080573856799     -0.35407484676677      0.24459047532441
  N   -3.07443685908780     -0.72341689102798      0.00550584988462
  N   -0.45229384814819      0.88671654011336      1.71756251396960
  O   -1.46914546330051      1.14062083645071      2.35248826524928
  O   0.69438146269745      1.22908785655638      1.97457663077887
