12
Coordinates from ORCA-job run
  C   -0.59981111826626     -0.04247734692799      0.52473344328113
  C   0.35272469569202     -0.06464844909966     -0.43675352093395
  N   -0.33286677273880      0.29865124517646      1.94308059736957
  O   -0.07892903292771     -0.65121505871336      2.66679991759239
  O   -0.46174592555704      1.47746797799803      2.23149031037156
  C   -1.95692653609883     -0.34989231953155      0.25167512668375
  N   -3.08920330528757     -0.60482812456953      0.04008100956813
  C   0.05020410450741     -0.39826210197297     -1.78355673156515
  N   -0.23785155083648     -0.67857073906515     -2.89184654431555
  N   1.77239652287084      0.25963576845626     -0.15717992719063
  O   2.52678146484295      0.20528169632228     -1.12136962585732
  O   2.05622745379947      0.54885745192719      0.99784594499609
