12
Coordinates from ORCA-job run
  C   -0.63691776396864     -0.08485906281241      0.50514962756776
  C   0.38853791538937     -0.20159431654635     -0.36620248345020
  N   -0.53774125753843      0.80885349037934      1.68262356776614
  O   -0.03476757458250      1.90865546964941      1.49568275833995
  O   -0.98216034553069      0.34496318759646      2.72496668613004
  C   -1.85243297771322     -0.80237485878754      0.37524186084137
  N   -2.86595326594110     -1.39213944856263      0.25109518517453
  C   0.34562941791895     -1.03536734206328     -1.51092946916808
  N   0.31747710729439     -1.73620481222263     -2.45912110117162
  N   1.64905918087987      0.55435014527564     -0.18044262305103
  O   2.25624438895603      0.35395118279144      0.86161470518313
  O   1.95302517483600      1.28176636530254     -1.11567871416200
