12
Coordinates from ORCA-job run
  C   0.41141810300033     -0.38423517013638     -0.24722234493920
  C   -0.67772619273197      0.13716467612273      0.35749407159575
  N   1.77737299553009      0.01933373326317      0.15997406623220
  O   1.99882132600669      1.22123457113880      0.21499768577061
  O   2.54504807486562     -0.90777227331698      0.38111254162664
  C   0.34064784412375     -1.34300058541792     -1.28823293062004
  N   0.27893211213321     -2.13275071911599     -2.16185725817204
  C   -2.00578671758265     -0.20058915803051     -0.00319040719088
  N   -3.11003421009686     -0.49142142844734     -0.29778410043369
  N   -0.54320354405294      1.12386461049666      1.45411046420387
  O   0.20441064212872      0.82072198070389      2.37375892999845
  O   -1.21790043332398      2.13644976273988      1.32283928192832
