12
Coordinates from ORCA-job run
  C   -0.63319309939484     -0.00397807918510      0.51444047870451
  C   0.33064652583811     -0.18233326922165     -0.41468824926519
  N   -0.32634348453672      0.61693112863245      1.82422684283079
  O   0.62584082160656      0.15628996612803      2.43865883661700
  O   -1.08075631693729      1.52202629303996      2.15530970911512
  C   -1.98545672637383     -0.37854023407888      0.31658287807886
  N   -3.10781402724824     -0.70292057226825      0.15533209592485
  C   0.09504872425291     -0.78309065745438     -1.67623309285905
  N   -0.10631682656661     -1.27226556215569     -2.73019636275728
  N   1.72660187478449      0.24361237253812     -0.15978232764088
  O   2.57495620889961     -0.60953872909137     -0.38379328291636
  O   1.88578632567584      1.39380734311676      0.22514247416765
