12
Coordinates from ORCA-job run
  C   -0.64743674968935      0.02435674859677      0.48227555390744
  C   0.35249513416331     -0.18726602467005     -0.40029431152731
  N   -0.37606059400813      0.58369653330066      1.82686062280160
  O   0.50612551565329      0.04046903361673      2.47710822224181
  O   -1.08865773439240      1.52564063386670      2.14686858975181
  C   -2.00818968903413     -0.24996445688217      0.19583137855551
  N   -3.13812249215628     -0.48879280725054     -0.04233889197682
  C   0.14737760787836     -0.73228701476624     -1.69220046249123
  N   -0.02888688786025     -1.17516586781797     -2.77081639063091
  N   1.75563728009723      0.14232732075728     -0.05998214169586
  O   1.96233702914123      1.26667330825511      0.37587742737567
  O   2.56338158020711     -0.75168740700630     -0.27518959631170
