12
Coordinates from ORCA-job run
  C   0.52664069984861     -0.42466896235730     -0.03187528870010
  C   -0.66898597543571     -0.00219358416299      0.43267844341040
  N   1.60243726170806      0.53911342642137     -0.36097613429219
  O   1.30089485901044      1.46185587973434     -1.10536941054389
  O   2.69002829564903      0.28911588545706      0.14139638434555
  C   0.84659771671587     -1.79069694112293     -0.23060318087069
  N   1.10569405269776     -2.92783064399094     -0.40548704011380
  C   -1.73694263133381     -0.87914871193282      0.74631838843708
  N   -2.61951644157804     -1.61344006518973      1.01567782737498
  N   -0.94264151544829      1.43945075457474      0.63637003211093
  O   -0.11212774389065      2.06854831318512      1.27765937515852
  O   -1.99107857794328      1.83989464938408      0.14821060368322
