17
Coordinates from ORCA-job run
  C   0.69217120719046     -0.08923998032689     -0.18083062154147
  C   -0.81375316028484     -0.34185506931286     -0.10933181336604
  F   1.09933337317273     -0.71135611516440     -1.40909884404579
  H   -0.95825288211161     -1.43145413034526     -0.09876957842122
  N   0.92485490723117      1.30478878365099     -0.21712612095106
  H   0.38937505446960      1.71963117308618     -0.97016935398013
  H   1.90868274072883      1.51540551674333     -0.31830980713946
  C   1.47378333430101     -0.76917334825324      0.91519585754897
  H   1.28875505933586     -1.84417714509622      0.89037630655138
  H   1.17524353921878     -0.37476357752084      1.88383547981944
  H   2.54288379570748     -0.60327421553711      0.75941049888396
  N   -1.41501211561957      0.29253638011539     -1.29066548052175
  H   -2.42129144860512      0.17929178396530     -1.25468765231449
  H   -1.08011454694965     -0.18165201053429     -2.12264166059359
  N   -1.31579801258848      0.18148937047287      1.13706873752049
  H   -1.19378363170287      1.18753793338175      1.13683671887821
  H   -2.29907721349379     -0.03273534932468      1.24790733367256
