17
Coordinates from ORCA-job run
  C   0.59786356810867     -0.19352710673610     -0.34238590124225
  C   -0.91247338705645     -0.27718346877043     -0.07260373843738
  F   0.83671637717046     -0.99390387419962     -1.46935309859234
  H   -1.14824959079718     -1.33451191954346      0.11872260181943
  N   0.91104327726857      1.15940117268875     -0.70109754326326
  H   0.51665639091466      1.76571398990629      0.00984001075135
  H   1.91266059746472      1.29936204669357     -0.75027891956722
  C   1.44005119581888     -0.78489568600322      0.77314580644373
  H   1.13423155779887     -1.81128438440386      0.99258343167826
  H   2.48861818352917     -0.80217062198858      0.46503969299379
  H   1.35706109222987     -0.17974949155749      1.67799375433911
  N   -1.71851671801819      0.15098911310582     -1.19852607521012
  H   -1.64101347281800     -0.54408300728219     -1.93092088278801
  H   -1.30261683146038      1.00180538323679     -1.56565486311129
  N   -1.22529737116552      0.60537722541710      1.04936107532401
  H   -2.22085769941863      0.78942460020275      1.00937890629209
  H   -1.02687716956952      0.14923602923388      1.93175574257012
