17
Coordinates from ORCA-job run
  C   0.68790560432677      0.11374686647711     -0.15528987688458
  C   -0.80114098931197      0.04951568721489      0.20607353271548
  F   0.68973830878749     -0.06432632000082     -1.57779867264213
  H   -0.87388391418687      0.10734585517478      1.29740808591299
  N   1.25761346408691      1.37201210800590      0.13907120076566
  H   0.55803876084517      2.08270107886536      0.29418047352303
  H   1.97011181074041      1.34855175167798      0.84903727705077
  C   1.50199858423545     -1.02586001303637      0.41110157788309
  H   1.11349461479199     -1.97818239412508      0.05938400663372
  H   1.46107651700790     -1.01419837754577      1.50288925432794
  H   2.53944740350967     -0.91360105909509      0.08797888156747
  N   -1.33700658631591     -1.23876370694315     -0.20418362564121
  H   -1.24210769449522     -1.32723544679255     -1.20930410225555
  H   -2.32041499184500     -1.30059046822571      0.02997270286756
  N   -1.42897600553150      1.25844698110378     -0.32588598261191
  H   -1.36874009284160      1.24053477262052     -1.33804525495210
  H   -2.40715479380370      1.29090268462423     -0.06658947826023
