17
Coordinates from ORCA-job run
  C   0.71163199752436      0.14998801374279     -0.28325847745115
  C   -0.81588505820527      0.12515577489457     -0.43012909101850
  F   1.22893186784162     -0.08336142861523     -1.57299587831711
  H   -1.04158242478768      0.82989468206921     -1.24862696173680
  N   1.11266350502382      1.44617312547120      0.17437028931496
  H   0.90416306978073      2.13414695300738     -0.54171702911076
  H   2.11178085019043      1.46434019751009      0.33993326460421
  C   1.24136298972106     -0.93868008094476      0.61665271976110
  H   0.97437879834242     -1.90626065050668      0.19398499564677
  H   0.82044910378240     -0.84165843713502      1.61681859664080
  H   2.33136550888240     -0.87626012860646      0.66998547618774
  N   -1.40319160679431      0.49378198797276      0.85205848230502
  H   -2.38668273070837      0.70422356338859      0.73277557703180
  H   -0.93071996506034      1.31127757659730      1.21953492315864
  N   -1.26308953344051     -1.18685419065103     -0.85811456371945
  H   -2.07792220737391     -1.11254315745192     -1.45138799864706
  H   -1.51965416471885     -1.71336380074278     -0.03088432465022
