17
Coordinates from ORCA-job run
  C   0.68233536226117     -0.19876495578108     -0.35567838665252
  C   -0.82859318151464     -0.39781644017716     -0.18260831548493
  F   1.10871102735180     -0.99354381663129     -1.41184256739111
  H   -1.00033809356159     -1.46400112338660      0.02188750073642
  N   0.90313381441530      1.17368446201866     -0.73683547459028
  H   0.50998461293411      1.76052194923167     -0.00972703638344
  H   1.89612983684788      1.35781022044090     -0.81670493975151
  C   1.46703997147023     -0.66297395229125      0.86048051044757
  H   2.53503181266273     -0.58942997121791      0.64192624409304
  H   1.24717665545426     -0.03868150582051      1.72765919039217
  H   1.24026645687333     -1.70683658486200      1.09368425105444
  N   -1.48616186259116     -0.07029510554888     -1.41661871930158
  H   -1.18670001922182      0.84391103056399     -1.73038605144281
  H   -2.49288402914657     -0.10549654952019     -1.32478978748558
  N   -1.23908937710419      0.45810503240523      0.95439913199365
  H   -2.22287302966804      0.67720314501489      0.85570661130496
  H   -1.13316995746278     -0.04439583443847      1.82944783846150
