17
Coordinates from ORCA-job run
  C   0.68166386627412      0.13480536791368     -0.43009437027816
  C   -0.84281672868191      0.24001267769374     -0.32132200712204
  F   0.93900625803453     -0.33467127914152     -1.73450116337850
  H   -1.12674712601795      1.00955344487762     -1.05313122668648
  N   1.21925545187803      1.45609805405341     -0.33011600723904
  H   0.73154561009137      1.93439091686029      0.41837667384966
  H   2.20843476711534      1.42831897448591     -0.11573339226698
  C   1.29246200812565     -0.88711931133071      0.50876251698091
  H   1.16532605953611     -0.56607900297915      1.54426803387182
  H   0.83460916983202     -1.86730237743907      0.37730670557225
  H   2.36247439917513     -0.96369063027230      0.29840895666948
  N   -1.19464681303967      0.74174404359432      0.99649535781009
  H   -2.10645126412175      1.18048769904756      0.97454995187289
  H   -1.25064874724489     -0.04965689063051      1.62910490890593
  N   -1.43160370098179     -1.06723451426915     -0.58920077005810
  H   -1.05175225110391     -1.42582393136017     -1.45847262636579
  H   -2.43211095887042     -0.96383324110396     -0.71470154213793
