17
Coordinates from ORCA-job run
  C   0.66903146615148     -0.14805672113223     -0.30984839630703
  C   -0.81810416133618     -0.46803938549755     -0.12416664813256
  F   1.10818053050952     -0.72061360428218     -1.49505974862803
  H   -0.90974994542468     -1.52991695716118      0.12810426676580
  N   0.79172042418697      1.29296596651850     -0.50288530227428
  H   0.89830152556820      1.74225731877363      0.39904869794966
  H   1.63630171651966      1.46501484069364     -1.03633916374454
  C   1.52792347571802     -0.71200456423492      0.80310503693120
  H   1.44942733816254     -1.80147314781188      0.82021810338883
  H   1.20142415850534     -0.31763156141317      1.76465017971681
  H   2.57188881206948     -0.44295821601383      0.62633730012482
  N   -1.51332718846136     -0.23209720388297     -1.37291111418310
  H   -2.51377798616720     -0.27420325754127     -1.22072777013470
  H   -1.27219051055969      0.69910668055647     -1.69548588502595
  N   -1.25458440556580      0.29971353846600      1.04955858038477
  H   -1.46411036405180      1.24409903798981      0.74414224814262
  H   -2.11035488582451     -0.09516276402687      1.42025961502568
