17
Coordinates from ORCA-job run
  C   0.75856119126874      0.07446135267688     -0.34990575906044
  C   -0.76818183524712      0.24235799953947     -0.32804436971326
  F   1.06058377103130     -0.37779348037776     -1.64404920424578
  H   -0.98838850336854      1.04739257447126     -1.04821535762186
  N   1.47071248319372      1.31413045804775     -0.18329062926325
  H   1.17997472472002      1.71635690496569      0.70101114977224
  H   1.18228645887841      1.95606618384334     -0.91518642819330
  C   1.25914062423880     -0.95347967369847      0.63711177008558
  H   2.32531828505890     -1.09919051034583      0.46388532594071
  H   1.11830504598219     -0.59849741110349      1.65976199349603
  H   0.72633185170650     -1.89528774645222      0.50999619810296
  N   -1.15974370221294      0.72087180975293      0.98752772809139
  H   -2.03892525164699      1.21954036827985      0.93641007585131
  H   -1.30264105129267     -0.08886091378879      1.58202791902214
  N   -1.41012064862024     -1.02288234394879     -0.66412445208451
  H   -2.40010749314437     -0.87317924552862     -0.82189894883732
  H   -1.01110595054570     -1.38200632633321     -1.52401701134265
