17
Coordinates from ORCA-job run
  C   0.73033807216163      0.14667907479962     -0.16784251893437
  C   -0.79027635141544      0.14051462588306      0.06958415301081
  F   0.89492264579188      0.17811162387623     -1.55844172256319
  H   -0.92994011331703      0.28830888419578      1.15291347434810
  N   1.35287266568478      1.32430788643049      0.35493952805988
  H   0.70878817374357      2.10282238055012      0.27514366949116
  H   1.62937196466299      1.19948033238942      1.31860267666578
  C   1.42385268111229     -1.09946756474323      0.33590970310143
  H   1.10792588791783     -1.95831081477782     -0.25552221425100
  H   2.50110175588285     -0.97569578602830      0.21565499413591
  H   1.20123461211062     -1.28117919647738      1.39143950439065
  N   -1.39312983942583     -1.09788467455157     -0.42262291634939
  H   -1.12650876862084     -1.88198553912328      0.16267015540228
  H   -2.40190636543368     -1.01523203130005     -0.36598958709929
  N   -1.33093631371290      1.31047033123456     -0.58852638815942
  H   -2.29792210955376      1.45899459567249     -0.32940116984981
  H   -1.27978859758896      1.16006587196986     -1.58951134139952
