17
Coordinates from ORCA-job run
  C   0.69108543932120      0.16394890114850     -0.04623474268271
  C   -0.83235410748665      0.10231994102079      0.12297388637269
  F   0.92867968185855      0.33464865316841     -1.43797407226391
  H   -1.02265465786551      0.17694851722036      1.20295657952603
  N   1.16946158536627      1.27767283913115      0.68997191552165
  H   0.63387111693082      2.09545267781340      0.42149332598445
  H   2.15123741368448      1.43402740313878      0.49963028521388
  C   1.40503961353408     -1.10908093527415      0.34584586320735
  H   1.12277101793416     -1.91503213667028     -0.33074840030733
  H   2.48486153987216     -0.96321431103806      0.26758559200541
  H   1.16850999820529     -1.37828078449148      1.37726366963447
  N   -1.36201331382087     -1.12377144265772     -0.47588512574500
  H   -1.12506898641232     -1.92712088021341      0.09632434129839
  H   -2.37362215954000     -1.06123574189433     -0.49106527730743
  N   -1.38134076624558      1.29182475343695     -0.49350514373033
  H   -2.35620784132460      1.40857007234686     -0.24868897763544
  H   -1.30225557401147      1.19132247381423     -1.49894371909217
