17
Coordinates from ORCA-job run
  C   0.65006477008584     -0.08571870730581     -0.18296945979858
  C   -0.86677682118892     -0.31913857362031     -0.20503810203427
  F   1.13005389186231     -0.74889832384868     -1.36152851209196
  H   -1.02300098210217     -1.40821515660968     -0.18177235069597
  N   0.90597396284522      1.30267194323509     -0.23203486837031
  H   1.89501422545169      1.50009441337028     -0.30590314829074
  H   0.39741235741006      1.70896476316209     -1.00884885975078
  C   1.35688712266771     -0.75046993149013      0.97447749752663
  H   2.43707006202360     -0.63340106446810      0.85986858641274
  H   1.13326862847262     -1.81886216279143      0.98914186223643
  H   1.05712118502407     -0.29869178593626      1.91971973667153
  N   -1.38197602286188      0.31143908999324     -1.41336122621751
  H   -1.06943418330658     -0.20264197731790     -2.22755159997527
  H   -2.39285076459518      0.28621511071085     -1.37039878369975
  N   -1.57921820755387      0.25637679179018      0.91693745816787
  H   -1.42669562405688     -0.29195956140284      1.75304428960235
  H   -1.22291360017765      1.19223513252942      1.07721748030759
