17
Coordinates from ORCA-job run
  C   0.72398547075634     -0.16505765915720     -0.27483450104509
  C   -0.79252029375329     -0.31500400330672     -0.10375747945327
  F   1.00962318457481     -0.90166256313352     -1.45058503761883
  H   -1.00406073735502     -1.38564086391768      0.03126234642662
  N   1.13320812161396      1.18042362943211     -0.50353967051908
  H   0.40402194126662      1.70396553978118     -0.97147626865048
  H   1.42591823293653      1.64020256878177      0.34510743617860
  C   1.51067991178704     -0.79884734930253      0.84612402751292
  H   1.25249020336831     -0.33962816645099      1.79950576620650
  H   2.57608004063116     -0.67751269744103      0.64268574338167
  H   1.28513819982352     -1.86511405661733      0.89707224166137
  N   -1.42537393976851      0.25264967166112     -1.29546612132481
  H   -1.08341879612691     -0.23258986897777     -2.11769907901875
  H   -2.42806007581184      0.11507650520228     -1.24632260825425
  N   -1.20368166038404      0.36880555732353      1.10523509693029
  H   -1.26004337469571      1.36095080936101      0.90372715927450
  H   -2.12398642886300      0.05998294676176      1.39196094831209
