17
Coordinates from ORCA-job run
  C   0.64382276321836      0.06462451722793     -0.14364228332336
  C   -0.86459129223248      0.02028371312120      0.15995939758180
  F   0.71156669587780     -0.10189012607576     -1.55219900779847
  H   -0.98148350155820      0.15580133046564      1.24137814047079
  N   1.26668469777894      1.31255947763946      0.15662061471871
  H   0.62604097901388      2.08964575790590      0.09076973540196
  H   1.72594112345768      1.30629490788503      1.05458193012991
  C   1.42273624849593     -1.07142665859661      0.47842096422404
  H   2.47924008919667     -0.95874718774458      0.22679278522790
  H   1.05543120833913     -2.02438240520496      0.10697663649507
  H   1.30474541830904     -1.06363912715380      1.56502956737606
  N   -1.37101461479822     -1.29206702188217     -0.19250710809425
  H   -1.16579178180876     -1.45502514888877     -1.17268012913943
  H   -2.38014534645985     -1.26600526179164     -0.10212934600946
  N   -1.61947865977494      1.09219983218758     -0.48848994824933
  H   -1.55879561420578      1.97061796388746      0.00997907022363
  H   -1.29190841284921      1.22215543701810     -1.43886101923557
