17
Coordinates from ORCA-job run
  C   0.71555713423034      0.14165680008067     -0.27823958120904
  C   -0.81077304355509      0.13109630104363     -0.43836046375406
  F   1.24217051498424     -0.10349389698238     -1.56202600357401
  H   -1.02191559673479      0.83276812503870     -1.26336166985304
  N   1.12541709432456      1.43632947069277      0.17599057422020
  H   2.12292111109431      1.44506573218540      0.35167737426285
  H   0.93146499625721      2.12206521902260     -0.54630187669772
  C   1.22664088515266     -0.94737456858667      0.63207400413115
  H   0.95735129832309     -1.91469238048129      0.21025371528335
  H   2.31640765515966     -0.89298646940401      0.69766572974523
  H   0.79521265047442     -0.84291586064284      1.62700174298357
  N   -1.40539839396145      0.51397187963920      0.83608048426617
  H   -0.93094928473433      1.33099566340631      1.20179822364333
  H   -2.38686942972663      0.72856198312815      0.70822325788383
  N   -1.26720407201419     -1.17844944846478     -0.86296401383829
  H   -1.52695094418838     -1.70203938795357     -0.03485646458764
  H   -2.08208257508564     -1.09955916172187     -1.45565503290590
