17
Coordinates from ORCA-job run
  C   0.63950812072127      0.14756398290083     -0.26500784580811
  C   -0.89036081264019      0.18827579016230     -0.37946282290580
  F   1.09301988846383     -0.27743486810092     -1.55400165663769
  H   -1.11166633791846      0.97810512622788     -1.11988688367474
  N   1.11536443100262      1.45629842302655      0.01962065236319
  H   0.88859647564930      2.08433007778186     -0.74293544955985
  H   2.11973274345086      1.45579712044340      0.14826077830197
  C   1.16671619168747     -0.85967825998542      0.72804671449482
  H   2.25224985234310     -0.93376039394503      0.62681455706739
  H   0.93137165115559     -0.55195880447768      1.74685017662398
  H   0.72414522748643     -1.83437972858655      0.53051244308039
  N   -1.57854669090592      0.54361056583200      0.84467000537158
  H   -1.46312172310066     -0.21593257098156      1.50639803641345
  H   -1.15965769201528      1.37887660317213      1.23567676613337
  N   -1.37487630815312     -1.11911254289165     -0.77647666978892
  H   -0.97038305251296     -1.37478188042014     -1.66803607378752
  H   -2.38109196471388     -1.06481864015801     -0.87904272768751
