17
Coordinates from ORCA-job run
  C   0.55042101408886      0.16368153023007     -0.24176056678483
  C   -0.92714589262753      0.03834185363449      0.17562038406492
  F   0.61980855174897      0.14973680581480     -1.63045644777622
  H   -0.92878114147263      0.04478855106108      1.28251550105299
  N   1.03351663629912      1.47077547341125      0.16339372473101
  H   1.96639369969525      1.61039800890915     -0.20948592620659
  H   1.09384366210252      1.51197446344505      1.17467609389932
  C   1.40294147127454     -0.99788911085251      0.23880560424526
  H   1.07280590541596     -1.93719107099023     -0.20621424997681
  H   1.36211861836115     -1.08484137995703      1.32771420870365
  H   2.44040692259402     -0.83073654312195     -0.05916515032232
  N   -1.58944896890124     -1.18415086823430     -0.23285417157288
  H   -1.16979392113741     -2.00101915874251      0.19145890328895
  H   -1.52612403679867     -1.25394579581558     -1.24201224900007
  N   -1.66195739179622      1.12664616158001     -0.42862863356377
  H   -1.15976484806407      1.99445027916141     -0.29578630128314
  H   -2.58024028078262      1.18098080046678     -0.00882072349948
