17
Coordinates from ORCA-job run
  C   0.76291020534715      0.06693706246358     -0.34089551286385
  C   -0.76215456982395      0.25167622396546     -0.33511891082564
  F   1.07428308470345     -0.38427438166630     -1.63346880534595
  H   -0.96523155079609      1.06144598585355     -1.05506841409160
  N   1.48686330547261      1.29833180370646     -0.16222954938041
  H   1.18285925270404      1.70468562796430      0.71588516217880
  H   1.21885038479363      1.94243723301886     -0.90005693431088
  C   1.24153026730180     -0.96990562151981      0.64782169761728
  H   2.30715432212167     -1.12889317344351      0.48309787021180
  H   0.69733735683159     -1.90435638719311      0.51487132072759
  H   1.09737710345301     -0.61432072880912      1.66985420622383
  N   -1.16215612557467      0.73081175219793      0.97738124950678
  H   -2.03613108152538      1.23783964459367      0.91975013159942
  H   -1.31760693111985     -0.07850686986262      1.56929059742426
  N   -1.41405459845303     -1.00543704930869     -0.68223327585710
  H   -1.01011535965737     -1.36527418343622     -1.53953264276609
  H   -2.40071506577862     -0.84419693852442     -0.84934819004821
