17
Coordinates from ORCA-job run
  C   0.63243002633266      0.14239402811786     -0.28748177753518
  C   -0.90085674187157      0.21415865702724     -0.34338635605118
  F   1.03051187756518     -0.19929497812124     -1.61359269106605
  H   -1.12878308556672      1.01549936178862     -1.07009124360318
  N   1.13862687596386      1.42441578080971      0.06747922525429
  H   2.14832335613602      1.40931261789732      0.14255667949660
  H   0.87944795509126      2.10650838784056     -0.63631959720643
  C   1.17758081939799     -0.93166207002637      0.62082744963329
  H   0.84635334662399     -0.76327251151214      1.64366441889974
  H   0.83401003024393     -1.91079436776135      0.28768697321272
  H   2.26980894939678     -0.93026790003527      0.57948785686284
  N   -1.39595957119985      0.46921321202958      0.99398129749257
  H   -2.39881291982581      0.60209604879153      0.94972412268756
  H   -0.96205377707531      1.30683621276339      1.36076306418339
  N   -1.56676036229728     -0.97571366879214     -0.82879577233643
  H   -1.44005720670437     -1.72069689258969     -0.15365274416591
  H   -1.16280957221077     -1.25873191822761     -1.71285090575862
