17
Coordinates from ORCA-job run
  C   0.63243071654913     -0.14748314055288     -0.19350885589528
  C   -0.87615082713704     -0.41168340668812     -0.11717117588653
  F   1.05637406639395     -0.79017441215151     -1.39292095293962
  H   -0.99804262433150     -1.50013763185713     -0.13071500567724
  N   0.88204133028012      1.25353264251490     -0.27376982908276
  H   0.57369770219667      1.60669988215417     -1.17101295177215
  H   1.87144541185686      1.44722343760218     -0.18261175172943
  C   1.40745787570581     -0.78036663127203      0.93698566040855
  H   2.47939671209677     -0.68473940975842      0.74367915250096
  H   1.16500193549904     -1.84200431486832      0.99839269115601
  H   1.15441535933592     -0.30807998990014      1.88361732165442
  N   -1.63749971827057      0.10278512355015     -1.25383183726218
  H   -1.24139777537307     -0.23416813557683     -2.12431422450401
  H   -1.62118707151656      1.11640239917560     -1.25511186447153
  N   -1.35703487635422      0.09468252404794      1.14653484496582
  H   -2.36488818805625     -0.00242968283854      1.17466696066029
  H   -1.12406002887505      1.07994074641896      1.21009181787466
