17
Coordinates from ORCA-job run
  C   0.74451963123733      0.14727785794917     -0.44541430801413
  C   -0.78912755594522      0.24907465721995     -0.47338344391045
  F   1.14573192882548     -0.21359398285856     -1.73225481771035
  H   -1.00173125352335      0.94046945390023     -1.29318012024949
  N   1.26696315315881      1.45324621890056     -0.18275674010617
  H   0.69757725394564      1.90336376132614      0.52184726948657
  H   2.23264527661130      1.41247357938504      0.11524635728279
  C   1.26291129990365     -0.95356723204897      0.46634498204905
  H   0.89896991094578     -1.93028541868897      0.14402330398462
  H   0.98131671290271     -0.77034917334484      1.50661324836649
  H   2.35416784634316     -0.97123293121756      0.41076296826453
  N   -1.24581395591244      0.89127208135982      0.76420666995692
  H   -2.19712009027968      1.21939452106234      0.64905863967659
  H   -1.25281863621873      0.21263339129454      1.51851125057126
  N   -1.37359584989902     -1.03488621904829     -0.81936618348319
  H   -2.32543973018702     -0.90927182577484     -1.13976429969627
  H   -1.39815594190840     -1.64501873941577     -0.01049477646876
