17
Coordinates from ORCA-job run
  C   0.81293851674722      0.08137630329384     -0.34825758614447
  C   -0.71387176921663      0.25301725072419     -0.46367672406265
  F   1.27092615855950     -0.26232263536000     -1.61255870580634
  H   -0.86121066644857      1.00112455634496     -1.24979754586992
  N   1.48914584828983      1.31385820497057     -0.00280849886666
  H   1.45390526751460      1.92075423302006     -0.81564496998379
  H   0.95111297115985      1.76075792317814      0.73195275711182
  C   1.21971714703384     -1.01893581724821      0.60877847234056
  H   2.30694484918625     -1.08885080525859      0.59113588698923
  H   0.91396272110004     -0.78454317065917      1.63132725883972
  H   0.79964711271399     -1.97827438294069      0.30248579692751
  N   -1.19812934684659      0.84562021741936      0.78882771227046
  H   -1.29943308684344      0.11985744037631      1.49037008760201
  H   -2.11599179708337      1.24964944901593      0.64626801312232
  N   -1.34583876723076     -0.97460886563231     -0.91780615295127
  H   -2.29511602296906     -0.78719568146603     -1.21686923333820
  H   -1.38970913566668     -1.65028421977837     -0.16372656818033
