17
Coordinates from ORCA-job run
  C   0.61945172625845      0.11548642638347     -0.21080171329617
  C   -0.84719088458645      0.15587516866924      0.24857363681892
  F   0.52992230263395     -0.06487139667508     -1.62999035607678
  H   -0.83819101442641      0.20984110365619      1.34346857051489
  N   1.28824748481950      1.32745515143484      0.05777233701417
  H   0.66124657570030      2.07841711803753      0.30232249575322
  H   2.09407771343483      1.25265268413216      0.65450638955991
  C   1.38841583737368     -1.08184756414825      0.30073375608315
  H   2.41469328293412     -1.03029149246471     -0.06952798597063
  H   1.40250305907332     -1.09420833850619      1.39327123719247
  H   0.94744540643298     -2.00861499523934     -0.06404618495913
  N   -1.64482660957111     -1.00623743239049     -0.12301266639775
  H   -1.46355760818665     -1.23093574914787     -1.09520420748081
  H   -1.39467088859935     -1.81267348661329      0.43679421777628
  N   -1.41630867938848      1.39561764511672     -0.25275196888675
  H   -2.40397527382572      1.39988288893336     -0.02787312575258
  H   -1.33528243007696      1.39745226882171     -1.26423443189243
