17
Coordinates from ORCA-job run
  C   0.68942438175630      0.15085345690637     -0.29026537668191
  C   -0.83064395259925      0.19931329781700     -0.53188540053876
  F   1.28382853706370     -0.13474475848634     -1.53647582995973
  H   -0.96739680428300      0.90262913500637     -1.36330571188243
  N   1.11836978410713      1.43450077960255      0.17135610035225
  H   2.11409682370884      1.42292934439635      0.35747220817255
  H   0.94783902614308      2.12600326841063     -0.55146089372755
  C   1.13051397173208     -0.93853011530504      0.66099007453018
  H   0.64984224970952     -0.83086043579151      1.63425426815628
  H   0.90025684442551     -1.91326681797559      0.23166344287036
  H   2.21233174035429     -0.88681162707371      0.80533256990837
  N   -1.60054633823245      0.70966508143965      0.60146509899145
  H   -1.14557334171416      1.53941002670738      0.96704563274362
  H   -1.59087613792854      0.01892021757800      1.34480665158589
  N   -1.30632282419365     -1.09004919399980     -0.98553226173102
  H   -1.34581539777712     -1.73454737374925     -0.20283283918550
  H   -2.25732856227226     -0.97641428548308     -1.31562773360406
