17
Coordinates from ORCA-job run
  C   0.65066171431844      0.13959165679654     -0.43602366726278
  C   -0.87367987914148      0.32893430835563     -0.36906258358965
  F   0.91064874074835     -0.33387188671986     -1.73659231341101
  H   -1.08478116533172      1.11422477248731     -1.10185459666378
  N   1.26058857100368      1.42455375635096     -0.30525756626791
  H   2.23520513039363      1.35302161770590     -0.04261404897331
  H   0.75609807249785      1.95299650404143      0.39576762620503
  C   1.19819185268349     -0.92546253484340      0.49764778772414
  H   0.72473655751398     -1.89514282892419      0.33111366714424
  H   1.07324072624835     -0.62816675181737      1.54074084884300
  H   2.26670433519242     -1.04608200281769      0.30294663256380
  N   -1.22542484292049      0.84451649972421      0.94256525360920
  H   -2.19636441420295      1.13379615289415      0.91927647608840
  H   -1.16247112628769      0.09946297261959      1.62907610220988
  N   -1.66368628207917     -0.83116513115164     -0.75607403436576
  H   -1.38892694551674     -1.12617826714119     -1.68640599642624
  H   -1.48074104511996     -1.60502883756037     -0.12624958742724
