17
Coordinates from ORCA-job run
  C   0.67661268166552     -0.20160774669398     -0.25976046513420
  C   -0.84654383207817     -0.36727267874352     -0.10692527018511
  F   0.97594945531861     -0.88022748018276     -1.45727298279704
  H   -1.03040360522616     -1.44084706466605      0.00786546639228
  N   1.12843673548619      1.14626321560479     -0.42941886994019
  H   1.32814318129262      1.60140061223034      0.44848259007175
  H   0.50160360332329      1.70459113675982     -0.99229581027964
  C   1.45053418122151     -0.87630138188743      0.84859512494505
  H   1.20133662577677     -1.93811044771959      0.87106912715784
  H   2.51894934747011     -0.77114855153502      0.65301289311557
  H   1.19751514961607     -0.44198356827304      1.81521912956089
  N   -1.62407211794395      0.05934898004289     -1.26831693920536
  H   -1.56693035587060      1.06543415007343     -1.38490234071809
  H   -1.25428556875343     -0.37614463695459     -2.10605816961641
  N   -1.26572541551838      0.29119803315240      1.11178262812500
  H   -1.13204900655074      1.29220035767234      1.01267862362602
  H   -2.25907105922927      0.13420707111997      1.23624526488163
