17
Coordinates from ORCA-job run
  C   0.69030050793313      0.08598990423779     -0.35396139608013
  C   -0.84314259254541      0.18630888463217     -0.42799475472519
  F   1.05994892796496     -0.41165523703468     -1.62681100652515
  H   -1.04421021298464      0.94012948637677     -1.21123392835447
  N   1.32333270286998      1.35350853912187     -0.19507845254368
  H   1.61936557553225      1.54447342272235      0.74851638357733
  H   0.79065738669597      2.12262088134312     -0.57682593159628
  C   1.20131561577378     -0.90307455491877      0.66760904032075
  H   0.75980248814646     -1.88047481485543      0.48376745031057
  H   2.28703849057578     -0.96960569519887      0.57927496846356
  H   0.94773736518183     -0.59012620163205      1.68257241998430
  N   -1.49637084058249      0.64559769137249      0.78199620221397
  H   -1.10806070917584      1.52642758505853      1.09382537544976
  H   -1.37166083054837     -0.05035143834359      1.50791685390245
  N   -1.39955390442857     -1.11872367648118     -0.72631189312343
  H   -1.01373103031934     -1.45605218440547     -1.59885303636348
  H   -2.40276894008946     -1.02299259199505     -0.82840829491088
