17
Coordinates from ORCA-job run
  C   0.69521444612994      0.14106184638611     -0.28173730291217
  C   -0.82073321855378      0.20701696885888     -0.54395095697717
  F   1.30240561369703     -0.15949323942190     -1.51827412487307
  H   -0.93732008025095      0.90627339141116     -1.38186758254918
  N   1.13408542286342      1.42217577567753      0.17773230969851
  H   2.12714333263346      1.39962667549522      0.37659120251528
  H   0.98109301520608      2.11109955918658     -0.55145787165887
  C   1.10985408753066     -0.94784617232907      0.68180339115330
  H   0.87385866683864     -1.92239538823855      0.25520983874466
  H   0.61699885300871     -0.82809861275337      1.64754130609385
  H   2.19014034774395     -0.90809732849832      0.84071552905478
  N   -1.59862627695371      0.73455857855079      0.57615562520591
  H   -1.61569832840728      0.04447092394703      1.31995008992981
  H   -1.13287611158028      1.55531240043038      0.94848426334195
  N   -1.30679701830075     -1.07893954452530     -0.99574169197191
  H   -1.36411276575580     -1.71869870181455     -0.21031396861575
  H   -2.25162998584934     -0.95602713236262     -1.33984005617994
