17
Coordinates from ORCA-job run
  C   0.64483733270662      0.10666007381560     -0.38131202587525
  C   -0.89071018865920      0.26730196996766     -0.47684998286658
  F   1.02261137596016     -0.36501024847134     -1.66093612332452
  H   -1.04429090290563      1.04992203657683     -1.23418417331195
  N   1.32450755964992      1.34246600161165     -0.16948767036794
  H   0.82551559207865      2.14387810623586     -0.53028037325296
  H   1.61889160339717      1.49227152314420      0.78201999163482
  C   1.11141491287509     -0.93407324980512      0.61161184233475
  H   0.67981241514459     -1.90507161494590      0.36992642314224
  H   2.19739996302015     -1.01892726544163      0.54809044127124
  H   0.83850260806774     -0.66720891235348      1.63460102199243
  N   -1.51413282715107      0.72531743859165      0.75180795364238
  H   -1.08383135657396      1.58564762628187      1.06453058733893
  H   -1.39872629456052      0.03539431395277      1.48569763886057
  N   -1.58960689747554     -0.91824276666592     -0.93639201968850
  H   -1.05288575454093     -1.35201516043156     -1.67674483972276
  H   -1.68930914103324     -1.58730987206313     -0.18209869180691
