15
Coordinates from ORCA-job run
  C   -0.59861571331484     -0.27580779893729      0.33340962632294
  C   0.64420519595389      0.61782946696018      0.27326725240391
  F   -0.96035155416460     -0.45657144755015      1.63429132303239
  H   0.48257051165013      1.48604764007043      0.91101973698856
  N   -1.78673554199336      0.57732174790464     -0.22337416946366
  O   -2.66320164810987     -0.04313897468619     -0.81114300101892
  O   -1.76798303234013      1.77746639053618      0.02594102266464
  N   -0.42909455991700     -1.49520019421786     -0.29624492798061
  H   0.07958635186337     -1.44724082959099     -1.16792715952668
  H   -1.30175308574132     -1.99600349202300     -0.40188547560367
  C   0.94116261702469      1.00436093814179     -1.09693315002687
  N   1.14758157630462      1.29836306918801     -2.21521470952031
  N   1.80289801179357     -0.15964008307978      0.86503425937943
  O   2.46470726147988     -0.84425383432580      0.09560542453830
  O   1.94402360951098     -0.04353259839019      2.07515394781054
