15
Coordinates from ORCA-job run
  C   -0.60394397375872     -0.15792302280060      0.39214298031222
  C   0.67260578410019      0.64053154235632      0.10947962266100
  F   -0.95759980643979      0.00499144998715      1.69759005289821
  H   0.55373715958737      1.64494296328775      0.51386418449631
  N   -1.76597695368860      0.57638364173809     -0.35660763317606
  O   -1.68547998031896      1.79657969872170     -0.44235045507432
  O   -2.68723972370870     -0.13331573577550     -0.73922678603215
  N   -0.49008199108945     -1.50180649239897      0.08594804379114
  H   -1.38321018252558     -1.97642456589169      0.11153247936515
  H   0.00782363478192     -1.69254021596971     -0.77233970632863
  C   0.96794950592782      0.66415092815360     -1.31432220954214
  N   1.17334489508929      0.66154238713424     -2.47076420385814
  N   1.80573156205024     -0.01634885990264      0.87216281278224
  O   2.43065083808314     -0.89550525602568      0.29337652836027
  O   1.96368923190985      0.38474153738595      2.01751428934489
