15
Coordinates from ORCA-job run
  C   -0.70360931057662      0.00410707561712      0.32858744644990
  C   0.78845915531153      0.36453979848315      0.39276749316761
  F   -1.30703923631438      0.87907259480825      1.21643404071459
  H   1.06460582980708      0.27236120383704      1.44713989955799
  N   -1.32180004540071      0.34085204249822     -1.02345904261345
  O   -2.54479281406671      0.32752166188604     -1.04865678280081
  O   -0.55324571166679      0.52878029469748     -1.95789566789899
  N   -0.96907118261486     -1.33894114578694      0.54732245347945
  H   -1.96289079860168     -1.51959119932921      0.60742881946807
  H   -0.44661092941738     -1.75710826415969      1.30262409917531
  C   1.05225407159101      1.72370406967704     -0.05357779002349
  N   1.24305384108040      2.84356313548392     -0.34880593141770
  N   1.67242244027145     -0.64213735331731     -0.31766770852902
  O   2.17819628325271     -0.33005367497944     -1.38392340469435
  O   1.81206840734494     -1.69767023941568      0.29268207596487
