15
Coordinates from ORCA-job run
  C   -0.64924942862169      0.05346159826670     -0.07191392940480
  C   0.83843519554171     -0.04485261214270      0.27474514568015
  F   -0.87602217492884      1.25591050779080     -0.68188529481130
  H   1.08929163809381     -1.09400636166281      0.44715165547524
  N   -1.01547731330081     -1.03773590486386     -1.08541979480095
  O   -0.43547114879509     -2.10714642579653     -0.96860348525476
  O   -1.91282381013663     -0.75572980691020     -1.86480663217229
  N   -1.44904307701677     -0.19358222313409      1.05166097125110
  H   -2.43103477289772     -0.20636336907071      0.80019203711165
  H   -1.29147747336887      0.48621011975579      1.78592666269246
  C   1.13832702519164      0.76832236900270      1.44353635148237
  N   1.29443253703330      1.40797586013854      2.41608756481331
  N   1.69067978318908      0.40138901594493     -0.90172339908538
  O   2.72746687946839      0.99372571563830     -0.63960877607581
  O   1.28196614054850      0.07242151704313     -2.00633907690101
