15
Coordinates from ORCA-job run
  C   -0.73016252635764     -0.03064788003247      0.37297451953794
  C   0.75462707701246      0.34567293499359      0.52260833581191
  F   -1.46609795041395      0.91544142676701      1.01975909826418
  H   1.06124651181212     -0.00566501240428      1.51373967582956
  N   -1.15296086782620      0.16055321811496     -1.11135336684994
  O   -0.38170591628849      0.75966300546093     -1.85332491334487
  O   -2.25563885588657     -0.28949007587786     -1.39501194817899
  N   -1.04535676981697     -1.28338547053261      0.89346093785390
  H   -0.47427013871018     -2.00595096051627      0.47528640093780
  H   -2.03031353979380     -1.48069885242731      0.75833849971860
  C   0.98139951965226      1.77855505258887      0.41936336463600
  N   1.15713285097522      2.93896399063878      0.39762788862711
  N   1.64173162489712     -0.40657384841395     -0.45449909280673
  O   1.28849615320612     -1.55119507228457     -0.71932516178408
  O   2.65287282753850      0.15375754392518     -0.83964423825239
