15
Coordinates from ORCA-job run
  C   -0.66006845428315      0.10888857391146      0.00928884056275
  C   0.86018583654855      0.08212844568598      0.23210778305446
  F   -1.00318816281313      1.22192211832469     -0.66342374340236
  H   1.16660057100206     -0.93559854273268      0.48737016415628
  N   -1.02913276230321     -1.09621347053931     -0.89690902196201
  O   -0.69710099755328     -2.18027848509667     -0.42812270388057
  O   -1.66609704379814     -0.88520179104348     -1.91414630959075
  N   -1.35728891277494      0.06048624693272      1.22965037602479
  H   -2.34530982200477      0.23325869732276      1.08471171779722
  H   -1.21742216144049     -0.81939244511127      1.70982917333326
  C   1.25737348641885      1.03122815663165      1.25917315969882
  N   1.59242236182527      1.76681087242511      2.11068207352808
  N   1.54302271856837      0.40470245825562     -1.08768095407583
  O   1.30592797735844     -0.39141527227622     -1.98761805009525
  O   2.24907536524955      1.39967443730963     -1.14291250514889
