15
Coordinates from ORCA-job run
  C   -0.71968056122441     -0.04199676024463      0.30192839862371
  C   0.72906452744280      0.42980789280904      0.47305498543017
  F   -1.48829002094543      0.82373120772448      1.06023828910253
  H   0.99374378580600      0.26401816900725      1.52085813109978
  N   -1.23819709536713      0.16440647900131     -1.12547473321895
  O   -1.82956968890978     -0.77076097896477     -1.64970002715808
  O   -1.06906704996155      1.28348639872666     -1.58382438401868
  N   -0.82530736314571     -1.38729020122441      0.63002896140336
  H   -0.69186054912561     -1.56060726396176      1.61673026072536
  H   -1.66977935419504     -1.81390095978190      0.27421485144286
  C   1.00181694286040      1.81661041943860      0.12409466551366
  N   1.30984573723510      2.92831706884201     -0.09514835199071
  N   1.62272366143320     -0.48995842943374     -0.32496058732881
  O   1.43614939093784     -0.50152799680911     -1.53444489845697
  O   2.43740763715933     -1.14433504512903      0.31240443883075
