15
Coordinates from ORCA-job run
  C   -0.69995800728230      0.15744371476708     -0.06412986344672
  C   0.80181195747023     -0.07471256914126      0.23968621614570
  F   -0.83790467248413      1.43243056036035     -0.47387045852237
  H   0.98696615216822     -1.15019003098201      0.29456963352798
  N   -1.08956541732876     -0.77848226732970     -1.21051281485251
  O   -0.97663203268969     -1.96879375126485     -0.93736920872845
  O   -1.49347297790499     -0.27803127821155     -2.24329364412756
  N   -1.60845965920275     -0.11124866454394      0.97726137418755
  H   -1.44918890975820      0.48120970339914      1.78225098552995
  H   -1.62531160548249     -1.08974739790936      1.23004575998934
  C   1.15687274323394      0.59299579667547      1.48135130469127
  N   1.36739972896824      1.10447314356171      2.51750665005288
  N   1.63515325973839      0.44407178396378     -0.91359217167051
  O   2.33968800223203      1.42466884280419     -0.72401442354862
  O   1.49360143832225     -0.18508758614904     -1.95588933922792
