15
Coordinates from ORCA-job run
  C   -0.56803532100354     -0.20031662422897      0.35542457820780
  C   0.72423174081593      0.55796868293052      0.03942143413726
  F   -0.47159912286490     -0.56545283912730      1.69368450275865
  H   0.79147054953948      1.43188909690536      0.68519228143182
  N   -1.74410628583940      0.77923912894031      0.34217011654711
  O   -2.84593692238000      0.26216383349546      0.46164338041819
  O   -1.49298480521941      1.97544815398897      0.24670295335356
  N   -0.86723231294926     -1.22001706134158     -0.52654183144499
  H   -1.72728157629609     -1.69475665456076     -0.28682995560410
  H   -0.09188562146390     -1.84940528910484     -0.68245629068914
  C   0.82800399218151      0.92444500567059     -1.36395668220520
  N   0.93745262964241      1.22479229770560     -2.49380844022147
  N   1.89499929461717     -0.32976176470737      0.41864170965346
  O   2.63067527368926      0.09254414136275      1.29927829859879
  O   2.00222848753070     -1.38978010792873     -0.18956605494172
