15
Coordinates from ORCA-job run
  C   -0.62351980120070     -0.20586247066008      0.24434211339556
  C   0.66098544574951      0.61778083818429      0.12072971676791
  F   -0.81895371410889     -0.39639955813639      1.60844491882730
  H   0.52714685485061      1.56739704224688      0.63598732863509
  N   -1.81869105471929      0.65968641903351     -0.16301927551021
  O   -2.88457195819661      0.06466973054801     -0.23583005272790
  O   -1.62333990559000      1.85588470952800     -0.34739474176660
  N   -0.65125965038541     -1.34706942431281     -0.53219387606771
  H   -1.51250326395420     -1.86558198193118     -0.42469457251091
  H   0.17679829550787     -1.91727214580970     -0.43099169892330
  C   1.06768420319500      0.81890647496048     -1.26075126939780
  N   1.42365670283287      1.00015719141417     -2.36495595784785
  N   1.76155722647149     -0.10948582314343      0.87056077099815
  O   2.06749248961781     -1.22327105694706      0.45633214977310
  O   2.24651812992993      0.48046005502530      1.82543444635516
