15
Coordinates from ORCA-job run
  C   -0.69981426205781     -0.03950524031942      0.42501041838820
  C   0.76337300009093      0.43851099802899      0.43330030838483
  F   -1.45220581196177      0.91630890568857      1.03776259597429
  H   1.15543504495677      0.20154381608309      1.42823282208697
  N   -1.23269403206065     -0.01335011325462     -1.03492633396964
  O   -0.54847991096787      0.54799734111750     -1.88423909658029
  O   -2.32425496720755     -0.54436155428836     -1.19440028746395
  N   -0.89500338709077     -1.25514941068020      1.07597404920977
  H   -1.87140718870978     -1.52321361505193      1.03185599044133
  H   -0.30438643686818     -1.97752946203215      0.68576008746924
  C   0.88545811648759      1.86615703676212      0.18427332130921
  N   0.97229828731123      3.02827121952202      0.04334767311493
  N   1.63340568079071     -0.34770218879335     -0.53179879885388
  O   2.57022211301013      0.23672180026809     -1.04712137867685
  O   1.34905375427700     -1.53469953305038     -0.65603137083415
