15
Coordinates from ORCA-job run
  C   -0.60468213608185     -0.14498239699488      0.32206726770723
  C   0.72197201841536      0.55849122103699      0.02373456899622
  F   -0.65112177783437     -0.28972137034163      1.70496475963616
  H   0.73185320774640      1.52728954545657      0.52023353301348
  N   -1.76087220793457      0.81519685452246      0.03024387753096
  O   -2.87542414606358      0.31686363355041      0.10398457851354
  O   -1.48669286574768      1.98433374383565     -0.21631661967143
  N   -0.82409455963865     -1.29477964580297     -0.41069945014810
  H   -1.71176483963768     -1.72619670125853     -0.19043864938731
  H   -0.04653060361966     -1.93980772356899     -0.37851530398762
  C   0.97518966419890      0.69338170751553     -1.40188116646527
  N   1.20834907741864      0.81562303353792     -2.54619091332989
  N   1.83909845992822     -0.24613666092155      0.66057641295515
  O   1.98785784736466     -1.39643822494967      0.26020066826857
  O   2.49686286148585      0.32588298438268      1.51803643636833
