15
Coordinates from ORCA-job run
  C   -0.59908635028952     -0.17078573180885      0.39584749661328
  C   0.68251668315841      0.62584598956342      0.13032248112197
  F   -0.92717904513364     -0.07038344200415      1.71436382511352
  H   0.58530091112873      1.60870939436601      0.58965130387618
  N   -1.76548132878043      0.61464929832280     -0.29213909681098
  O   -2.70519891179864     -0.06335496509928     -0.68712702683189
  O   -1.66962662700517      1.83652337064284     -0.32026942239684
  N   -0.50837337661726     -1.49787345924054      0.01835528006044
  H   -1.40710047545766     -1.96201201183357      0.02969328397513
  H   -0.01896029697182     -1.65219489760121     -0.85184139244524
  C   0.94950385519383      0.72159427793811     -1.29612323295131
  N   1.13214994128866      0.78015363303092     -2.45487327371937
  N   1.82150148038506     -0.08413655019988      0.83333417940816
  O   2.42118087913721     -0.94076853504705      0.19674865571645
  O   2.00985266176224      0.25503362897044      1.99405693927047
