15
Coordinates from ORCA-job run
  C   -0.82202883636389      0.02930554222605      0.31743782344988
  C   0.66270923904706      0.45906466396571      0.51118607559275
  F   -1.52857087786654      0.95661431674662      1.00419923002626
  H   0.85929812594601      0.41668459211043      1.58585668230648
  N   -1.15581533733031      0.17946366198034     -1.16736991070024
  O   -0.76210430040827     -0.74253930655050     -1.87596383200696
  O   -1.74108932039530      1.19227764154532     -1.51158415714752
  N   -1.19918058890634     -1.26235640992929      0.69958971979022
  H   -0.84688484057830     -1.51375911684317      1.61308863025448
  H   -0.92904057946621     -1.95206648461126      0.01210574618821
  C   0.92888500388664      1.79143385883628     -0.00587343408248
  N   1.13663610409325      2.88047924628673     -0.39372987183946
  N   1.58596995538904     -0.55797415768647     -0.11772179282407
  O   1.71588116372215     -1.59580439828898      0.52437848675107
  O   2.09533508923102     -0.28382364978780     -1.19559939575863
