15
Coordinates from ORCA-job run
  C   -0.64661683949482     -0.07461360196421     -0.07597917205982
  C   0.82634442359993      0.15630916644444      0.27089526880186
  F   -1.05781531994534      0.92240172765627     -0.91638272930381
  H   1.24694089293985     -0.77748800689241      0.65104656858576
  N   -0.79423052913216     -1.39435369120633     -0.84329280107901
  O   -0.04533196654102     -2.30251651860839     -0.51465546209191
  O   -1.70260750630372     -1.43342711924152     -1.65895462266670
  N   -1.42287267323314     -0.22334963962637      1.08086728911863
  H   -2.38176319238540     -0.45291532412651      0.84532114441805
  H   -1.40088349327356      0.60650940682713      1.66133786711156
  C   0.95203663898733      1.22735877111187      1.24790419643564
  N   0.96978605835254      2.06466383728094      2.07130331947633
  N   1.62107073556807      0.49624896380619     -0.97882027867231
  O   1.30645051442714     -0.11714643542657     -1.98888233566513
  O   2.53149225643429      1.30231846396547     -0.85270825240913
