15
Coordinates from ORCA-job run
  C   -0.77681661565138      0.01681936858032      0.35564511236734
  C   0.68410997209391      0.47691344948164      0.52635175316175
  F   -1.59450962562615      1.00745856530682      0.79221178219977
  H   0.96364857417732      0.28115357762800      1.56486116807106
  N   -1.05512543949791     -0.04683560870982     -1.18290063085335
  O   -1.05966235141152      1.02250548512680     -1.77680113901386
  O   -1.21892663121661     -1.16645510086196     -1.65781958882672
  N   -1.03372295624072     -1.16670324237780      1.03496053965645
  H   -0.30640996193793     -1.85501745735251      0.89244689078440
  H   -1.93682353845215     -1.55319132062267      0.79098550131409
  C   0.89122551263351      1.87742958219985      0.20006987769711
  N   1.08812136950628      3.02042372955801      0.01801712905485
  N   1.57887836639861     -0.41308937483468     -0.32031023163334
  O   2.05202407828817      0.05476903920919     -1.34575224853180
  O   1.72298924693656     -1.55518069233118      0.10803408455224
