15
Coordinates from ORCA-job run
  C   -0.63847559732009      0.06204825560661      0.36770872557752
  C   0.72058346968678      0.58445785658813     -0.10930005001882
  F   -1.05374731559015      0.79536771168593      1.43733340682971
  H   0.67017714835497      1.67026284828042     -0.18173667431632
  N   -1.67646239795444      0.46611730110383     -0.73337113999118
  O   -1.51265984095020      1.55812348318349     -1.26596103040434
  O   -2.59468561734584     -0.32059550510069     -0.92417963000172
  N   -0.63019869252452     -1.28557442913197      0.67816137975387
  H   -0.10855657739865     -1.85776312473268      0.02886682958687
  H   -1.56275241162085     -1.64961476125838      0.82419247488481
  C   1.09424296914224     -0.02367804635904     -1.37636763779046
  N   1.35867290090547     -0.53197101772537     -2.40177946455809
  N   1.74419886057165      0.25486828132472      0.95766126371759
  O   2.32147840898372     -0.82042546343981      0.86245456452049
  O   1.87018469305990      1.09737660997483      1.83631698221008
