17

C	0.0	0.0	0.0
C	-0.57512	-0.158405	-1.421458
Cl	1.795237	0.0	0.0
H	-1.655176	-0.322214	-1.248369
C	-0.499362	1.263355	0.686177
H	-0.160967	1.273156	1.723784
H	-1.592736	1.248303	0.649846
H	-0.101682	2.144434	0.180815
C	-0.365707	-1.184077	0.791691
N	-0.587375	-2.149525	1.423501
C	-0.015272	-1.337422	-2.080695
N	0.424919	-2.260439	-2.659144
C	-0.40124	1.08255	-2.296757
H	-1.017865	1.893326	-1.90781
H	-0.742154	0.860462	-3.309445
H	0.644628	1.397361	-2.341676
Cl	-3.66283	0.0	0.0
