17

C	0.0	0.0	0.0
C	-0.579726	-0.143455	-1.420588
Cl	1.795025	0.0	0.0
H	-1.659975	-0.30358	-1.241902
C	-0.497006	1.257457	0.698796
H	-1.590626	1.248754	0.668161
H	-0.154305	1.258962	1.734782
H	-0.099809	2.142169	0.199161
C	-0.364586	-1.190894	0.782202
N	-0.577401	-2.160876	1.409892
C	-0.026795	-1.317867	-2.092646
N	0.411158	-2.235099	-2.682048
C	-0.404725	1.105641	-2.284267
H	-0.742569	0.893256	-3.300191
H	0.640771	1.42197	-2.32368
H	-1.022929	1.912195	-1.889881
Cl	-3.660143	0.0	0.0
