17

C	0.0	0.0	0.0
C	-0.557567	-0.174452	-1.426737
Cl	1.795075	0.0	0.0
H	-1.642082	-0.321328	-1.269445
C	-0.495669	1.278183	0.660504
H	-0.092675	2.146976	0.138084
H	-0.15813	1.307259	1.697926
H	-1.588987	1.269469	0.623742
C	-0.374857	-1.169102	0.807511
N	-0.595917	-2.12342	1.456108
C	-0.00081	-1.37172	-2.055449
N	0.425261	-2.323597	-2.596593
C	-0.341823	1.05129	-2.316047
H	-0.974498	1.8697	-1.972581
H	-0.629133	0.813234	-3.341762
H	0.7051	1.365117	-2.313749
Cl	-3.64761	0.0	0.0
