15

C	-0.621078	0.048459	-1.546874
C	0.143378	0.016942	-0.213265
Cl	-0.026183	-1.39496	-2.575872
H	1.2144	-0.125344	-0.37825
N	-2.022096	0.021233	-1.347503
H	-2.526592	0.045678	-2.223917
H	-2.282937	-0.802706	-0.817097
C	-0.255928	1.240116	-2.319379
N	-0.022772	2.14735	-3.027711
C	-0.339032	-1.154009	0.550012
N	-0.867418	-2.039723	1.114802
N	0.002925	1.276723	0.470636
H	-0.903944	1.309612	0.924024
H	0.7887	1.132758	1.19677
F	1.882348	0.292548	1.765283
