15

C	-0.082046	-0.02175	-1.544304
C	-0.044401	-0.196114	-0.006953
Cl	-1.849615	0.496137	-2.004903
H	0.957016	-0.609512	0.182715
N	0.871209	0.891532	-1.94087
H	1.58524	1.153968	-1.181936
H	1.216741	0.761854	-2.877726
C	0.038654	-1.336273	-2.200531
N	0.216136	-2.366598	-2.73968
C	-1.047312	-1.170835	0.431363
N	-1.818461	-1.95113	0.850476
N	-0.216519	1.086939	0.654091
H	0.740859	1.477197	0.632476
H	-0.46592	0.914264	1.621179
F	2.355186	1.330378	0.069343
