16

C	-0.404427	0.0668	-1.469154
C	0.0	0.0	0.0
Br	-0.237496	-1.736326	-2.301216
H	1.093872	0.0	0.0
H	-0.287946	0.9837	0.407481
N	-1.786791	0.451241	-1.618176
H	-1.942943	1.287199	-1.063138
H	-1.944105	0.678623	-2.59459
N	0.482975	0.912592	-2.254864
H	0.445088	1.835493	-1.824832
H	1.440205	0.588668	-2.109394
C	-0.613153	-1.103558	0.844301
H	-1.69623	-1.154136	0.704791
H	-0.184288	-2.070387	0.581152
H	-0.401117	-0.922762	1.901638
Cl	3.53369	0.0	0.0
