16

C	-0.309604	-0.03966	-1.482373
C	0.0	0.0	0.0
Br	-2.468761	-0.335859	-1.643504
H	1.097342	0.0	0.0
H	-0.3571	0.943639	0.425679
N	0.054386	1.123859	-2.128169
H	-0.146288	1.106062	-3.116362
H	-0.222659	1.977152	-1.669977
N	0.205249	-1.15145	-2.229382
H	1.216797	-1.130012	-2.090327
H	-0.156872	-2.015569	-1.847187
C	-0.482941	-1.177566	0.830233
H	-0.138177	-2.123594	0.405855
H	-0.048806	-1.106474	1.830434
H	-1.570141	-1.209085	0.913253
Cl	3.504625	0.0	0.0
