16

C	-0.294457	0.024014	-1.483424
C	0.0	0.0	0.0
Br	-2.351737	0.7775	-1.635895
H	1.097615	0.0	0.0
H	-0.320868	0.954253	0.423191
N	0.448206	0.984224	-2.246231
H	0.263734	1.907652	-1.874199
H	1.432588	0.774959	-2.060729
N	-0.197143	-1.202028	-2.099771
H	-0.727776	-1.941674	-1.668825
H	-0.322181	-1.145596	-3.098629
C	-0.578136	-1.167482	0.776632
H	-0.106891	-2.107137	0.477125
H	-1.661265	-1.241617	0.639939
H	-0.377429	-1.040841	1.841975
Cl	3.465286	0.0	0.0
