16

C	-0.241538	0.005848	-1.501119
C	0.0	0.0	0.0
Br	-2.241698	-0.057786	-1.866645
H	1.10033	0.0	0.0
H	-0.353518	-0.949766	0.409424
N	0.216564	1.194915	-2.196607
H	-0.256855	2.017298	-1.839765
H	1.208933	1.277127	-1.971219
N	0.34789	-1.165693	-2.059486
H	0.495285	-1.009647	-3.049962
H	1.249837	-1.312469	-1.609617
C	-0.537202	1.182869	0.782376
H	-0.252537	1.085663	1.832645
H	-0.107858	2.121796	0.425025
H	-1.626667	1.248892	0.722438
Cl	3.455348	0.0	0.0
