16

C	-0.364639	0.252638	-1.457512
C	0.0	0.0	0.0
Br	-0.268414	-1.568228	-2.438801
H	1.091638	0.0	0.0
H	-0.383526	-0.967617	0.32202
N	-1.755384	0.626915	-1.654585
H	-1.82328	1.607226	-1.388765
H	-1.984264	0.563215	-2.640443
N	0.55911	1.171055	-2.00127
H	0.48971	1.24768	-3.007294
H	1.51782	0.955222	-1.72072
C	-0.502384	1.118053	0.91166
H	-1.594616	1.135576	0.969865
H	-0.105759	0.96654	1.918578
H	-0.143575	2.089284	0.561352
Cl	3.533804	0.0	0.0
