16

C	-0.237911	-0.041446	-1.500994
C	0.0	0.0	0.0
Br	-2.233932	-0.020513	-1.877334
H	1.098832	0.0	0.0
H	-0.356119	0.958301	0.38684
N	0.333686	1.129086	-2.082343
H	0.47909	0.957026	-3.070131
H	1.235701	1.291537	-1.638281
N	0.246901	-1.236268	-2.169149
H	1.239966	-1.292813	-1.938825
H	-0.209228	-2.060253	-1.794268
C	-0.534237	-1.165466	0.810075
H	-0.107194	-2.112232	0.470924
H	-0.243871	-1.045878	1.85655
H	-1.624017	-1.232561	0.757185
Cl	3.455454	0.0	0.0
