16

C	-0.24211	-0.003391	-1.500796
C	0.0	0.0	0.0
Br	-2.241099	-0.066255	-1.866256
H	1.099495	0.0	0.0
H	-0.352426	-0.947678	0.415111
N	0.218361	1.180598	-2.204438
H	-0.252428	2.006831	-1.852394
H	1.211602	1.26219	-1.980835
N	0.346276	-1.179978	-2.051619
H	0.486332	-1.03207	-3.044147
H	1.251913	-1.316378	-1.606392
C	-0.537842	1.186251	0.776344
H	-1.629008	1.242455	0.730212
H	-0.238151	1.102337	1.823973
H	-0.121753	2.125672	0.403724
Cl	3.458233	0.0	0.0
