18

C	0.0	0.0	0.0
C	-0.402909	-0.046145	-1.489209
F	1.417276	0.0	0.0
H	-1.48682	-0.194889	-1.523584
C	-0.451161	1.304165	0.618699
H	-1.535931	1.386613	0.531589
H	-0.166443	1.278338	1.672311
H	0.025284	2.144676	0.118616
N	-0.452855	-1.089765	0.799903
H	-0.367001	-1.960799	0.29076
H	-1.449979	-0.942104	0.957886
N	0.216645	-1.314249	-2.105595
O	1.166609	-1.174956	-2.875908
O	-0.263609	-2.40176	-1.788104
N	0.005355	1.117851	-2.191414
H	-0.336124	1.098685	-3.142923
H	1.016589	1.159046	-2.210222
Cl	-3.675442	0.0	0.0
