18

C	0.0	0.0	0.0
C	-0.449652	-0.311575	-1.452112
F	1.41969	0.0	0.0
H	-1.48675	-0.646063	-1.384075
C	-0.433927	1.385163	0.424435
H	-1.519241	1.47545	0.358447
H	-0.119751	1.517415	1.461306
H	0.050532	2.144012	-0.191526
N	-0.436686	-0.959073	0.966386
H	-1.441122	-0.813421	1.082735
H	-0.319899	-1.894322	0.589649
N	0.368995	-1.490387	-1.916125
O	0.046585	-2.601011	-1.483188
O	1.331783	-1.277024	-2.64506
N	-0.342328	0.723241	-2.436202
H	0.512062	1.250077	-2.319775
H	-1.14128	1.333879	-2.333927
Cl	-3.632391	0.0	0.0
