18

C	0.0	0.0	0.0
C	-0.453419	-0.203879	-1.473939
F	1.393417	0.0	0.0
H	-1.484082	-0.560496	-1.434493
C	-0.452392	1.344775	0.52557
H	-1.538173	1.424308	0.456547
H	-0.148535	1.402168	1.571971
H	0.027394	2.152961	-0.028019
N	-0.441723	-1.032602	0.889573
H	-1.448869	-0.909398	1.000569
H	-0.305577	-1.935486	0.446723
N	0.387647	-1.325493	-2.026993
O	0.096282	-2.471398	-1.67428
O	1.342573	-1.03588	-2.739795
N	-0.364356	0.90612	-2.375243
H	0.493132	1.422819	-2.228366
H	-1.161548	1.507514	-2.210323
Cl	-3.639643	0.0	0.0
