18

C	0.0	0.0	0.0
C	-0.498233	0.31394	-1.410153
F	1.398553	0.0	0.0
H	-1.589436	0.374302	-1.340831
C	-0.506585	1.051297	0.958312
H	-0.097863	0.848598	1.952213
H	-1.598795	0.996298	0.977357
H	-0.183074	2.045993	0.647792
N	-0.469072	-1.29038	0.371828
H	-0.654252	-1.373962	1.358991
H	0.153342	-2.009783	0.035911
N	-0.250904	-0.843706	-2.361657
O	-1.003497	-0.915754	-3.326006
O	0.713943	-1.587441	-2.167297
N	0.09144	1.471251	-2.024056
H	0.964647	1.706649	-1.574931
H	-0.543001	2.253827	-2.005757
Cl	-3.827322	0.0	0.0
