18

C	0.0	0.0	0.0
C	-0.287628	-0.373241	-1.495855
F	1.425891	0.0	0.0
H	0.588375	-0.926475	-1.844816
C	-0.507463	1.358106	0.411501
H	0.019045	2.140627	-0.132142
H	-1.581295	1.409851	0.219315
H	-0.327845	1.482037	1.480229
N	-0.459676	-0.999132	0.906798
H	-0.439584	-1.90673	0.455173
H	-1.437801	-0.807114	1.116087
N	-0.204615	0.903857	-2.373751
O	-1.192103	1.199365	-3.044263
O	0.862299	1.518299	-2.379402
N	-1.467396	-1.115783	-1.67922
H	-2.281426	-0.711116	-1.203057
H	-1.681	-1.2261	-2.660493
Cl	-3.93885	0.0	0.0
