15

C	-0.211254	-0.17631	-1.497273
C	0.0	0.0	0.0
Cl	-1.796546	-0.909375	-1.882992
H	1.091031	0.0	0.0
H	-0.342101	-0.902891	0.502789
N	-0.110845	1.176848	-2.234964
O	1.023536	1.627259	-2.273273
O	-1.112882	1.688178	-2.714458
N	0.85213	-0.983148	-2.032904
H	1.704263	-0.70327	-1.504796
H	0.655319	-1.951858	-1.811587
N	-0.630979	1.129517	0.679762
O	-0.663557	2.222725	0.113865
O	-1.052054	0.927258	1.821922
F	2.577327	0.0	0.0
