15

C	-0.640255	0.065613	-1.356245
C	0.0	0.0	0.0
Cl	0.0141	1.600581	-2.137586
H	1.087971	0.0	0.0
H	-0.307765	0.880932	0.567307
N	-0.168758	-1.020038	-2.328424
O	-0.958137	-1.301753	-3.231063
O	0.95195	-1.468561	-2.182518
N	-2.044627	0.016928	-1.324788
H	-2.405833	0.765932	-0.750608
H	-2.437541	0.043344	-2.255635
N	-0.494612	-1.161442	0.747332
O	-0.696213	-1.016129	1.955964
O	-0.620547	-2.231489	0.14686
F	2.502388	0.0	0.0
