15

C	-0.143676	-0.465469	-1.440159
C	0.0	0.0	0.0
Cl	-1.726261	-1.31076	-1.822267
H	1.098639	0.0	0.0
H	-0.496026	0.940933	0.194001
N	-0.328369	0.847943	-2.326091
O	-1.005048	1.771105	-1.890551
O	0.206311	0.821112	-3.430158
N	0.956631	-1.195774	-1.822712
H	1.075166	-1.248744	-2.822691
H	1.796032	-0.876351	-1.289369
N	-0.489001	-0.980793	0.976358
O	-1.18949	-0.547572	1.898756
O	-0.148972	-2.154618	0.854522
F	2.615118	0.0	0.0
