15

C	-0.154218	-0.204949	-1.514287
C	0.0	0.0	0.0
Cl	-1.642942	-1.200158	-1.944351
H	1.091138	0.0	0.0
H	-0.444035	-0.830766	0.53881
N	-0.476118	1.150402	-2.265993
O	0.361106	1.523889	-3.080085
O	-1.5288	1.716433	-2.007562
N	1.001826	-0.80718	-1.954609
H	1.123898	-0.78389	-2.955076
H	1.838071	-0.525138	-1.380222
N	-0.539072	1.247886	0.54631
O	-0.023296	2.300499	0.171741
O	-1.435013	1.167466	1.392437
F	2.642644	0.0	0.0
