15

C	-0.551644	0.217537	-1.387682
C	0.0	0.0	0.0
Cl	0.186781	1.544804	-2.275666
H	1.089748	0.0	0.0
H	-0.372427	-0.958805	0.360747
N	-0.145968	-1.116808	-2.138884
O	-0.829314	-2.087692	-1.807401
O	0.757862	-1.130023	-2.955642
N	-1.963899	0.369467	-1.407349
H	-2.310394	0.465351	-2.353706
H	-2.390134	-0.43317	-0.961549
N	-0.511932	1.001198	0.943208
O	-0.366871	2.192973	0.677423
O	-1.01723	0.581588	1.992829
F	2.510825	0.0	0.0
