15

C	-0.14976	-0.158974	-1.504046
C	0.0	0.0	0.0
Cl	-1.713505	-0.962799	-2.03877
H	1.090158	0.0	0.0
H	-0.491427	0.881471	0.38875
N	-0.395004	1.293215	-2.106453
O	-1.059772	2.101423	-1.468927
O	0.085279	1.492067	-3.217801
N	0.965613	-0.758246	-2.038627
H	1.081816	-0.584033	-3.024727
H	1.802927	-0.562166	-1.440375
N	-0.481466	-1.161865	0.75825
O	-1.177115	-0.93044	1.753353
O	-0.132159	-2.282613	0.399174
F	2.618339	0.0	0.0
