15

C	-0.124454	-0.236195	-1.500719
C	0.0	0.0	0.0
Cl	-1.737965	-0.827903	-2.033194
H	1.096555	0.0	0.0
H	-0.495198	0.8905	0.3672
N	-0.006999	1.188757	-2.11746
O	0.867814	1.382457	-2.948629
O	-0.810925	2.024326	-1.712783
N	0.904023	-1.039342	-2.055516
H	1.760105	-0.748523	-1.544221
H	0.708104	-1.989203	-1.759659
N	-0.458051	-1.140323	0.79222
O	-0.993129	-0.895157	1.876431
O	-0.249298	-2.281097	0.372626
F	2.574749	0.0	0.0
