13
Coordinates from ORCA-job run
  C   -0.56248041632722     -0.05091107833649      0.23814463073036
  C   0.75026628187866      0.46593192129692     -0.33292613557265
  Cl  -0.75857370598585      0.47579513045079      1.91352062510332
  H   0.86901636865889      0.13375035126398     -1.36479574105466
  H   0.78881622242827      1.54866953584277     -0.25829202051414
  N   -1.72600984281262      0.58957690978683     -0.57317225529191
  O   -1.42327438613158      1.49011373084324     -1.34356278760227
  O   -2.83567933543153      0.14078074916670     -0.34567980020752
  C   -0.73643259151796     -1.49203943528250      0.13234464738740
  N   -0.91229400871974     -2.64910995327669      0.02001960945407
  N   1.89828503733720     -0.08216286695199      0.45042542076375
  O   2.07748395866102     -1.29489491190772      0.38311866759603
  O   2.57187641796245      0.72549991710417      1.08285513920822
