13
Coordinates from ORCA-job run
  C   -0.58117533464188     -0.05859901995316      0.29233108637055
  C   0.72977353486800      0.41513639390952     -0.32717798545457
  Cl  -0.71911079232126      0.48243637449091      1.95101942490009
  H   0.76822355242487      1.50385733966447     -0.31996062556811
  H   0.82729253657909      0.02033269602383     -1.33921976778344
  N   -1.67635731205428      0.62447781609886     -0.59637465868766
  O   -1.65699920784818      0.23786005044942     -1.75676153731228
  O   -2.39885482774974      1.46246628839377     -0.09362693605819
  C   -0.81999409154138     -1.49091520405287      0.18623726100105
  N   -1.07165253592705     -2.63505758896068      0.08777428078796
  N   1.90633253244169     -0.06721852239066      0.45646241569856
  O   2.77685124640869      0.76099175262261      0.70057952952961
  O   1.91667069936145     -1.25576837629602      0.75771751257643
