13
Coordinates from ORCA-job run
  C   -0.54561694461587     -0.37632968458915      0.30374569209650
  C   0.82419493764320     -0.36324845586847     -0.35894448539193
  Cl  -0.42752538570148     -0.63201195425048      2.03270801754954
  H   1.31362858843534     -1.32772412784487     -0.23610047113644
  H   0.71911721426055     -0.11246949165907     -1.41540085819898
  N   -1.29255127439061      0.96070756827702     -0.01605621913629
  O   -1.82423331181634      1.55909700028313      0.89438998409347
  O   -1.28718562632609      1.23156706450550     -1.20696546387060
  C   -1.34863716479886     -1.42639474518055     -0.31341005767016
  N   -1.96396684607621     -2.28519690710947     -0.82897328864692
  N   1.72139847698069      0.66648896954359      0.24747851854241
  O   2.90860118637244      0.37472324063042      0.32435451883872
  O   1.20177615003324      1.72879152326241      0.57417411293068
