13
Coordinates from ORCA-job run
  C   -0.66184563981525     -0.28430841119242      0.34832376808687
  C   0.70688516021985      0.23071335741190      0.74708121785711
  Cl  -1.66262287973025     -0.33789296148124      1.81339808100317
  H   0.62332076146531      1.23531638736392      1.15986063874094
  H   1.17074675476055     -0.43669942628542      1.47289627166708
  N   -1.34882412087148      0.71201734912284     -0.60747029760686
  O   -2.10536220222774      0.23611837319730     -1.43628518524006
  O   -1.11423346673002      1.89000229179136     -0.38988600171205
  C   -0.62056985718877     -1.60012656266101     -0.27001709915722
  N   -0.55253688058300     -2.69269834696915     -0.69780695967415
  N   1.62886592759662      0.31645808634494     -0.42905723820885
  O   2.80315627497130      0.53407991715345     -0.16512479896080
  O   1.13302016813287      0.19801994620356     -1.54691239679518
