13
Coordinates from ORCA-job run
  C   -0.57765314080902     -0.03387122529089      0.20804348863890
  C   0.76944782144626      0.45909226528721     -0.30216266682912
  Cl  -0.87359396252160      0.54883608335810      1.85030776828546
  H   0.81692856358016      1.54211446907140     -0.23853669568410
  H   0.93440509466238      0.11053837971068     -1.32194608837599
  N   -1.68631248380053      0.58298375550645     -0.69040455298667
  O   -2.79981100583586      0.10610244205375     -0.55765628938499
  O   -1.34575513320961      1.50256500009118     -1.42126181153697
  C   -0.74558053442083     -1.47818673244539      0.14415413320898
  N   -0.90566833048229     -2.64094091090151      0.07657346306214
  N   1.86712187250661     -0.09561408432899      0.54560420881167
  O   2.45674830457704      0.69526799091423      1.27583429985055
  O   2.09072293430731     -1.29788743302622      0.43145074294007
