13
Coordinates from ORCA-job run
  C   -0.63316930828833     -0.33330509526055      0.36143564225457
  C   0.84355306202260     -0.10990145633287      0.62123430979180
  Cl  -1.37961329571749     -0.82353512735879      1.89538837521155
  H   0.97811461207334      0.68451480420691      1.35432734636077
  H   1.31394873094930     -1.02856339025227      0.97078341980864
  N   -1.30980618455434      0.99192275566592     -0.04369978000639
  O   -2.24665384196864      0.90926203701725     -0.81905023901653
  O   -0.86953895171637      1.99072625092346      0.50272536077640
  C   -0.88870171490492     -1.33998481707826     -0.65674079119125
  N   -1.04242713330450     -2.20985779451375     -1.43201979296459
  N   1.56526776746323      0.31292240943769     -0.62003108070066
  O   2.78617702591842      0.31456582345360     -0.54713161885920
  O   0.88284923202768      0.64223360009165     -1.58722115146511
