13
Coordinates from ORCA-job run
  C   -0.67774552876199     -0.26079904546704      0.33826518019118
  C   0.77819452225359     -0.05855729602585      0.70848507215637
  Cl  -1.58258949865724     -0.52171158983484      1.84306305239503
  H   1.17055389440813     -0.93981804060003      1.21526753598914
  H   0.88404792061337      0.81927310902457      1.34475928113548
  N   -1.25147286986646      1.02414910227167     -0.29263372400522
  O   -0.81323586651466      2.06903841103068      0.16140980932744
  O   -2.11980363725219      0.87519074782034     -1.13497164909005
  C   -0.88818409229214     -1.38082617630114     -0.56535546180597
  N   -1.01948407592832     -2.33485034420886     -1.23911671273076
  N   1.62874238944123      0.17262773788170     -0.50135381958306
  O   1.05323392958693      0.39788132049159     -1.56322127260150
  O   2.83674291296973      0.13940206391719     -0.31259729137808
