13
Coordinates from ORCA-job run
  C   -0.55739191803298     -0.37319463810463      0.27958754120466
  C   0.84062809794199     -0.36464123114095     -0.32197682781691
  Cl  -0.51316257380566     -0.60656927649111      2.01525814058993
  H   1.32348607968767     -1.32852672111708     -0.17202071641282
  H   0.78213525787504     -0.11858933012989     -1.38318577674182
  N   -1.29065912918590      0.95966223173595     -0.08832216045922
  O   -1.25362135247634      1.20269418747655     -1.28478516470408
  O   -1.83858835564989      1.58318474047606      0.79501770410159
  C   -1.33243503405983     -1.43181804954614     -0.35798545025509
  N   -1.92956166879725     -2.29843910027037     -0.88219004381834
  N   1.70780730527202      0.66748343323511      0.32196045165066
  O   2.88005524200036      0.36097557775236      0.50177398131781
  O   1.18130804923079      1.74577817612412      0.57786832134363
