13
Coordinates from ORCA-job run
  C   -0.52461183893183     -0.40127379531540      0.30670970324548
  C   0.81722618796974     -0.32649721290977     -0.40749972469443
  Cl  -0.33004093593821     -0.72016785855911      2.01821583246054
  H   0.66405837989434     -0.03017567606966     -1.44618121268088
  H   1.33220178399047     -1.28353727373984     -0.34792606995745
  N   -1.31474054286943      0.92913690257591      0.07073948272438
  O   -1.80322179880121      1.49081447358833      1.02741537740245
  O   -1.38046982118125      1.23518850463087     -1.10977819891309
  C   -1.32674549285280     -1.44631620908899     -0.31956150341325
  N   -1.93643515339229     -2.29922578015609     -0.85167168612361
  N   1.71300846230970      0.69510523531240      0.21386725513555
  O   2.90327191340707      0.41210390498907      0.27474939195533
  O   1.18649885639558      1.74384478474228      0.57192135285890
