13

C	0.0	0.0	0.0
C	-0.509611	0.001168	-1.41292
F	1.371426	0.0	0.0
H	-1.771959	-0.093351	-0.988343
H	-0.372944	0.922444	0.460454
C	-0.45754	-1.107019	0.847081
N	-0.477359	-2.003044	1.665373
N	0.003226	-1.097428	-2.203335
O	0.188342	-2.165267	-1.622055
O	0.221602	-0.918246	-3.413209
C	-0.256934	1.249685	-2.074622
N	-0.060147	2.294566	-2.590125
H	-2.563664	0.0	0.0
