13

C	-0.520249	0.038794	-1.45391
C	0.0	0.0	0.0
Br	0.217727	-1.458131	-2.4817
H	1.096956	0.0	0.0
H	-0.344182	0.930079	0.469872
C	-1.97948	-0.094183	-1.467388
N	-3.153261	-0.155129	-1.457992
C	-0.154326	1.284782	-2.127104
N	0.099305	2.307311	-2.64825
N	-0.507886	-1.191057	0.657573
H	-1.137744	-0.957995	1.411153
H	0.271166	-1.715221	1.032225
Cl	3.374357	0.0	0.0
