13

C	-0.519998	-0.052914	-1.453854
C	0.0	0.0	0.0
Br	0.213528	1.437521	-2.493698
H	1.097132	0.0	0.0
H	-0.344664	-0.925213	0.478872
C	-0.1495	-1.302784	-2.117062
N	0.112182	-2.3286	-2.627403
C	-1.97935	0.07589	-1.468101
N	-3.153202	0.133004	-1.459233
N	-0.509487	1.196764	0.645655
H	-1.13506	0.970786	1.404919
H	0.269365	1.729645	1.009493
Cl	3.375989	0.0	0.0
