13

C	-0.524905	-0.011853	-1.452826
C	0.0	0.0	0.0
Br	0.183936	-1.561945	-2.420557
H	1.096336	0.0	0.0
H	-0.344627	0.945194	0.437013
C	-1.986061	-0.11733	-1.452901
N	-3.160594	-0.146615	-1.405364
C	-0.141106	1.19883	-2.17884
N	0.112642	2.199822	-2.739877
N	-0.517831	-1.161347	0.703904
H	0.260736	-1.714359	1.036494
H	-1.079575	-0.888829	1.495909
Cl	3.385134	0.0	0.0
