13

C	-0.48296	0.008617	-1.457802
C	0.0	0.0	0.0
Br	-2.473005	0.107808	-1.482221
H	1.101507	0.0	0.0
H	-0.343406	0.935139	0.455779
C	-0.011329	1.181976	-2.190268
N	0.324858	2.150419	-2.765059
C	-0.126153	-1.222134	-2.159259
N	0.145956	-2.202858	-2.746345
N	-0.478241	-1.199219	0.661166
H	0.303967	-1.653617	1.113615
H	-1.187322	-0.99344	1.349723
Cl	3.34042	0.0	0.0
