13

C	-0.520742	-0.051377	-1.453724
C	0.0	0.0	0.0
Br	0.236635	-1.592913	-2.397986
H	1.091665	0.0	0.0
H	-0.34591	0.956965	0.412039
C	-1.977264	-0.205902	-1.454577
N	-3.148558	-0.292445	-1.411565
C	-0.176587	1.160207	-2.196997
N	0.040161	2.160885	-2.773246
N	-0.498595	-1.15274	0.727273
H	0.278169	-1.619164	1.175318
H	-1.174309	-0.888586	1.429268
Cl	3.371345	0.0	0.0
