13

C	-0.481887	-0.05423	-1.45765
C	0.0	0.0	0.0
Br	-2.472072	0.037463	-1.487706
H	1.095259	0.0	0.0
H	-0.344971	0.953687	0.414541
C	-0.012999	1.089306	-2.237291
N	0.343403	2.034653	-2.837953
C	-0.119623	-1.312047	-2.106756
N	0.15848	-2.313736	-2.654102
N	-0.477011	-1.17113	0.710917
H	-1.193337	-0.938456	1.382859
H	0.304013	-1.597356	1.192118
Cl	3.338887	0.0	0.0
