17

C	-0.503493	-0.014191	-1.449349
C	0.0	0.0	0.0
Br	0.213848	1.7333	-2.282981
H	1.098376	0.0	0.0
C	0.136909	-1.12123	-2.256531
H	-0.212855	-2.081022	-1.866089
H	1.222572	-1.06129	-2.163779
H	-0.145207	-1.043472	-3.309156
N	-1.909666	-0.038521	-1.466075
H	-2.284301	0.094737	-2.395966
H	-2.264253	0.667638	-0.829639
C	-0.451335	-1.24001	0.64366
N	-0.792878	-2.233712	1.168682
N	-0.582274	1.142691	0.727505
H	-0.448859	0.979496	1.720124
H	-0.005105	1.944914	0.492284
Cl	3.357929	0.0	0.0
