17

C	-0.384995	0.044732	-1.477346
C	0.0	0.0	0.0
Br	-2.488498	0.445144	-1.501772
H	1.09654	0.0	0.0
C	0.248194	1.223177	-2.173316
H	-0.055631	1.261978	-3.222341
H	1.331928	1.088947	-2.095337
H	-0.037167	2.145851	-1.674431
N	-0.123845	-1.158322	-2.114863
H	-0.534508	-1.968228	-1.671176
H	-0.310457	-1.139874	-3.106411
C	-0.477659	-1.245922	0.619682
N	-0.858891	-2.238421	1.121793
N	-0.394481	1.204781	0.708736
H	0.238439	1.338463	1.487929
H	-1.346265	1.136513	1.045798
Cl	3.306963	0.0	0.0
