17

C	-0.277862	0.01046	-1.512273
C	0.0	0.0	0.0
Br	-2.256625	-0.031012	-1.790333
H	1.098238	0.0	0.0
C	0.270391	1.27814	-2.131893
H	-0.192071	2.155402	-1.685235
H	1.345691	1.306395	-1.926278
H	0.098318	1.256217	-3.208302
N	0.277367	-1.137925	-2.18452
H	1.290169	-1.079873	-2.065554
H	-0.033411	-1.991243	-1.730052
C	-0.453635	-1.262363	0.604969
N	-0.819177	-2.253158	1.122293
N	-0.474014	1.185879	0.68843
H	0.106683	1.343921	1.503284
H	-1.435569	1.065228	0.984259
Cl	3.304924	0.0	0.0
