17

C	-0.501014	-0.013685	-1.450367
C	0.0	0.0	0.0
Br	0.206065	1.73992	-2.279854
H	1.098378	0.0	0.0
C	0.147415	-1.116146	-2.25766
H	-0.133707	-1.039256	-3.310915
H	1.23285	-1.049919	-2.162722
H	-0.197264	-2.078317	-1.868031
N	-1.90792	-0.04622	-1.470033
H	-2.280841	0.087083	-2.400475
H	-2.267567	0.657251	-0.833412
C	-0.450383	-1.241402	0.641294
N	-0.789818	-2.236462	1.165056
N	-0.584161	1.141026	0.728215
H	-0.451802	0.976715	1.720662
H	-0.008033	1.944025	0.494581
Cl	3.358001	0.0	0.0
