17

C	-0.545089	0.000284	-1.44009
C	0.0	0.0	0.0
Cl	0.148556	1.360111	-2.333357
H	1.088757	0.0	0.0
N	-0.04155	-1.280516	-2.12951
O	-0.446181	-1.460284	-3.272674
O	0.698499	-2.019286	-1.494519
C	-2.05359	0.007319	-1.560761
H	-2.459766	0.907912	-1.103629
H	-2.470347	-0.864487	-1.050717
H	-2.323563	-0.022701	-2.614926
C	-0.537937	-1.127076	0.75044
N	-0.996624	-2.031066	1.344392
N	-0.466643	1.268787	0.68008
O	0.303045	2.219503	0.668542
O	-1.593253	1.258485	1.181682
Cl	3.194735	0.0	0.0
