17

C	-0.401941	-0.003171	-1.480252
C	0.0	0.0	0.0
Cl	0.221336	-1.513422	-2.157499
H	1.092768	0.0	0.0
N	-1.933484	-0.003283	-1.602029
O	-2.499617	0.764948	-0.827663
O	-2.471755	-0.676112	-2.466703
C	0.118542	1.16391	-2.296447
H	-0.35426	2.091566	-1.980245
H	-0.092472	0.970744	-3.350124
H	1.196038	1.232293	-2.133954
C	-0.541049	-1.156321	0.696836
N	-0.960201	-2.117853	1.225625
N	-0.37787	1.253873	0.753432
O	-1.00688	1.127655	1.79805
O	0.033416	2.309729	0.29125
Cl	3.137901	0.0	0.0
