17

C	-0.450588	0.001205	-1.460909
C	0.0	0.0	0.0
Cl	0.326665	-1.378424	-2.24598
H	1.092838	0.0	0.0
N	-1.974741	-0.201496	-1.512343
O	-2.588173	0.619418	-0.836094
O	-2.456405	-1.123243	-2.153425
C	-0.168009	1.261823	-2.253407
H	-0.72027	2.102774	-1.838597
H	0.898766	1.480001	-2.217328
H	-0.471052	1.09763	-3.29117
C	-0.506046	-1.158919	0.703489
N	-0.886335	-2.124077	1.260471
N	-0.393153	1.255933	0.73192
O	0.214823	2.26508	0.381726
O	-1.166258	1.171184	1.683136
Cl	2.675726	0.0	0.0
