17

C	-0.405402	0.000673	-1.484735
C	0.0	0.0	0.0
Cl	-0.033629	-1.597205	-2.143225
H	1.092179	0.0	0.0
N	-1.928675	0.197064	-1.556685
O	-2.643728	-0.759668	-1.291293
O	-2.312535	1.335237	-1.815303
C	0.318945	1.055696	-2.284614
H	1.389137	0.89736	-2.135353
H	0.05628	2.051906	-1.943895
H	0.059536	0.952112	-3.33925
C	-0.530981	-1.122103	0.757709
N	-0.905347	-2.033471	1.398008
N	-0.471757	1.287733	0.630985
O	-1.512642	1.253347	1.284181
O	0.209481	2.282326	0.420663
Cl	3.166321	0.0	0.0
