13
Coordinates from ORCA-job run
  C   -0.49447334127951     -0.56393428717836      0.21671261511800
  C   0.91108703052419     -0.05212145454422     -0.16161955845038
  Cl  -0.72707431886642     -0.40200971585516      1.97444353689921
  H   1.02692875327894     -0.19402354145849     -1.24467556516116
  H   -0.51824136402229     -1.63419348733476     -0.00162101218498
  C   -1.58405505549704      0.17189496084367     -0.53805123033991
  H   -2.55925967383111     -0.24263944374147     -0.28080713746385
  H   -1.58395602170984      1.23323449031350     -0.28388194994293
  H   -1.43576545601497      0.06266525497037     -1.61627805014741
  C   1.96845735749896     -0.82272834532187      0.50014604399369
  N   2.80567707205805     -1.47227552406980      1.00489681678650
  C   1.05396454981620      1.38058365268978      0.11693634917715
  N   1.13871046804484      2.53454744068682      0.31379914171608
