13

C	0.0	0.0	0.0
C	-0.490879	-0.25755	-1.42693
Br	2.026834	0.0	0.0
H	-0.076334	0.479679	-2.115637
H	-1.59133	-0.161514	-1.359023
C	-0.307853	1.37881	0.402166
N	-0.49387	2.483409	0.756461
N	-0.52784	-0.906491	0.885558
H	-0.578057	-1.876459	0.627261
H	-0.604096	-0.680928	1.859088
C	-0.135789	-1.601372	-1.866183
N	0.128499	-2.691047	-2.214343
Br	-3.758228	0.0	0.0
