13

C	0.0	0.0	0.0
C	-0.472075	-0.213045	-1.454849
Br	1.966875	0.0	0.0
H	-1.571538	-0.146879	-1.411291
H	-0.079698	0.567494	-2.111783
C	-0.363073	1.36458	0.411433
N	-0.589539	2.46444	0.755815
N	-0.485856	-0.941305	0.96015
H	-0.292413	-1.881638	0.628439
H	-1.506039	-0.813373	0.991075
C	-0.078183	-1.525348	-1.950171
N	0.218785	-2.592215	-2.341252
Br	-3.63606	0.0	0.0
