17

C	-0.455731	0.119824	-1.45775
C	0.0	0.0	0.0
Br	-0.274239	-1.581629	-2.459676
H	1.096801	0.0	0.0
H	-1.538657	0.305062	-1.501797
C	0.327237	1.184129	-2.209535
H	1.39591	0.982404	-2.094284
H	0.052916	1.211475	-3.267447
H	0.116194	2.166002	-1.774786
C	-0.560069	-1.195248	0.746643
H	-0.253314	-1.111347	1.790593
H	-0.181997	-2.135839	0.344685
H	-1.658052	-1.211383	0.710791
N	-0.373564	1.238731	0.711947
H	0.400283	1.891912	0.632649
H	-1.199501	1.66754	0.304552
H	3.022683	0.0	0.0
