17

C	-0.32835	0.018021	-1.470007
C	0.0	0.0	0.0
Br	-2.314091	-0.04197	-1.8048
H	1.099635	0.0	0.0
H	-0.064643	1.005675	-1.848172
C	0.357228	-1.073461	-2.259651
H	1.422092	-1.024147	-1.995556
H	0.233231	-0.925283	-3.334965
H	-0.027775	-2.062324	-2.003074
C	-0.443736	-1.251472	0.743929
H	-1.536389	-1.32434	0.795691
H	-0.043512	-1.211505	1.761243
H	-0.054005	-2.161187	0.2794
N	-0.431206	1.246206	0.63207
H	0.244521	1.470042	1.354722
H	-1.33583	1.118738	1.072126
H	2.930805	0.0	0.0
