17

C	-0.260664	-0.011423	-1.491809
C	0.0	0.0	0.0
Br	-2.228322	0.032919	-1.934713
H	1.100093	0.0	0.0
H	0.085639	0.940976	-1.900755
C	0.399652	-1.159396	-2.22087
H	1.453272	-1.150912	-1.910022
H	0.331707	-1.036957	-3.304443
H	-0.046929	-2.118123	-1.952392
C	-0.501349	-1.220942	0.746801
H	-0.150184	-1.14871	1.777656
H	-1.595842	-1.26718	0.753729
H	-0.109715	-2.14775	0.320088
N	-0.433848	1.221768	0.674549
H	0.26009	1.939471	0.493597
H	-1.321415	1.531602	0.291625
H	2.93204	0.0	0.0
