15

C	0.0	0.0	0.0
C	-0.19952	0.060067	-1.556418
Br	1.9409	0.0	0.0
H	0.466027	-0.714808	-1.941665
H	0.269378	1.014002	-1.827132
C	-0.543289	1.118909	0.754026
N	-0.693248	2.127116	1.34417
N	-0.415052	-1.313608	0.618064
O	-0.560956	-1.330421	1.831376
O	-0.44608	-2.28499	-0.127268
C	-1.522228	-0.0628	-2.294176
H	-2.219289	0.717961	-2.014155
H	-1.275752	0.001561	-3.366352
H	-2.002822	-1.014088	-2.090611
F	-2.287434	0.0	0.0
