15

C	0.0	0.0	0.0
C	-0.396794	0.092135	-1.489905
Br	1.932154	0.0	0.0
H	0.088548	1.011148	-1.83776
H	-1.479788	0.232162	-1.427038
C	-0.463862	1.17887	0.725226
N	-0.584892	2.217816	1.263795
N	-0.445152	-1.241463	0.746867
O	-0.506037	-2.285536	0.113687
O	-0.581314	-1.128475	1.956345
C	-0.025707	-1.063814	-2.411544
H	-0.687358	-1.911312	-2.248809
H	1.005988	-1.402886	-2.290818
H	-0.147067	-0.72507	-3.445868
F	-2.432989	0.0	0.0
