15

C	0.0	0.0	0.0
C	-0.4023	0.002693	-1.479998
Br	1.946857	0.0	0.0
H	-1.451152	-0.296873	-1.443955
H	0.216628	-0.736435	-1.995341
C	-0.47779	1.139567	0.768929
N	-0.613756	2.148059	1.359757
N	-0.415365	-1.29041	0.685666
O	-0.547705	-1.255701	1.901136
O	-0.468484	-2.288598	-0.020025
C	-0.269155	1.382536	-2.104548
H	0.744996	1.789847	-2.030348
H	-0.533924	1.328023	-3.16612
H	-0.964968	2.070698	-1.618823
F	-2.426529	0.0	0.0
