15

C	0.0	0.0	0.0
C	-0.381271	-0.132115	-1.483376
Br	1.947113	0.0	0.0
H	0.317316	-0.828506	-1.952779
H	-1.391517	-0.53169	-1.458161
C	-0.482894	1.19817	0.667523
N	-0.595039	2.253713	1.176694
N	-0.405355	-1.229724	0.79184
O	-0.457997	-2.283223	0.173088
O	-0.530859	-1.095953	2.000176
C	-0.383552	1.220556	-2.17906
H	-1.190977	1.823758	-1.761278
H	0.5631	1.758727	-2.068272
H	-0.572864	1.085279	-3.2486
F	-2.37488	0.0	0.0
