15

C	0.0	0.0	0.0
C	-0.382887	-0.19826	-1.476231
Br	1.946979	0.0	0.0
H	0.329753	-0.894981	-1.923203
H	-1.383014	-0.619444	-1.433416
C	-0.483853	1.225264	0.614845
N	-0.596219	2.300693	1.080352
N	-0.403163	-1.194029	0.845295
O	-0.449672	-2.274825	0.275028
O	-0.534774	-1.005872	2.046373
C	-0.421385	1.12664	-2.222039
H	-0.605772	0.947127	-3.285634
H	-1.245384	1.720729	-1.824104
H	0.509829	1.694683	-2.131255
F	-2.37147	0.0	0.0
