15

C	0.0	0.0	0.0
C	-0.202244	0.242911	-1.539846
Br	1.950568	0.0	0.0
H	0.497906	-0.446085	-2.01571
H	0.219506	1.243769	-1.690946
C	-0.504555	1.031315	0.886955
N	-0.60993	1.965453	1.596251
N	-0.413043	-1.37559	0.456436
O	-0.45947	-2.245756	-0.403333
O	-0.543086	-1.545282	1.659766
C	-1.519228	0.137434	-2.292968
H	-1.274183	0.295215	-3.355212
H	-1.962107	-0.845379	-2.164621
H	-2.244332	0.866178	-1.953261
F	-2.26907	0.0	0.0
