15

C	0.0	0.0	0.0
C	-0.372702	-0.070435	-1.488038
Br	1.960082	0.0	0.0
H	0.333401	-0.738875	-1.9851
H	-1.379239	-0.478958	-1.49138
C	-0.481285	1.164188	0.724147
N	-0.597113	2.18918	1.292298
N	-0.390925	-1.268348	0.738033
O	-0.526424	-1.189147	1.950419
O	-0.421866	-2.295115	0.073577
C	-0.380577	1.311118	-2.12411
H	-0.584236	1.221616	-3.195821
H	-1.18008	1.899011	-1.670621
H	0.570354	1.839227	-2.003084
F	-2.356227	0.0	0.0
