16

C	0.0	0.0	0.0
C	-0.532025	-0.121031	-1.4199
Br	1.937249	0.0	0.0
H	-0.181146	0.794366	-1.906319
H	-1.623855	-0.034887	-1.273042
N	-0.585896	1.106329	0.605088
H	-0.375902	1.109383	1.597753
H	-1.626828	0.917474	0.48741
N	-0.26686	-1.309394	0.85539
O	-0.481468	-1.132287	2.049088
O	-0.171582	-2.404777	0.315013
C	-0.217827	-1.341171	-2.275019
H	0.822223	-1.665968	-2.199412
H	-0.423595	-1.091853	-3.321103
H	-0.854892	-2.178692	-1.996053
H	-3.026774	0.0	0.0
