17

C	-0.475552	0.012885	-1.43789
C	0.0	0.0	0.0
F	0.135365	0.975359	-2.13749
H	1.098569	0.0	0.0
N	-0.206636	-1.309077	-2.139914
O	0.959063	-1.492182	-2.452764
O	-1.157188	-2.061312	-2.325516
N	-1.97618	0.25186	-1.566794
O	-2.696949	-0.262431	-0.723969
O	-2.341198	0.9257	-2.5226
N	-0.429937	-1.198165	0.658834
H	0.221126	-1.434895	1.393269
H	-1.37741	-1.126934	1.000293
N	-0.496951	1.264966	0.582353
H	-0.443608	1.153349	1.588632
H	0.18284	1.983964	0.348272
Cl	3.358257	0.0	0.0
