17

C	-0.411042	-0.022369	-1.478099
C	0.0	0.0	0.0
F	-0.188036	1.157267	-2.072102
H	1.100807	0.0	0.0
N	0.283496	-1.088112	-2.306721
O	0.41085	-0.84266	-3.499764
O	0.622217	-2.107643	-1.724083
N	-1.896862	-0.323032	-1.617156
O	-2.235091	-1.445437	-1.964662
O	-2.640815	0.606971	-1.32063
N	-0.638471	-1.129105	0.663633
H	-0.528725	-0.946379	1.654339
H	-0.115378	-1.96965	0.444611
N	-0.423107	1.209659	0.663445
H	-1.374295	1.457872	0.410623
H	0.206694	1.965386	0.422262
Cl	3.37163	0.0	0.0
