17

C	-0.491725	0.018551	-1.430438
C	0.0	0.0	0.0
F	0.167361	-0.831267	-2.211985
H	1.094493	0.0	0.0
N	-1.970395	-0.346128	-1.533317
O	-2.676699	-0.087467	-0.564512
O	-2.340233	-0.850108	-2.583928
N	-0.383635	1.39905	-2.058242
O	-1.405719	2.069081	-2.133665
O	0.736315	1.709638	-2.426985
N	-0.387308	-1.297438	0.546401
H	0.368148	-1.644383	1.121684
H	-1.228961	-1.214654	1.099306
N	-0.406251	1.217428	0.667783
H	0.244144	1.418992	1.412415
H	-1.348443	1.156369	1.02399
Cl	3.328707	0.0	0.0
