17

C	-0.623038	0.006657	-1.3748
C	0.0	0.0	0.0
F	-1.961877	-0.14776	-1.29826
H	1.093024	0.0	0.0
N	-0.358143	1.305679	-2.108372
O	-1.305114	2.059721	-2.282978
O	0.804511	1.469086	-2.453196
N	-0.11645	-1.070105	-2.315222
O	-0.699958	-1.107972	-3.398407
O	0.800674	-1.782895	-1.942239
N	-0.426484	-1.24777	0.630224
H	0.358747	-1.629334	1.136996
H	-1.190939	-1.083258	1.273611
N	-0.400477	1.251139	0.620074
H	0.261832	1.490818	1.344534
H	-1.335746	1.200948	1.003472
Cl	3.340809	0.0	0.0
