17

C	-0.500205	-0.04163	-1.427408
C	0.0	0.0	0.0
F	0.097501	-1.015037	-2.124274
H	1.098557	0.0	0.0
N	-2.001155	-0.289668	-1.514206
O	-2.385734	-1.015384	-2.423009
O	-2.703462	0.267685	-0.683368
N	-0.247707	1.265422	-2.156868
O	0.923432	1.468119	-2.438842
O	-1.207548	1.992144	-2.38827
N	-0.491032	-1.250445	0.617806
H	0.201152	-1.969092	0.416993
H	-0.453293	-1.102919	1.619754
N	-0.417974	1.215511	0.638549
H	0.2436	1.465698	1.36131
H	-1.362041	1.155618	0.994983
Cl	3.366207	0.0	0.0
