17

C	-0.432831	0.073127	-1.457114
C	0.0	0.0	0.0
F	0.254216	0.99549	-2.137173
H	1.092459	0.0	0.0
N	-0.278938	-1.257761	-2.177503
O	-1.288827	-1.939809	-2.308409
O	0.852814	-1.522415	-2.547116
N	-1.91093	0.421971	-1.641242
O	-2.223841	0.928843	-2.711464
O	-2.669508	0.170299	-0.709344
N	-0.46092	-1.245786	0.564931
H	0.181752	-1.494432	1.306296
H	-1.384336	-1.125445	0.96025
N	-0.345388	1.204371	0.737495
H	0.355389	1.917377	0.58401
H	-1.27107	1.557405	0.540659
Cl	3.329145	0.0	0.0
