17

C	-0.556733	-0.138394	-1.414539
C	0.0	0.0	0.0
F	-1.792682	-0.665951	-1.432853
H	1.100282	0.0	0.0
N	-0.621574	1.195912	-2.128516
O	0.397519	1.870089	-2.061471
O	-1.657171	1.477765	-2.715242
N	0.286858	-1.034547	-2.316295
O	0.480595	-0.645701	-3.464815
O	0.626116	-2.102734	-1.83401
N	-0.441361	-1.144977	0.7538
H	0.274292	-1.40951	1.413883
H	-1.320553	-0.959402	1.216795
N	-0.542644	1.260083	0.548777
H	0.076882	2.011882	0.260022
H	-0.430299	1.185546	1.553725
Cl	3.345706	0.0	0.0
