17

C	-0.628245	-0.042591	-1.379661
C	0.0	0.0	0.0
F	-1.966348	0.033213	-1.314206
H	1.093453	0.0	0.0
N	-0.142631	1.10683	-2.242691
O	-0.925863	2.021859	-2.448064
O	1.004996	0.992164	-2.648915
N	-0.312198	-1.280193	-2.199135
O	0.481845	-2.092963	-1.743919
O	-0.90572	-1.354213	-3.271446
N	-0.530104	-1.15157	0.753904
H	0.066684	-1.94622	0.541419
H	-0.365141	-0.93374	1.731364
N	-0.41942	1.266629	0.553891
H	-1.33515	1.192121	0.978872
H	0.265914	1.584263	1.224866
Cl	3.364685	0.0	0.0
