17

C	-0.412528	-0.06412	-1.471573
C	0.0	0.0	0.0
F	0.153265	0.929744	-2.164461
H	1.097102	0.0	0.0
N	-0.083952	-1.350004	-2.212725
O	0.437763	-2.270577	-1.598379
O	-0.383514	-1.336922	-3.403768
N	-1.917021	0.070916	-1.635098
O	-2.357748	1.097576	-2.118194
O	-2.565485	-0.889531	-1.222956
N	-0.468187	-1.04938	0.866013
H	-1.4191	-1.30955	0.648289
H	0.131297	-1.856388	0.757924
N	-0.566085	1.273616	0.463012
H	-0.512774	1.221376	1.473269
H	0.055332	2.020356	0.171674
Cl	3.355582	0.0	0.0
