17

C	-0.487707	0.119647	-1.441137
C	0.0	0.0	0.0
F	-1.793708	0.462041	-1.495296
H	1.098894	0.0	0.0
N	0.229493	1.137709	-2.322417
O	0.422375	0.802707	-3.48874
O	0.462495	2.22575	-1.823796
N	-0.333903	-1.205593	-2.160717
O	-1.345371	-1.708991	-2.638605
O	0.79716	-1.666265	-2.171406
N	-0.431065	-1.264027	0.589198
H	0.260059	-1.98229	0.413036
H	-1.335716	-1.569069	0.247384
N	-0.482406	1.162151	0.7166
H	0.167619	1.326561	1.475845
H	-1.385548	0.944383	1.121959
Cl	3.379413	0.0	0.0
