10
Coordinates from ORCA-job run
  C   -0.01606604240211     -0.13541135140555      0.01600354673887
  C   1.03655959986870     -0.93155015852308      0.25189909530961
  H   1.01446319503006     -1.97141666203337     -0.04920655614774
  H   1.90277839083361     -0.54836551138696      0.76807976726577
  N   -1.24543928748249     -0.44028995774787     -0.52411537220910
  H   -1.25150979212423     -1.27941588320094     -1.08147330302140
  H   -1.69526641095033      0.34659338210498     -0.96650531369348
  N   0.06773908914997      1.28934853833469      0.43305999821176
  O   -0.77921396379983      2.04812028999536     -0.04213492092587
  O   0.96595522187665      1.62238731386272      1.19539305847157
