10
Coordinates from ORCA-job run
  C   0.03022617086580     -0.11008262926986     -0.07656998742018
  C   0.98928506653777     -0.96925368786549      0.29748747400365
  H   0.94691469714776     -2.00537425821594     -0.01419486251206
  H   1.82338980225952     -0.62766691585705      0.89005503963761
  N   -1.05032466394952     -0.30507216842196     -0.90739403761177
  H   -1.32463046913294     -1.26962376149081     -1.00325676982745
  H   -1.81831789036385      0.32146904397954     -0.72084527269287
  N   0.12208832929011      1.29871713692486      0.39025741264011
  O   1.17976362166031      1.68685344687956      0.86942005313423
  O   -0.89839466431495      1.98003379333714      0.27504095064871
