10
Coordinates from ORCA-job run
  C   0.00344437550969     -0.12856859568810     -0.04832236303774
  C   0.96544004474593     -0.98292309869175      0.32939546155162
  H   0.78071624941747     -2.04985517826973      0.32749535759685
  H   1.93889884366055     -0.61410052331782      0.61200669313780
  N   -1.25637607140233     -0.38487839822147     -0.54103930588263
  H   -1.91370769783124      0.36104599511634     -0.37193355407409
  H   -1.60869974517025     -1.29961079161466     -0.30886791631549
  N   0.29851222564044      1.32843089364901     -0.01333425932218
  O   1.46382807354942      1.68523185745445      0.10352509791562
  O   -0.67205629811969      2.08422783958373     -0.08892521156976
