10
Coordinates from ORCA-job run
  C   0.00633473000793     -0.12579049297927     -0.05526088425108
  C   0.97755734321964     -0.98324650625988      0.29037851448842
  H   1.94061890569075     -0.61427258173881      0.60653926020777
  H   0.81188324558696     -2.05145908246656      0.22734606093020
  N   -1.24175564420513     -0.37529886735188     -0.58041589760043
  H   -1.58166346828959     -1.30726212226950     -0.40511123352340
  H   -1.91402382499525      0.34915770097184     -0.37944884098135
  N   0.27547366880670      1.33185320035207      0.06374267655194
  O   -0.70724101013003      2.07422845580311      0.01714060415299
  O   1.43281605430801      1.70109029593887      0.21608974002492
