10
Coordinates from ORCA-job run
  C   -0.02026379293488     -0.12606367004112      0.05036272451605
  C   1.00571379894748     -0.97164121734879      0.22504998756702
  H   0.84468701639938     -2.04188233564952      0.19129782607994
  H   1.99430601297894     -0.59098438106968      0.42851742664532
  N   -1.36144640775002     -0.39153973750837     -0.11163835823696
  H   -1.85591089857208      0.32885790637152     -0.61525937911772
  H   -1.55884047912633     -1.32488442833082     -0.43511937588845
  N   0.25404968731018      1.33498994606226      0.08849191046073
  O   1.33056648891303      1.71549086021525      0.53039510143890
  O   -0.63286142616572      2.06865705729926     -0.35209786346483
