10
Coordinates from ORCA-job run
  C   -0.01695092182309     -0.13593489831169      0.01445918725912
  C   1.02657615739410     -0.93524952635964      0.28001246818256
  H   1.01203189624770     -1.97352133828883     -0.02685946719383
  H   1.87383901326112     -0.55518852285392      0.82893756204199
  N   -1.22759903616102     -0.43472975334250     -0.56921093103712
  H   -1.21660353362353     -1.27016160473077     -1.13197753821613
  H   -1.66203114631377      0.35579287263299     -1.02034086071412
  N   0.05537978244387      1.28593548298339      0.44311416299741
  O   0.92552910751359      1.61179301353361      1.24041841076002
  O   -0.77117131893898      2.05026427473735     -0.05855299407989
