10
Coordinates from ORCA-job run
  C   0.00333898731172     -0.13030604800179      0.04344822223151
  C   1.07700635658940     -0.90323471856076     -0.17506929809039
  H   0.97173064967602     -1.97858133541836     -0.24569110472497
  H   2.05731388488645     -0.46008038303482     -0.25398079425849
  N   -1.30497230665783     -0.48841243218150      0.27964266418313
  H   -1.97039085734082      0.22124021411356      0.01373551772452
  H   -1.54144479027885     -1.41230557153830     -0.04482002454883
  N   0.19592808304773      1.34251375831872      0.11589197153629
  O   1.33425103590439      1.77720397334875      0.23493260514724
  O   -0.82276104313822      2.03096254295449      0.03091024079999
