10
Coordinates from ORCA-job run
  C   0.00746325424466     -0.13619286621737      0.01771641474177
  C   1.16600040768770     -0.79024720229690     -0.14913625316950
  H   1.16903843292341     -1.83163695017168     -0.44566390725151
  H   2.10325496602927     -0.29057299880758      0.03928572094566
  N   -1.28540191256293     -0.60282989593123     -0.06318617873479
  H   -1.38259168928455     -1.44870435713098     -0.60154267411878
  H   -1.95622713954331      0.11180770323545     -0.30074739168721
  N   0.05539842611726      1.29746490005216      0.41001244826311
  O   1.11529469863377      1.75621797032888      0.81626706129980
  O   -0.99122944424529      1.93469369693924      0.27799475971144
