10
Coordinates from ORCA-job run
  C   0.01270722732661     -0.11070878709046     -0.08099578101629
  C   1.02017277786364     -0.97801869797245      0.09375989362825
  H   1.96202444633566     -0.64131750397632      0.49770601586699
  H   0.90647408702687     -2.01493520975238     -0.19659176962338
  N   -1.21801842769919     -0.29929224725740     -0.66892639076825
  H   -1.92536797555305      0.33594359578991     -0.33234269326783
  H   -1.51458975448863     -1.26159171073606     -0.69786639119967
  N   0.21190698597002      1.29909924231115      0.34786500226263
  O   1.34902954129428      1.67852277562093      0.59639360213663
  O   -0.80433890807622      1.99029854306306      0.43999851198092
