10
Coordinates from ORCA-job run
  C   -0.00073272990666     -0.12407715225479     -0.05875988412402
  C   1.09682444910209     -0.89426090203668     -0.05634127735032
  H   1.00889346961944     -1.97257127812123     -0.10079150431311
  H   2.07649933250006     -0.44313769331672     -0.03793833356001
  N   -1.32486078414716     -0.48021753317046     -0.18413816218441
  H   -1.96007690094494      0.18034263440099      0.23695333233448
  H   -1.51538235062439     -1.43976065995373      0.05626491961634
  N   0.17084894723397      1.35094832990334      0.02030824113368
  O   1.28444600505566      1.82028526693987     -0.17597249808906
  O   -0.83645943788809      2.00344898760941      0.30041516653643
