10
Coordinates from ORCA-job run
  C   0.01142046898856     -0.12458177991576     -0.05661948028399
  C   0.98690004969868     -0.96478526009473      0.31798416462351
  H   1.92760414259374     -0.57845526070514      0.67771688682249
  H   0.84869833706870     -2.03555431753847      0.23542628112824
  N   -1.20826871640267     -0.39519263522743     -0.63515558859869
  H   -1.53338892367313     -1.33666419827704     -0.48435666395022
  H   -1.90488502498292      0.31124520269900     -0.45403068761860
  N   0.24272274450898      1.33683868922846      0.09084477962418
  O   1.38405164968277      1.72948285612147      0.29596779256355
  O   -0.75385472748271      2.05766670370964      0.01222251568952
