10
Coordinates from ORCA-job run
  C   -0.00762763290308     -0.10620895554856     -0.08696985229142
  C   1.07186277979101     -0.85473749855610     -0.35581992075489
  H   2.05877281701258     -0.42187077394133     -0.30815241970235
  H   0.95999252873463     -1.88930315391854     -0.65528107347717
  N   -1.34397405455854     -0.42145714528625     -0.18895780217607
  H   -1.93261689990059      0.11898656326009      0.42628116835661
  H   -1.53410125278429     -1.41054240331865     -0.17107004113870
  N   0.19825290470739      1.30594677511559      0.33178880250550
  O   1.30247942527852      1.80839103140169      0.16712679349865
  O   -0.77204061537764      1.87179556079207      0.83905434517983
