10
Coordinates from ORCA-job run
  C   0.03371928227117     -0.10968783920789     -0.07501609162381
  C   0.97985228365645     -0.96536134752084      0.33826211683838
  H   1.78664209437961     -0.62049591583637      0.96571932938061
  H   0.95552046987651     -2.00112392210092      0.02353341354429
  N   -1.00963920343422     -0.30830370942637     -0.95109304560711
  H   -1.27460664117965     -1.27399204942990     -1.06065723319861
  H   -1.78818129885121      0.31402861008491     -0.79724473803855
  N   0.09978571824045      1.29884743506715      0.39704493273182
  O   -0.91673808961572      1.97689071903776      0.23615381794753
  O   1.13364538465663      1.69019801933247      0.92329749802545
