10
Coordinates from ORCA-job run
  C   0.01140115472048     -0.12606730074175     -0.05175822531196
  C   0.97712615916915     -0.96081646362811      0.35898092838837
  H   0.83222203162982     -2.03248016853437      0.30472738889736
  H   1.91342242034781     -0.56906529482556      0.72417610640847
  N   -1.20011856014913     -0.40632097221520     -0.64284834090983
  H   -1.89596101702726      0.30791237867963     -0.49200360352974
  H   -1.53206547555706     -1.34212101115658     -0.47306849391412
  N   0.24808228117498      1.33775033761467      0.05824672455388
  O   -0.74292101847564      2.06113150431729     -0.05826545983241
  O   1.38781202416685      1.73007699048998      0.27281297524998
