13

C	-0.498482	-0.095065	-1.433514
C	0.0	0.0	0.0
F	0.088728	0.847632	-2.237249
H	1.089721	0.0	0.0
H	-0.346635	-0.849656	0.589554
C	-0.15022	-1.435301	-1.953635
N	0.096932	-2.496868	-2.39053
C	-1.969489	0.042276	-1.528596
N	-3.140738	0.079027	-1.608376
N	-0.480073	1.226248	0.681299
O	-0.347044	1.247978	1.900284
O	-0.943069	2.135344	-0.00749
Br	3.364974	0.0	0.0
