13

C	-0.522104	0.027318	-1.432289
C	0.0	0.0	0.0
F	-0.183609	-1.196565	-1.985882
H	1.090755	0.0	0.0
H	-0.363881	-0.902579	0.490588
C	-1.996199	0.13046	-1.473256
N	-3.170137	0.156367	-1.483472
C	0.058738	1.089675	-2.269581
N	0.492116	1.937246	-2.957283
N	-0.479544	1.159832	0.777905
O	-0.446564	1.058445	1.998446
O	-0.851225	2.154745	0.151114
Br	3.356407	0.0	0.0
