13

C	-0.517847	-0.014034	-1.434056
C	0.0	0.0	0.0
F	-0.194837	1.222507	-1.970047
H	1.090788	0.0	0.0
H	-0.367894	0.894249	0.503273
C	0.080279	-1.053491	-2.288011
N	0.511503	-1.843922	-3.04243
C	-1.990551	-0.136683	-1.482833
N	-3.163881	-0.168497	-1.515712
N	-0.47787	-1.174383	0.757474
O	-0.818128	-2.169316	0.111316
O	-0.478647	-1.085228	1.979406
Br	3.356418	0.0	0.0
