13

C	-0.525188	0.036941	-1.431372
C	0.0	0.0	0.0
F	-0.202611	-1.188875	-1.989122
H	1.090788	0.0	0.0
H	-0.36674	-0.90296	0.487423
C	-1.997401	0.157621	-1.469459
N	-3.171292	0.187978	-1.494256
C	0.06728	1.094859	-2.266959
N	0.519438	1.928435	-2.959755
N	-0.477813	1.157707	0.783247
O	-0.461192	1.044829	2.003427
O	-0.82948	2.162447	0.1594
Br	3.357453	0.0	0.0
