13

C	-0.54316	0.000121	-1.415214
C	0.0	0.0	0.0
F	-1.934116	-0.069722	-1.383019
H	1.091817	0.0	0.0
H	-0.364446	0.879003	0.530552
C	-0.185299	1.283362	-2.049451
N	0.086184	2.30044	-2.569786
C	-0.04585	-1.094021	-2.265214
N	0.352181	-1.917924	-3.000813
N	-0.478139	-1.180887	0.760906
O	-0.67719	-2.223355	0.144785
O	-0.608543	-1.028371	1.970743
Br	3.349318	0.0	0.0
