13

C	-0.531277	0.015087	-1.418235
C	0.0	0.0	0.0
F	-1.920832	0.120819	-1.394399
H	1.091883	0.0	0.0
H	-0.376087	-0.876733	0.524888
C	-0.014755	1.09816	-2.273423
N	0.346476	1.905118	-3.046175
C	-0.203541	-1.276336	-2.053246
N	0.036749	-2.304352	-2.566699
N	-0.474407	1.18387	0.754215
O	-0.536309	2.256382	0.15932
O	-0.745356	1.008152	1.939553
Br	3.350332	0.0	0.0
