13

C	-0.533535	0.014153	-1.417051
C	0.0	0.0	0.0
F	-1.920501	0.099198	-1.401425
H	1.091851	0.0	0.0
H	-0.369261	-0.880956	0.523512
C	-0.024627	1.110639	-2.264023
N	0.319237	1.926895	-3.035279
C	-0.174859	-1.264853	-2.060784
N	0.068181	-2.289927	-2.580477
N	-0.474811	1.178441	0.7625
O	-0.641448	1.016439	1.968388
O	-0.638485	2.234199	0.153293
Br	3.3481	0.0	0.0
