16

C	-0.596273	0.038768	-1.391728
C	0.0	0.0	0.0
Cl	0.124854	1.313028	-2.394543
H	1.099435	0.0	0.0
H	-1.670513	0.217053	-1.360238
N	-0.439557	-1.286767	-2.086027
O	0.633359	-1.58127	-2.591699
O	-1.431292	-2.02091	-2.031566
C	-0.490898	-1.216062	0.764912
H	-0.132006	-2.139854	0.308826
H	-1.584242	-1.258781	0.84863
H	-0.056069	-1.174797	1.767982
N	-0.497864	1.239435	0.651632
H	-0.470467	1.071089	1.652483
H	0.229567	1.932007	0.487585
F	2.643431	0.0	0.0
