16

C	-0.30694	-0.035246	-1.491591
C	0.0	0.0	0.0
Cl	0.30155	-1.478593	-2.310189
H	1.097209	0.0	0.0
H	0.13385	0.833581	-1.974724
N	-1.787748	0.080118	-1.733355
O	-2.219088	1.238074	-1.798644
O	-2.489961	-0.924722	-1.728864
C	-0.611334	-1.14499	0.778451
H	-1.703657	-1.066108	0.85182
H	-0.197396	-1.109533	1.787221
H	-0.363439	-2.112422	0.336593
N	-0.355471	1.289431	0.591281
H	-1.185438	1.701756	0.176785
H	0.429677	1.911673	0.437791
F	2.616354	0.0	0.0
