16

C	-0.290931	0.017716	-1.4762
C	0.0	0.0	0.0
Cl	-2.037669	0.240421	-1.915801
H	1.097722	0.0	0.0
H	0.030194	-0.902578	-1.956734
N	0.460285	1.097091	-2.207188
O	0.322919	2.25602	-1.827944
O	1.150029	0.734832	-3.156205
C	-0.499054	-1.298755	0.608343
H	-0.094224	-2.163983	0.074341
H	-0.138575	-1.337221	1.637996
H	-1.594398	-1.366286	0.619537
N	-0.463215	1.146768	0.765394
H	0.213941	1.887865	0.638756
H	-1.351964	1.484847	0.41178
F	2.608362	0.0	0.0
