16

C	-0.443303	-0.011528	-1.436561
C	0.0	0.0	0.0
Cl	-2.229979	-0.052239	-1.663985
H	1.09518	0.0	0.0
H	-0.038447	-0.875241	-1.960057
N	0.096715	1.173877	-2.193247
O	1.150204	0.963697	-2.788188
O	-0.503681	2.240534	-2.148967
C	-0.413769	-1.296899	0.684749
H	0.081172	-1.331193	1.659113
H	-1.499381	-1.373475	0.831749
H	-0.073592	-2.169605	0.117405
N	-0.436116	1.207184	0.6803
H	0.2839	1.456693	1.346048
H	-1.312831	1.069897	1.170756
F	2.60652	0.0	0.0
