16

C	-0.601921	-0.009698	-1.390011
C	0.0	0.0	0.0
Cl	0.107557	1.234531	-2.437155
H	1.102771	0.0	0.0
H	-1.67772	0.161705	-1.360992
N	-0.437085	-1.356803	-2.039675
O	0.643187	-1.664271	-2.523188
O	-1.426677	-2.093416	-1.968827
C	-0.486322	-1.189012	0.80889
H	-0.143914	-2.130331	0.376448
H	-1.579093	-1.220639	0.912073
H	-0.034222	-1.11985	1.80307
N	-0.490377	1.263611	0.608475
H	-0.525986	1.114039	1.612083
H	0.265518	1.930085	0.471124
F	2.64158	0.0	0.0
