17

C	0.0	0.0	0.0
C	-0.570673	0.011168	-1.419823
F	1.36124	0.0	0.0
H	-1.66588	-0.121591	-1.328789
C	-0.503907	1.130923	0.849388
H	-1.596063	1.136619	0.832883
H	-0.10638	2.068373	0.456104
H	-0.133596	0.986431	1.863275
N	-0.367739	-1.343969	0.640166
O	-0.804542	-2.229109	-0.086017
O	-0.111767	-1.444707	1.834555
C	0.070478	-0.944206	-2.313344
N	0.591491	-1.675336	-3.070554
N	-0.32276	1.393941	-1.984887
O	-1.286078	2.146218	-2.064098
O	0.837165	1.663779	-2.293137
Cl	-3.59722	0.0	0.0
