15

C	0.0	0.0	0.0
C	-0.457289	-0.327892	-1.449925
F	1.386776	0.0	0.0
H	-0.006048	0.477196	-2.054259
C	-0.43397	1.350038	0.390817
N	-0.690099	2.467326	0.646129
C	-0.454488	-1.012841	0.960526
N	-0.745791	-1.824886	1.756589
N	-1.861131	-0.338288	-1.683163
H	-2.391117	-0.916741	-1.035008
H	-2.294469	0.574452	-1.619797
N	0.072506	-1.649488	-1.739164
H	-0.426054	-1.989877	-2.551446
H	1.062656	-1.611543	-1.940315
Br	-4.672769	0.0	0.0
