15

C	0.0	0.0	0.0
C	-0.538131	0.051139	-1.450464
F	1.375863	0.0	0.0
H	-1.505341	0.555363	-1.396112
C	-0.388436	1.227466	0.725824
N	-0.532459	2.242484	1.297934
C	-0.419853	-1.194877	0.753038
N	-0.610223	-2.155892	1.400394
N	-0.660788	-1.322947	-1.938106
H	-0.879201	-1.261716	-2.927762
H	-1.494748	-1.708408	-1.495479
N	0.379365	0.860346	-2.214377
H	1.193349	0.310596	-2.461286
H	-0.075779	1.184091	-3.057088
Br	-3.55313	0.0	0.0
