15

C	0.0	0.0	0.0
C	-0.548742	0.080784	-1.440644
F	1.376009	0.0	0.0
H	-1.537296	-0.384845	-1.409038
C	-0.418414	1.125463	0.855094
N	-0.635685	2.013624	1.591812
C	-0.392966	-1.284506	0.617115
N	-0.566423	-2.352799	1.071897
N	0.328796	-0.707861	-2.271788
H	1.161319	-0.172334	-2.490934
H	-0.148002	-0.957599	-3.127308
N	-0.613593	1.492083	-1.824855
H	-1.425288	1.885719	-1.349635
H	-0.840236	1.513294	-2.814152
Br	-3.59869	0.0	0.0
