15

C	0.0	0.0	0.0
C	-0.451625	0.40128	-1.433408
F	1.387137	0.0	0.0
H	0.036519	-0.350822	-2.075484
C	-0.45337	0.958705	1.014534
N	-0.742282	1.730213	1.85075
C	-0.43128	-1.370195	0.317339
N	-0.679435	-2.500868	0.515398
N	0.04013	1.753422	-1.636822
H	1.029892	1.756484	-1.843769
H	-0.473722	2.134482	-2.42047
N	-1.851027	0.377161	-1.690606
H	-2.241138	-0.556297	-1.712387
H	-2.421047	0.875772	-1.009411
Br	-4.656932	0.0	0.0
