15

C	0.0	0.0	0.0
C	-0.541154	0.033418	-1.446836
F	1.376173	0.0	0.0
H	-1.522628	-0.446381	-1.407516
C	-0.42243	1.146774	0.82559
N	-0.626831	2.064024	1.530611
C	-0.38672	-1.264089	0.656835
N	-0.550764	-2.312797	1.156087
N	0.350768	-0.768689	-2.25109
H	1.173411	-0.226163	-2.484849
H	-0.121331	-1.051516	-3.099423
N	-0.623766	1.430558	-1.870848
H	-1.442517	1.825226	-1.408442
H	-0.846474	1.422618	-2.862443
Br	-3.571953	0.0	0.0
