15

C	0.0	0.0	0.0
C	-0.426662	-0.353809	-1.458946
F	1.386932	0.0	0.0
H	0.116175	0.393669	-2.062094
C	-0.438803	1.359414	0.346858
N	-0.671466	2.48252	0.600035
C	-0.462168	-0.985579	0.98274
N	-0.741397	-1.77254	1.807548
N	-1.812951	-0.260577	-1.771694
H	-2.443317	-0.706371	-1.1038
H	-2.132589	0.6975	-1.827904
N	0.018891	-1.718885	-1.67967
H	-0.440587	-2.041391	-2.522893
H	1.022873	-1.758209	-1.803179
Br	-4.594155	0.0	0.0
