15

C	0.0	0.0	0.0
C	-0.366446	0.14239	-1.538862
F	1.384386	0.0	0.0
H	0.225013	1.022989	-1.822486
C	-0.452563	1.161507	0.769309
N	-0.714608	2.160674	1.329348
C	-0.4598	-1.272334	0.559895
N	-0.695853	-2.344929	0.976256
N	-1.729053	0.371044	-1.859696
H	-2.394834	-0.23789	-1.379923
H	-2.024857	1.305776	-1.609052
N	0.137388	-1.006453	-2.264992
H	-0.548964	-1.750718	-2.232027
H	1.009368	-1.338544	-1.870956
Br	-4.379226	0.0	0.0
