14

C	0.0	0.0	0.0
C	-0.496693	0.048518	-1.45294
Br	1.969658	0.0	0.0
H	0.001849	-0.766607	-1.986474
H	-1.569948	-0.161271	-1.387501
C	-0.399927	1.165773	0.790463
N	-0.574962	2.129385	1.440657
C	-0.382889	-1.250765	0.659975
N	-0.552883	-2.299363	1.163168
C	-0.272349	1.394037	-2.123211
H	-0.609826	1.337444	-3.16139
H	0.778777	1.695219	-2.120736
H	-0.866784	2.163247	-1.625349
Br	-3.58627	0.0	0.0
