14

C	0.0	0.0	0.0
C	-0.492435	0.033022	-1.455246
Br	1.969963	0.0	0.0
H	0.026967	0.861337	-1.946771
H	-1.560979	0.261431	-1.383663
C	-0.383044	1.215118	0.723085
N	-0.554234	2.234013	1.283234
C	-0.405168	-1.206131	0.722721
N	-0.578754	-2.222013	1.28862
C	-0.291869	-1.28289	-2.188775
H	0.749347	-1.615493	-2.17713
H	-0.600921	-1.164714	-3.230324
H	-0.920544	-2.056626	-1.743799
Br	-3.565913	0.0	0.0
