14

C	0.0	0.0	0.0
C	-0.480187	0.05703	-1.458276
Br	1.969787	0.0	0.0
H	-1.553937	-0.147907	-1.402737
H	0.022328	-0.759099	-1.986054
C	-0.405579	1.162918	0.791885
N	-0.574449	2.149805	1.4079
C	-0.387975	-1.26212	0.635054
N	-0.543652	-2.335532	1.088688
C	-0.237633	1.398986	-2.128549
H	-0.56582	1.340886	-3.169615
H	0.816472	1.689036	-2.12029
H	-0.827834	2.174975	-1.636947
Br	-3.54678	0.0	0.0
