12
Coordinates from ORCA-job run
  C   -0.69809626852619     -0.12219179336697     -0.00542638397205
  C   0.59887527274079      0.32057668936357     -0.14606767261024
  C   -1.73478162183038      0.74918737751305     -0.49293349248361
  N   -2.61271248961872      1.43506845269158     -0.87250467205225
  N   -1.11938482680204     -1.31038168541727      0.46830405619931
  H   -2.09904790779670     -1.43461026173067      0.66241533647313
  H   -0.43867455761352     -1.90680500663929      0.91511811578817
  C   0.90249881157116      1.58835706213973     -0.70897404236860
  N   1.12414502329136      2.64343394011816     -1.18092628788694
  N   1.73192057463991     -0.45076257750192      0.32996716287861
  O   1.49998580401101     -1.55541144863052      0.83587336290067
  O   2.84527218593332      0.04353925146055      0.19515451713381
