12
Coordinates from ORCA-job run
  C   -0.69306201026445     -0.13949855933158     -0.04475255426374
  C   0.59433626263291      0.34848542260339     -0.09213289227413
  C   -1.73578372598901      0.74337179261204     -0.49738881828518
  N   -2.61958830916095      1.43562243494004     -0.85113981471763
  N   -1.09647083931721     -1.37607045891405      0.30423861203120
  H   -0.41620684449827     -1.99165146240429      0.72487235109246
  H   -2.07874275989676     -1.54255352232007      0.44714497263892
  C   0.88162602396083      1.66907188104794     -0.52742654390668
  N   1.08728067998835      2.76800514313785     -0.89511409348884
  N   1.73075401255900     -0.43225623676495      0.36050934168970
  O   2.83224495867950      0.10358560718263      0.32173740082114
  O   1.51361255130607     -1.58611204178894      0.74945203866279
