12
Coordinates from ORCA-job run
  C   -0.59535238059270     -0.27271198540928     -0.14426456689732
  C   0.61457469626728      0.30341295682625      0.14016091113181
  C   -0.86781610806436     -0.96953050297204     -1.37221586301579
  N   -1.25343595169687     -1.57839730141653     -2.30226338369188
  N   -1.66531364746783     -0.17645312325152      0.68631133188500
  H   -2.43761912097327     -0.80679943142912      0.54574243732715
  H   -1.52520251405884      0.17552705835095      1.62258312034022
  C   0.80027513147283      0.95849574069526      1.38424477678534
  N   0.81489854112600      1.45938963843444      2.45037019086565
  N   1.74747902631605      0.29923431641424     -0.77717957746968
  O   1.60890406980724     -0.25761787270167     -1.86043390712704
  O   2.75960825786447      0.86645050645903     -0.37405547013344
