12
Coordinates from ORCA-job run
  C   -0.69144743813291     -0.12686806741642      0.07563512436209
  C   0.58186942082176      0.37046152042070     -0.09791227764801
  C   -1.78017694419192      0.78855570905406     -0.14423835880250
  N   -2.70109288139438      1.50028653700470     -0.31927112300191
  N   -1.04914139425300     -1.35677324101831      0.49020457942316
  H   -2.01617808615972     -1.62967455365959      0.43343746083657
  H   -0.32799101077304     -2.05863344276797      0.56582551893732
  C   0.81291331693135      1.71230438381580     -0.50075426812935
  N   0.97041371468212      2.82913452935176     -0.83712169513132
  N   1.76102556298222     -0.45762743116302      0.06699233154489
  O   1.59055907773895     -1.63204166108768      0.41702757799973
  O   2.84924666174858      0.06287571746598     -0.14982487039067
