12
Coordinates from ORCA-job run
  C   -0.69173779563658     -0.14814239477997     -0.04531262472551
  C   0.59543809159720      0.33783062990377     -0.11852359191322
  C   -1.72628934158326      0.67497090928998     -0.61460292087956
  N   -2.60197915885928      1.32480747019281     -1.05764572112722
  N   -1.10083125380200     -1.33688636915629      0.43718748183466
  H   -0.42714362274560     -1.90184233760049      0.93290100900248
  H   -2.08540722717885     -1.49083614296400      0.57702709138877
  C   0.88999781183194      1.59732609274072     -0.70481949277477
  N   1.10472556935995      2.64318756968667     -1.19995493513306
  N   1.72210266565942     -0.37758393215743      0.45007851830112
  O   1.50113621028484     -1.48580653146570      0.95317311650051
  O   2.81998805107221      0.16397503630991      0.39049206952579
