12
Coordinates from ORCA-job run
  C   -0.69601358589875     -0.13211272423083      0.01441002551604
  C   0.58406102947384      0.36707477100294     -0.08649970242715
  C   -1.75562923123206      0.69569382293097     -0.49885255805522
  N   -2.65123546137764      1.33788983201442     -0.91201292013029
  N   -1.09311338782178     -1.27649401326389      0.60310689870565
  H   -0.38022176509764     -1.93303902807796      0.88499885173449
  H   -2.03732331636454     -1.59348469866709      0.45844524002440
  C   0.85517448676435      1.62036946444646     -0.69642741941245
  N   1.05005350606104      2.66494084057328     -1.20240401423489
  N   1.74153271589520     -0.38570510632988      0.35986302602504
  O   2.84429574662662      0.11512692041407      0.17317570800794
  O   1.53841926297136     -1.47926008081252      0.90119686424644
