12
Coordinates from ORCA-job run
  C   -0.69052388860960     -0.14696857095607      0.03695432155572
  C   0.57511216937900      0.38985073229775     -0.05274093775052
  C   -1.78997944309381      0.73495336467096     -0.25477380302175
  N   -2.71830864704360      1.41835965170660     -0.49167733882479
  N   -1.03765021301031     -1.38604575394323      0.43293233147057
  H   -0.30251243953871     -2.06633293556638      0.55759010626416
  H   -1.98744012876278     -1.69075434576362      0.29943805263046
  C   0.79157096133916      1.73735749186643     -0.44557404765275
  N   0.93490444718368      2.85921249291333     -0.77090171609700
  N   1.76639222615054     -0.40733917382305      0.16965188295643
  O   2.84929437484735      0.13454970307728     -0.01792870433792
  O   1.60914058115906     -1.57784265648000      0.53802985280739
