12
Coordinates from ORCA-job run
  C   -0.60470235894818     -0.27986241329664     -0.07508748070156
  C   0.64512876281429      0.25344148354637      0.09736474327275
  C   -1.01151842840146     -0.96805992293673     -1.27032977293044
  N   -1.51230963481418     -1.53698272660436     -2.17012950323706
  N   -1.55113296475801     -0.25640182612229      0.89863290871701
  H   -1.40367108416554      0.32751909762214      1.70909549194161
  H   -2.50516339792725     -0.44934269157221      0.64136678868521
  C   0.95245160275146      0.94393377503726      1.29688670305397
  N   1.06953792791972      1.49099888346169      2.33349714908012
  N   1.70143098836560      0.17398401531261     -0.90480334978241
  O   1.47909472599260     -0.46475410823430     -1.92711940138196
  O   2.74185386117096      0.76552643378647     -0.62837427671724
