12
Coordinates from ORCA-job run
  C   -0.60465037768704     -0.19305509584740     -0.21611834005277
  C   0.64140564029643      0.15040606268575      0.23788492830743
  C   -0.88177591430349     -0.51674107399290     -1.58991370581069
  N   -1.27864952648093     -0.78646430918762     -2.66389211566806
  N   -1.67756956230162     -0.31387325865658      0.60775541473312
  H   -2.59454925774691     -0.33875493633047      0.19280858334666
  H   -1.61043642584466      0.03741053693388      1.55199318345295
  C   0.81582707101196      0.49597953023976      1.60202288927037
  N   0.81526897358004      0.75826936981399      2.75068981897787
  N   1.82159353482239      0.21722261768388     -0.61490795600929
  O   2.84454574247535      0.63034528201918     -0.07469945757075
  O   1.70999010217848     -0.13874472536147     -1.78262324297687
