12
Coordinates from ORCA-job run
  C   -0.69063514831652     -0.14886596568225     -0.04901969859871
  C   0.57889681243288      0.38499069469211     -0.01465983061741
  C   -1.73502648584136      0.69795403756772     -0.56281389735213
  N   -2.61869083151079      1.35422004541213     -0.97972836394636
  N   -1.09638344712112     -1.34755914068919      0.41168716533601
  H   -2.02000375837837     -1.66976059687194      0.17461909680273
  H   -0.38695498178018     -2.01168409951934      0.68439921076810
  C   0.85681470894854      1.69156634437078     -0.49627751377151
  N   1.05682575791769      2.77836743011131     -0.90106674382551
  N   1.72190277683411     -0.37615134276511      0.45348128707225
  O   2.81874645673918      0.16832297301010      0.40380041274778
  O   1.51350814007592     -1.52040037963632      0.87457887538478
