12
Coordinates from ORCA-job run
  C   -0.69291343979487     -0.14583802147527     -0.03258316522538
  C   0.58896349678379      0.35430039883800     -0.10010435671145
  C   -1.75152087290871      0.72967618042933     -0.46193478815375
  N   -2.64691101243095      1.41683328862726     -0.79567765320337
  N   -1.07843035885903     -1.38726503741820      0.31959741027895
  H   -0.38608321862863     -1.99551836545919      0.73109226778667
  H   -2.05690789288032     -1.56530812375660      0.47361082708307
  C   0.85606127660241      1.67904861085831     -0.53598081870254
  N   1.04802209116935      2.78115935562291     -0.90146588411394
  N   1.74116891392803     -0.41872210095030      0.32473139379156
  O   2.83991300220011      0.11787340155862      0.24258192321812
  O   1.53863801481882     -1.56723958687487      0.73713284395205
