12
Coordinates from ORCA-job run
  C   -0.68357981641021     -0.15372978067470     -0.15160226127020
  C   0.53277116637344      0.39611038546841      0.18626104633066
  C   -1.71497199729990      0.76885045551852     -0.54389231833645
  N   -2.56487958750161      1.50957964208367     -0.88148950398368
  N   -1.05578687637483     -1.44985670879698     -0.06742205833392
  H   -0.31817003790740     -2.12426863796304      0.07441061002007
  H   -1.88744323224125     -1.73400337531365     -0.56009206495628
  C   0.78979817802125      1.78908668878941      0.08412381398182
  N   0.98737925788722      2.94476122622527     -0.01804391545641
  N   1.67718168428871     -0.43201116370254      0.53307070420875
  O   2.73985265646989      0.13878803860867      0.74312099095782
  O   1.49784860469469     -1.65330677024304      0.60055495683783
