12
Coordinates from ORCA-job run
  C   -0.67253907872518     -0.18442253601123     -0.14300789669010
  C   0.59130410116849      0.35689459573314     -0.04609680757021
  C   -1.62650639063419      0.54528029664476     -0.93642215065288
  N   -2.43494017705188      1.12669996328740     -1.56413499287569
  N   -1.11286005050289     -1.34804748267125      0.36930186225190
  H   -0.50885738911434     -1.83444426716291      1.01599883719608
  H   -2.09618335189398     -1.56077180772249      0.33687271563671
  C   0.93478118895186      1.58223633014723     -0.67522142168796
  N   1.19730931640373      2.59758135718651     -1.20956299198925
  N   1.63819527540189     -0.26267621283608      0.74378566295036
  O   2.71969216221312      0.31029976026820      0.79593831579759
  O   1.36960439378336     -1.32762999686328      1.31354886763345
