12
Coordinates from ORCA-job run
  C   -0.69463554867557     -0.12154417330909      0.06250257625202
  C   0.58120092892617      0.34081562857612     -0.17179681360938
  C   -1.77119540059409      0.80359836968439     -0.17309011989365
  N   -2.68766930668875      1.51652270014035     -0.36522083594802
  N   -1.06935679493154     -1.36897309377336      0.40682149754185
  H   -2.01892596198604     -1.52610591278804      0.70137771124548
  H   -0.34655146564861     -2.01760556602907      0.68217162992768
  C   0.83030745967566      1.67923964356740     -0.57525103966180
  N   1.00077709032160      2.79683529679395     -0.90173076301464
  N   1.75489005402923     -0.48288635459525      0.05510638518480
  O   2.84987964088833      0.03417728396252     -0.13352205892630
  O   1.57127930468362     -1.65307382222991      0.41163183090196
