12
Coordinates from ORCA-job run
  C   -0.69949502883766     -0.16255842477704      0.05331648068922
  C   0.56000922781553      0.38998684982707     -0.05013055204731
  C   -1.80344877257959      0.75230545699996     -0.08795560435855
  N   -2.68810294380788      1.51178151936970     -0.24061171364200
  N   -1.01855454037048     -1.44440858910391      0.29517916671897
  H   -1.97926661582419     -1.74305756544171      0.29158486915343
  H   -0.26537772412828     -2.11123992451639      0.38787757792927
  C   0.75613444881591      1.77370567351776     -0.30071243362307
  N   0.91566676091813      2.92698110050307     -0.47839187640251
  N   1.76335068291618     -0.41750549997391      0.02434393086226
  O   2.83228125538536      0.14356607809482     -0.18159514253569
  O   1.62680324969698     -1.61955667449940      0.28709529725597
