12
Coordinates from ORCA-job run
  C   -0.69000854002741     -0.15747121824920      0.04062333349232
  C   0.56761210031648      0.39601561305294     -0.06161385660852
  C   -1.80401498076603      0.72124218510583     -0.20192488257523
  N   -2.74239154405594      1.40391221241193     -0.39823189481210
  N   -1.01357923595864     -1.40977199234183      0.41418720425056
  H   -0.26640079382518     -2.08359218148817      0.49558262162797
  H   -1.96326406445670     -1.72346140317487      0.29961756201860
  C   0.76267762201494      1.75529262521315     -0.42277262753872
  N   0.89442312356721      2.88634993051159     -0.72020065972990
  N   1.77216458288172     -0.38904687811123      0.13202589676136
  O   1.63643987045220     -1.57975469029771      0.43877583152400
  O   2.84634185985733      0.18228579736756     -0.01606852841034
