12
Coordinates from ORCA-job run
  C   -0.66992838813572     -0.15064893829203     -0.17356640877085
  C   0.57910357349562      0.37955351878474      0.06572230516760
  C   -1.68399689356244      0.76133285922985     -0.63323747655760
  N   -2.54291503659844      1.47607516448456     -1.00286673772665
  N   -1.04966517911257     -1.43924115838391     -0.09159881778208
  H   -2.02732563323921     -1.66820377876734     -0.16160320716575
  H   -0.40405429586956     -2.10019662072728      0.31448376936414
  C   0.85314107015720      1.76240687877947     -0.10519678243990
  N   1.05501370570390      2.91226043550941     -0.25452064050080
  N   1.67906560447902     -0.43107570173377      0.55349207787988
  O   2.74454201907703      0.13605993701152      0.76566215831063
  O   1.46901945360517     -1.63832259589521      0.72222976022138
