12
Coordinates from ORCA-job run
  C   -0.60849871039136     -0.21624938499867     -0.18593658557687
  C   0.64042170563193      0.18236970657671      0.21148799253836
  C   -0.88698137132308     -0.75425927523594     -1.49007922724859
  N   -1.28726469876877     -1.18999190734212     -2.50695115596257
  N   -1.68358390556254     -0.19094042983842      0.64339858497652
  H   -1.61016414364473      0.29843614600316      1.52349761501496
  H   -2.60193834025893     -0.26933915038793      0.23860194561545
  C   0.82104052797973      0.73746007468342      1.50361471763647
  N   0.83277584515594      1.17798363186237      2.59600778696034
  N   1.82417224498197      0.09278931227382     -0.63582510880786
  O   1.71304587500082     -0.45765913367393     -1.72552871839782
  O   2.84797497119902      0.58940041007754     -0.17228784674839
