12
Coordinates from ORCA-job run
  C   -0.66935088812905     -0.14620996814841     -0.21692436601833
  C   0.54639294301812      0.38907788328592      0.14602761617518
  C   -1.70018869365250      0.77395827196955     -0.60917002679580
  N   -2.57858820055947      1.47637122590259     -0.95792900998656
  N   -1.04207871617761     -1.44279622428776     -0.16988876038715
  H   -0.30379678777617     -2.11599559075786     -0.02245557947340
  H   -1.87056265223089     -1.71782412537382     -0.67439208455863
  C   0.79243222534150      1.78781987878198      0.16013806948201
  N   1.00175512463557      2.94544588428954      0.20618381690478
  N   1.65152848982622     -0.43238472179059      0.60084311261556
  O   2.69208767992738      0.13993910342241      0.90409104769205
  O   1.47936947577689     -1.65740161729354      0.63447616435031
