12
Coordinates from ORCA-job run
  C   -0.61226116184436     -0.18181552041091     -0.20403348046312
  C   0.64713359919753      0.14355361666632      0.22563359569570
  C   -0.91218007724891     -0.55162025021468     -1.56101154074420
  N   -1.33581745568241     -0.85137999824902     -2.61691045710063
  N   -1.67927813586248     -0.24064129378433      0.63387339982357
  H   -1.59121631321811      0.14122693341717      1.56448710858779
  H   -2.60195421700667     -0.25706519582026      0.23129465511862
  C   0.84820662238417      0.53191959192667      1.57432170209010
  N   0.87238736334064      0.83424279469155      2.71251762767154
  N   1.81970075446479      0.14248351718834     -0.64081988908605
  O   2.86161315607415      0.53891143552286     -0.12490626505519
  O   1.68366586540166     -0.24881563093371     -1.79444645653811
