12
Coordinates from ORCA-job run
  C   -0.60367864865496     -0.24071123305866     -0.16430891761116
  C   0.61133236480366      0.29902963667684      0.16584167048210
  C   -0.97458493964248     -0.58702041655067     -1.50983331659180
  N   -1.43196987144766     -0.94393130247360     -2.53329694764832
  N   -1.58823663813942     -0.44114268344241      0.74967144833886
  H   -1.36436561687498     -0.36695318189709      1.73157825515324
  H   -2.35272489438206     -1.04708942659491      0.50046792296117
  C   0.90853554413859      0.57312769901497      1.52479759562068
  N   1.02238656130907      0.74840555607257      2.68410767704401
  N   1.65505707613709      0.59153693774019     -0.80838477880967
  O   2.71856049890829      0.99402732879775     -0.34349397548460
  O   1.39968856384486      0.42072108571501     -1.99514663345451
