12
Coordinates from ORCA-job run
  C   -0.60421541460449     -0.27331646065818     -0.07872161891827
  C   0.63574173460101      0.28431097968372      0.08929368369698
  C   -0.98950909252527     -0.98884001535887     -1.26427796090075
  N   -1.46745577999775     -1.58802454349759     -2.15690657487141
  N   -1.60497067147576     -0.12349899410100      0.82746458521377
  H   -1.38267185442427      0.23372127513435      1.74561266969722
  H   -2.40527279682515     -0.72933329497012      0.75400750452172
  C   0.92422225420543      0.99874421622359      1.27927395545375
  N   1.02779257902726      1.54306343235724      2.31875589894317
  N   1.68579414378289      0.22481724527473     -0.92063295531375
  O   1.54146927935060     -0.56051522915354     -1.85104230023822
  O   2.63907561888550      0.97787138906568     -0.74282688728420
