12
Coordinates from ORCA-job run
  C   -0.58766017358791     -0.26469480070785     -0.18441156630548
  C   0.60794052728607      0.30900869277383      0.15982499200490
  C   -0.71021898942640     -1.29978475725738     -1.17504115440793
  N   -0.98693732552054     -2.15278886319331     -1.93656949335940
  N   -1.77218698178243      0.14178343034626      0.34039864857049
  H   -1.76644553269147      0.75828672129633      1.14003367664756
  H   -2.57500900648716     -0.45500620024095      0.22784888510012
  C   0.64079336463267      1.30138714974276      1.17201016866778
  N   0.51971348965453      2.10473127303043      2.02507512641678
  N   1.88295739677609     -0.06008522089014     -0.44230461101495
  O   1.87382085521931     -0.87640256636033     -1.35668691136423
  O   2.87323237592723      0.49256514146034      0.02982223904438
