12
Coordinates from ORCA-job run
  C   -0.60849924550582     -0.20832086995326     -0.18941979788397
  C   0.64553243870991      0.17040924829049      0.21151525959652
  C   -0.91325951871940     -0.63830951738328     -1.52741930758880
  N   -1.33982058510100     -0.99266737317986     -2.56505700725409
  N   -1.66308240300263     -0.26750713459019      0.66423741174867
  H   -2.58949973770981     -0.32584260821065      0.27444860911424
  H   -1.57575187608585      0.15498004480699      1.57730070532142
  C   0.85000793564417      0.61297905011012      1.54294307979240
  N   0.87610615433833      0.95675751410204      2.66938403473673
  N   1.80695833833039      0.17514023108436     -0.66942778008443
  O   2.84335782859446      0.61702740664117     -0.17994795106001
  O   1.66795067050725     -0.25564599171793     -1.80855725643867
