12
Coordinates from ORCA-job run
  C   -0.53405619914216     -0.40492759585801      0.01722151616586
  C   0.55301923539708      0.42530713595008     -0.05878949188056
  C   -0.44230485222400     -1.83679166888551     -0.07736075536569
  N   -0.54759030447729     -3.00794136007434     -0.11654623424317
  N   -1.80493921514443      0.06182737461185      0.12680655686740
  H   -2.52558246340403     -0.58116304691876      0.41130109010545
  H   -1.94884832575879      1.03696962456995      0.34637899347483
  C   0.37347561403142      1.82569318787704      0.07181575458550
  N   0.07935324868614      2.95989610761918      0.19296553366844
  N   1.91761022602440     -0.04816935236166     -0.25463383801190
  O   2.09184993016589     -1.24916847201267     -0.42778347735832
  O   2.78901310584576      0.81746806548285     -0.23037564800783
