12
Coordinates from ORCA-job run
  C   -0.63855234125379     -0.21516429863944     -0.08076129891529
  C   0.68762129015163      0.10211561235561      0.00270367906919
  C   -1.48096592749915     -0.19805582488386      1.08263375286856
  N   -2.29247397894804     -0.15052203122699      1.93392112211209
  N   -1.29554703787357     -0.44702586480848     -1.24754733126097
  H   -2.19503414363378     -0.89288306631116     -1.20324925846081
  H   -0.77477176024628     -0.56343755703785     -2.10199907852510
  C   1.53904876690271      0.18985186798384     -1.11902818300361
  N   2.20669211416351      0.30943417759260     -2.08403250579032
  N   1.28165521511929      0.50245475637292      1.28637866544274
  O   0.89935676283918     -0.08191092405688      2.29431408327603
  O   2.06297104027829      1.44614315265972      1.23666635318749
