12
Coordinates from ORCA-job run
  C   -0.59164978560623     -0.30544809165754     -0.07510175787108
  C   0.60390879834720      0.34859450035979      0.06736620629460
  C   -1.00494639430813     -0.93838495723609     -1.29843787164412
  N   -1.49066216688093     -1.50969616916190     -2.20504815720896
  N   -1.52111581729418     -0.35322945709935      0.91344515984158
  H   -2.27043991162196     -1.02063398415343      0.83413388808399
  H   -1.26094267271178     -0.06197980453847      1.84459131635246
  C   0.93625328028474      0.93040012021171      1.31689711103475
  N   1.08028757993891      1.36279896973979      2.40313004306409
  N   1.58598637328776      0.47884104191477     -1.00150467372022
  O   1.32198415740546     -0.01862108895531     -2.09037312912043
  O   2.61233655915915      1.08735892057602     -0.70909813510665
