12
Coordinates from ORCA-job run
  C   -0.66215187580951     -0.09991649938939     -0.04190723632518
  C   0.68278931484929      0.14691230476468      0.03914498308781
  C   -1.52778076543438     -0.14117739603480      1.10538864472797
  N   -2.36459834874132     -0.22973591971559      1.92760249059091
  N   -1.30470214217568     -0.27060544896673     -1.22595802811565
  H   -2.22906729024090     -0.66891062516459     -1.21429937858087
  H   -0.75918417111576     -0.40008205517386     -2.06559583558603
  C   1.46783557785274      0.13917316290967     -1.14158244155634
  N   1.99681905027023      0.10981528246188     -2.19387661242497
  N   1.38226087084277      0.40542376710623      1.29145965675152
  O   0.71714930177432      0.48280758284975      2.31834544560344
  O   2.60163047792820      0.52629584435275      1.20327831182739
