12
Coordinates from ORCA-job run
  C   -0.64613215652163     -0.19344693879384      0.04685250256149
  C   0.65537832888910      0.22708345681408     -0.05969373592867
  C   -1.31871776704291     -0.36458152861876      1.30688238635788
  N   -1.98235468289987     -0.55494921524604      2.25916265682388
  N   -1.39920022520468     -0.52860045895957     -1.03084164765259
  H   -2.39791611723398     -0.58970004429531     -0.90978901357322
  H   -1.06184906326912     -0.30690649000311     -1.95613633352347
  C   1.25999560374558      0.32733871223705     -1.33760715112131
  N   1.64743680825102      0.40924153315930     -2.44751191056376
  N   1.52081962011267      0.46279482068737      1.09117987870064
  O   2.69331198137356      0.71210769296512      0.82411335493523
  O   1.02922766980026      0.39961846005371      2.21338901298391
