12
Coordinates from ORCA-job run
  C   -0.53341532377038     -0.39561194368615     -0.09020115274464
  C   0.53716452984037      0.44399289884673      0.07033545306912
  C   -0.65513554648200     -1.31984296410598     -1.18513145931918
  N   -0.90653760699979     -2.13857846609797     -1.99163037493222
  N   -1.60411672947210     -0.38363349294724      0.74485475831606
  H   -1.53974438282975      0.12527991452055      1.61458167388444
  H   -2.24120635813657     -1.16259717936831      0.71600454123169
  C   0.58902502263650      1.30125420321485      1.19863983535660
  N   0.50021888241859      1.95478191710688      2.17465313339486
  N   1.66201433272245      0.50345296755567     -0.85454729988722
  O   1.61704471950164     -0.19314113616603     -1.86221584201710
  O   2.57268846057104      1.26364328112698     -0.53534326635240
