12
Coordinates from ORCA-job run
  C   -0.59908267446103     -0.22779847853869     -0.19732910666945
  C   0.63709546435582      0.19291152475505      0.21689325033673
  C   -0.88570628874657     -0.62458639946834     -1.54947483359718
  N   -1.29611191003148     -0.96198495295143     -2.59923063633482
  N   -1.64879592161700     -0.36349005030446      0.65347766940236
  H   -2.57237295765395     -0.44977505369857      0.26212630137637
  H   -1.57879303309343      0.02833200912614      1.58163994508264
  C   0.82317190037193      0.59628369299311      1.56346371260561
  N   0.83571628278382      0.89978607514569      2.70160297812651
  N   1.79687296144056      0.27804672449450     -0.66189121464635
  O   2.81336454879869      0.74726975522189     -0.15629929329296
  O   1.67564162785263     -0.11699484677488     -1.81597877238946
