12
Coordinates from ORCA-job run
  C   -0.69940658355107     -0.10838777132240      0.05762239406795
  C   0.58759300510768      0.32928777026657     -0.16687545398102
  C   -1.75804142773791      0.82828781487029     -0.21607883321080
  N   -2.65598615627451      1.55547470560192     -0.43945440225921
  N   -1.09815902969044     -1.33950842260600      0.42717569460405
  H   -2.06235691124901     -1.49454558599601      0.66432345307458
  H   -0.38466960126296     -1.99925217648337      0.70384892004522
  C   0.86792253672302      1.65924953386251     -0.57652737715141
  N   1.07148853990339      2.76817908762065     -0.91433655536015
  N   1.74332979382668     -0.51214830266211      0.08780901785342
  O   1.53933332979493     -1.66331630536277      0.49003616217294
  O   2.84795250441020     -0.02232034778927     -0.11854301985558
