12
Coordinates from ORCA-job run
  C   -0.56329845564391     -0.35630768787951     -0.07078128126496
  C   0.60198783792219      0.34241047224274      0.10506220354155
  C   -0.71166822739902     -1.41533711919954     -1.03229934105792
  N   -1.01131357213043     -2.28261285936040     -1.76864243608537
  N   -1.66447601245279     -0.14719637523964      0.69573623661510
  H   -2.54480601513806     -0.51776064258009      0.37777992402705
  H   -1.69721635186457      0.66755146024521      1.29127323606242
  C   0.64987386814841      1.39167662674244      1.05738883547022
  N   0.54818252353791      2.23235303020800      1.87625591844741
  N   1.81870668384575      0.08645370397770     -0.65497650313022
  O   2.75780247772505      0.84459317265222     -0.42590610939729
  O   1.81622524344945     -0.84682378180915     -1.44989068322797
