12
Coordinates from ORCA-job run
  C   -0.68412341119035     -0.15654587824718     -0.10285410922302
  C   0.58566312042351      0.37211032899485     -0.02381143890937
  C   -1.72634751064550      0.73006665686010     -0.54925535055173
  N   -2.60741809469312      1.42583167852026     -0.90264913371028
  N   -1.06457079651866     -1.42950700107710      0.11737431169016
  H   -2.04727707403670     -1.63842507188366      0.17639081157114
  H   -0.39046173885087     -2.05822881122764      0.52831635633156
  C   0.85302177268595      1.73232600798665     -0.33143896604550
  N   1.04639878441001      2.86315217267671     -0.59398411402731
  N   1.71748477795017     -0.40817764805370      0.44039201297657
  O   2.80044550597040      0.16071005589370      0.51447393530792
  O   1.51518466449516     -1.59431249044299      0.72704568458986
