16
Coordinates from ORCA-job run
  C   0.81398982829446      0.08821136572095     -0.00517786163419
  C   -0.54476165203120      0.03429702215474      0.72497356048251
  Br  2.08875633674335      1.03023898355613      1.30560382468239
  H   -0.41258390915447     -0.50515054738975      1.67076617138450
  N   1.25294130622121     -1.22289089234321     -0.30067066323045
  H   1.24427779542765     -1.82159746561388      0.51577493595942
  H   2.18734629791959     -1.21276281953281     -0.69133481118082
  N   0.73220925433854      0.87943691981593     -1.19657793175265
  H   0.93189244917520      0.32060360843129     -2.01444351319117
  H   1.29843989304425      1.71231505479147     -1.17329557746693
  C   -1.60079397951208     -0.66234422077005     -0.14122893364690
  H   -2.55183531380778     -0.70017187922071      0.39335992743267
  H   -1.74049315402972     -0.10198850611080     -1.06575898118398
  H   -1.28712872747963     -1.67704076389173     -0.38441834241735
  C   -0.99546304137292      1.38786063165791      1.04727225217413
  N   -1.41479338377645      2.45098350874451      1.31515594358882
