16
Coordinates from ORCA-job run
  C   0.79427861721319      0.02149680251070     -0.05992541578888
  C   -0.61536109692731      0.33639496614850      0.48856339168770
  Br  1.80275146219028     -0.92997938524467      1.41585149486102
  H   -0.50337138537054      1.05163557823622      1.31247887715460
  N   0.70930592512986     -0.92636206978909     -1.13897839658506
  H   0.43006708277213     -0.42675082561472     -1.97844917491449
  H   1.59894319856709     -1.38022481546205     -1.30098338033864
  N   1.43428770362736      1.23318472351524     -0.42685125304209
  H   1.49953432790177      1.88890253600403      0.34267491388185
  H   2.35993065297858      1.06524909412936     -0.80167502945922
  C   -1.40233774286036     -0.88548302906938      0.96474875577676
  H   -0.95281301694577     -1.30134371608721      1.86497440625575
  H   -1.40275344503596     -1.64481509892088      0.18369544735907
  H   -2.43115092253621     -0.59741025460805      1.18782704190135
  C   -1.35255600878994      1.00367496238183     -0.59162703537520
  N   -1.96975535191417      1.48983053187016     -1.46432464337453
