16
Coordinates from ORCA-job run
  C   0.64813653363306      0.10354631757410     -0.42774229864153
  C   -0.59094481428698      0.17018599219353      0.48658548184976
  Br  0.12399665929068      0.41117368147555     -2.29254203760405
  H   -0.20750837813443     -0.02439514089906      1.50120968006061
  N   1.52475791307105      1.19608574827659     -0.07655453056321
  H   2.33918735016219      1.21661920282055     -0.67912668123290
  H   1.82831068836902      1.09750419377545      0.88759257932123
  N   1.17107351785824     -1.25138500240631     -0.37722202985012
  H   1.89464252696046     -1.37232842663556     -1.07677101487898
  H   1.58791066450520     -1.40275178468889      0.53763127948989
  C   -1.66866049536214     -0.86934258908201      0.17501548108552
  H   -2.43995165107915     -0.84232373492572      0.94708430779098
  H   -2.13551522746965     -0.65534999974999     -0.78620459462203
  H   -1.22178755230068     -1.86141201362757      0.13766049885550
  C   -1.16059762952693      1.51861155820343      0.50116193323522
  N   -1.69205010568995      2.56456199769590      0.54122194570411
