16
Coordinates from ORCA-job run
  C   0.69738406408752      0.03577267679907     -0.29772866717336
  C   -0.60635440261611      0.10815624090617      0.52576478152995
  Br  0.22545308100282      0.39697570034098     -2.23239691619701
  H   -0.29117607821039     -0.19167323967297      1.53438618184851
  N   1.63632524018720      0.97022307459892      0.20901083550812
  H   2.49845302064426      0.94291952871819     -0.32194598259846
  H   1.27995243787417      1.91947074325959      0.21595251542791
  N   1.20111550089964     -1.31754116792941     -0.26611296038479
  H   1.81111585987223     -1.40447196618496      0.54050856820641
  H   1.72261466367575     -1.53748775507539     -1.10363449432880
  C   -1.71386662666562     -0.83138674085275      0.05411016143640
  H   -2.49498232945869     -0.88793411103010      0.81460376734368
  H   -2.15837078162440     -0.47845269657337     -0.87522733640582
  H   -1.29014792282067     -1.82233615162795     -0.10293070060043
  C   -1.07736141208953      1.49051105596950      0.61857483758282
  N   -1.44115431475819      2.60525480835450      0.68706540880487
