16
Coordinates from ORCA-job run
  C   0.63877723171261      0.09933574675678     -0.44155782397785
  C   -0.58224278366099      0.17597670903170      0.49581214980204
  Br  0.07711085663579      0.38046942753641     -2.29980679015352
  H   -0.17853821562696     -0.00049333479728      1.50596052821986
  N   1.51934667133385      1.19933504605892     -0.12320203293298
  H   1.84865448807926      1.10931646231984      0.83342739286226
  H   2.31813615773448      1.21631349102878     -0.74660937307931
  N   1.16650344760121     -1.25288431732521     -0.38297890443074
  H   1.87910068672143     -1.38108778445836     -1.09238098873377
  H   1.59682039496822     -1.39392452356150      0.52722752813039
  C   -1.66222350102851     -0.87155406887342      0.22164041574442
  H   -2.41875912099784     -0.83467738396855      1.00777603904815
  H   -1.21313028410632     -1.86284795686575      0.19092047540402
  H   -2.14792909449354     -0.67394239242006     -0.73377052159814
  C   -1.15564608229862      1.52298056196977      0.50085113668242
  N   -1.68798085257408      2.56868431756795      0.53669076901276
