16
Coordinates from ORCA-job run
  C   0.82990853563308      0.03619562069961      0.06969794599784
  C   -0.56689860806291      0.08175048108467      0.72358752003573
  Br  2.10330766887276      0.82111662806920      1.44980070298316
  H   -0.46196936519502     -0.37509530768404      1.71075281135938
  N   1.24098681960305     -1.33873447754607     -0.09769271180900
  H   2.22764699322540     -1.45637743462078      0.08318596810023
  H   1.03605562047053     -1.62109658923357     -1.04972842116624
  N   0.83407504119997      0.75344635463624     -1.14832231919250
  H   0.50770723474886      1.70746422076385     -1.04387027109052
  H   1.75278224529204      0.75535145036358     -1.57369346234555
  C   -1.59268057769009     -0.70639312148448     -0.09849120573434
  H   -2.56660635311204     -0.67256076124236      0.39305796144320
  H   -1.68985971498913     -0.28800886226331     -1.10046138638929
  H   -1.27473614694192     -1.74680547402920     -0.16566008327919
  C   -1.00699775045342      1.46779003529971      0.88954768803713
  N   -1.37272164260117      2.58195723718695      0.95828926304995
