16
Coordinates from ORCA-job run
  C   0.82535079974876      0.03668258865008      0.08589126405872
  C   -0.63085453321700      0.28692155447150      0.54192439386244
  Br  1.80625035675509     -0.81067184365087      1.56296686471698
  H   -0.57007360508102      0.95115740351486      1.40907165108303
  N   0.82563383969570     -0.91656677311375     -1.00171794371857
  H   1.77532306375365     -1.15038393800922     -1.26681273940063
  H   0.35928620562139     -0.50406396333119     -1.80542757683698
  N   1.46141502515694      1.32537349224055     -0.10528486473352
  H   1.04771071698378      1.78653213556390     -0.91103369488730
  H   2.45300451709837      1.20644946900110     -0.27907215869727
  C   -1.42744407713942     -0.97420466789913      0.87685653976155
  H   -2.44806888927401     -0.70444958593650      1.15506407881119
  H   -1.45253193719222     -1.64782965614358      0.02171635739459
  H   -0.96321465235939     -1.49225987267517      1.71535464387347
  C   -1.28854690646703      1.02504433613891     -0.54303724373724
  N   -1.77223992408359      1.58426932117848     -1.45645957155049
