16
Coordinates from ORCA-job run
  C   0.89241477688853      0.10243000663281      0.00735083416718
  C   -0.49608420009161      0.05801181084655      0.70006542586972
  Br  2.13653195938993      0.91222391837141      1.41530588992653
  H   -0.35654462533579     -0.41243583586070      1.67813386530793
  N   1.48189393944245     -1.16321638670502     -0.30598767080058
  H   0.93671973938192     -1.62983302313529     -1.02085162026966
  H   1.58820446471441     -1.74966062003413      0.51088074195342
  N   0.82617871869668      0.84901887990521     -1.18196207457280
  H   1.72886127534836      0.86294516822884     -1.63945384985589
  H   0.48839599522705      1.79220825797260     -1.03862468223787
  C   -1.51771102748638     -0.73833116434217     -0.12038775875457
  H   -1.20778307139229     -1.78128777710603     -0.20120387872508
  H   -1.61769610534525     -0.31540039434939     -1.11990207904375
  H   -2.49122197948311     -0.71525443017332      0.37225679582604
  C   -0.98905609716634      1.41814751672404      0.91966543883536
  N   -1.40510376278857      2.51143407302458      1.02671462237402
