16
Coordinates from ORCA-job run
  C   0.79866992346582      0.01578904897992     -0.09124810616614
  C   -0.51596840294143      0.04596159616502      0.70772271409291
  Br  2.21463618591452      0.88976023695706      1.26175492561526
  H   -0.32688933921783     -0.42476065113148      1.67761318274435
  N   1.19512949789788     -1.30752776078373     -0.35704614874305
  H   2.02915747571071     -1.34407210149740     -0.93020363446379
  H   1.37630283273654     -1.80917535287215      0.50280014397615
  N   0.71745808788848      0.78457231463547     -1.25770226073363
  H   1.56647956600870      0.75159497510067     -1.80735006502827
  H   0.48768371209424      1.74986613399876     -1.05721232546971
  C   -1.63478331794774     -0.69692311305165     -0.03581241625224
  H   -1.80130220134501     -0.24250296980624     -1.01203288585499
  H   -2.55882898189056     -0.64735201073979      0.54343637060567
  H   -1.35514722442296     -1.73924436614989     -0.18047635316722
  C   -0.91523358925578      1.43196539167238      0.95273773832019
  N   -1.27836422469555      2.54104862852307      1.08301912052454
