16
Coordinates from ORCA-job run
  C   0.86328288482877      0.06166962630191     -0.07789996188558
  C   -0.56083089259439      0.31459145149222      0.48353670665842
  Br  1.94317461175440     -0.57154341639798      1.55098795432567
  H   -0.44398850935330      0.94935185153207      1.36774516310390
  N   0.83032863931427     -0.86699349493095     -1.12710547711900
  H   1.75086062541447     -0.97225681557795     -1.53446446081484
  H   0.45198204244117     -1.76560663551942     -0.86433354620126
  N   1.57095939908365      1.21731606356300     -0.54211984013438
  H   1.07015436883155      1.62287273866299     -1.32656197081371
  H   1.68765693042342      1.90465393256040      0.19053873559776
  C   -1.34564075929939     -0.94390046199858      0.86062764296129
  H   -2.28015778753161     -0.66619203974057      1.35113407728953
  H   -1.60093027986575     -1.52499011741203     -0.02743711978029
  H   -0.76372485514176     -1.55743208816846      1.54899880048629
  C   -1.29762199262754      1.08773241401572     -0.52202691895775
  N   -1.87850442567798      1.71072699161763     -1.33061978471605
