16
Coordinates from ORCA-job run
  C   0.81648190682797      0.09958894378219     -0.02137713634624
  C   -0.52498408321213      0.05880391147742      0.74102188267850
  Br  2.10892939268839      1.10598266417387      1.20268578350992
  H   -0.36759923394425     -0.45447373241032      1.69757772358373
  N   1.25861346708173     -1.22099738967188     -0.27721759376199
  H   1.28698266509203     -1.78486756307861      0.56362368683631
  H   2.17751714988643     -1.21823873968360     -0.70329772252346
  N   0.69504367803763      0.85050874709994     -1.24013444219669
  H   0.77311418248622      0.23522795530408     -2.03884088989523
  H   1.34598557507537      1.61657386799369     -1.30909599279396
  C   -1.59628535265374     -0.66886207558499     -0.07996918712232
  H   -1.28403193389356     -1.68998800492579     -0.29630589899038
  H   -2.53601169595602     -0.69177671579592      0.47490537719643
  H   -1.75944543843535     -0.13811313499739     -1.01825615033351
  C   -0.98026836928105      1.41697288533418      1.03623567545797
  N   -1.41404190979969      2.48265838098313      1.26844488470093
