16
Coordinates from ORCA-job run
  C   0.69219419229999      0.03311126658643     -0.30945995924336
  C   -0.59909045405766      0.11689641298908      0.53255917111383
  Br  0.18789239989050      0.34848348701788     -2.24429685690839
  H   -0.26639947073859     -0.16065343689592      1.54181995725362
  N   1.63354292304798      0.98310635492023      0.16195976506132
  H   1.27256591972692      1.93060139353952      0.15472613400612
  H   2.48756135917639      0.94873714974115     -0.38157255350728
  N   1.20459952094330     -1.31659378049151     -0.25490973595656
  H   1.83398956123580     -1.37858962604691      0.53890436621978
  H   1.70747148089697     -1.55551770896615     -1.09843611183463
  C   -1.70865558869383     -0.83879522007917      0.09945884042960
  H   -2.48044032298086     -0.87715232961873      0.87070002264162
  H   -2.16537320982822     -0.51318233872220     -0.83401840324227
  H   -1.28243297943242     -1.83221229662418     -0.03511733864907
  C   -1.07587183976610      1.49834450627883      0.60299743242642
  N   -1.44455349172017      2.61241616637165      0.65368527018925
