16
Coordinates from ORCA-job run
  C   0.79587257380370      0.06640449654732     -0.26427085016230
  C   -0.60078553328569      0.17406922149161      0.39736536527144
  Br  0.50531511119435      0.21032245166548     -2.27015980766604
  H   -0.37855861538256      0.15206969272732      1.47302039822606
  N   1.70544208207018      1.13014943276252      0.05177454401758
  H   1.35182456685146      2.02625936600060     -0.25896196632827
  H   1.85858550855214      1.14659643335576      1.05515069586681
  N   1.41252728352423     -1.14353141201152      0.12367119540220
  H   2.35937188933963     -1.16438643182786     -0.23589355368183
  H   0.90920909618582     -1.95895065236807     -0.19800043418651
  C   -1.58222212039031     -0.95567030336935      0.08104419475782
  H   -1.77243064404621     -1.01476300625886     -0.99053149785873
  H   -1.19013857940571     -1.91078192474552      0.43574702434852
  H   -2.52974335111249     -0.77893397226467      0.59321083402777
  C   -1.18741367946711      1.48255809232095      0.10755780691595
  N   -1.65885558843143      2.53758851597429     -0.10172394895045
