16
Coordinates from ORCA-job run
  C   0.78871648101123     -0.06267074518168     -0.13296976264109
  C   -0.55421207654193     -0.15271307227651      0.60998791205619
  Br  1.20105715789909     -2.15277543304846     -0.60037472803012
  H   -0.43442768478336     -0.89039113370926      1.41020395287706
  N   0.69770478508827      0.66345061978136     -1.32066904673292
  H   0.10127521640430      0.21652619676445     -2.00202185231023
  H   1.59917416175223      0.86127584355654     -1.73486459591495
  N   1.80761124228888      0.40360135615072      0.69880644255676
  H   2.71302975193053      0.41163845235153      0.24690834330640
  H   1.86824742964436     -0.12476369533490      1.55835083087095
  C   -1.73971246851754     -0.55301709115477     -0.27045414335133
  H   -1.95045839231696      0.22349468155916     -1.00784637546003
  H   -1.53845045981860     -1.49999433459307     -0.77091815979954
  H   -2.62988033601322     -0.66890368399642      0.34966831738408
  C   -0.82567392795177      1.15055937550003      1.23126045509765
  N   -1.10500088007551      2.17368266363129      1.73493241009111
