16
Coordinates from ORCA-job run
  C   0.72272537457115      0.01566664584563     -0.42380899055156
  C   -0.57337083927579      0.13513160241914      0.41772819737195
  Br  0.24277038346830      0.12439976252692     -2.33275612736936
  H   -0.23641121359094      0.02904962793229      1.46099968130687
  N   1.68274123066557      1.07673499185752     -0.21247222759206
  H   1.94882575044476      1.09937406872030      0.76765353092350
  H   1.30486640119557      1.98172761877750     -0.47082296342614
  N   1.28592481007687     -1.28329307682788     -0.18472450285167
  H   1.45403936026226     -1.40516125237925      0.80978885805913
  H   2.17437215492532     -1.34360311353531     -0.67023296922099
  C   -1.63718722191885     -0.92764370368559      0.13703665791198
  H   -2.08159876509990     -0.77259635045488     -0.84534442728583
  H   -1.17933863243805     -1.91582322557313      0.16236003090033
  H   -2.42630105369705     -0.87245586690046      0.88986650069862
  C   -1.12171148202361      1.48621672618034      0.29679595151766
  N   -1.56034625756563      2.57127554509685      0.20093279960756
