16
Coordinates from ORCA-job run
  C   0.82174465237780      0.05071340621788      0.11191112509970
  C   -0.65212699828723      0.25456346623521      0.53178013425816
  Br  1.77641433263989     -0.82530335777153      1.58968342292245
  H   -0.63195156530110      0.88969568157964      1.42236792889910
  N   0.87490431718084     -0.86531814176639     -1.00593263500035
  H   0.42175197291955     -0.43667511404253     -1.80887582110641
  H   1.83683994735253     -1.06919562166276     -1.25111635059470
  N   1.43485102811867      1.35815318208559     -0.01713188616502
  H   1.03795556906070      1.83631122496956     -0.82124822283069
  H   2.43407615789280      1.26622083460749     -0.16030496095378
  C   -1.43127091404700     -1.03331515787823      0.79876918674601
  H   -2.46370544910843     -0.79334769717228      1.06011568645562
  H   -1.42168681314809     -1.67438680312879     -0.08124460743578
  H   -0.97838451317118     -1.57406488007263      1.62904816723389
  C   -1.29445577471397      1.01670392706582     -0.54588390929408
  N   -1.76395594976579      1.59924505073395     -1.45193725823414
