16
Coordinates from ORCA-job run
  C   0.87995465700257     -0.00812000712676      0.09123515613545
  C   -0.60473305660386      0.26895682019855      0.45618703625838
  Br  1.73740765527115     -0.74336960323168      1.72162574036104
  H   -0.59805469555831      0.95306749944783      1.31164393622088
  N   0.93943677399229     -0.99692016761152     -0.93727595685376
  H   1.89293030341617     -1.06921138512394     -1.27321999752201
  H   0.33277150285827     -0.74283973505268     -1.71078145719925
  N   1.65581155388107      1.16676326047443     -0.23285183941078
  H   1.67880852981614      1.82959578772152      0.53342777857865
  H   1.26485766507306      1.61558553975502     -1.05566048223641
  C   -1.43882245781224     -0.97031760804519      0.78802449009709
  H   -1.45095033988232     -1.66216785475186     -0.05324538461646
  H   -1.01175241486721     -1.48138587749279      1.64984073291829
  H   -2.46394280027004     -0.67744500795840      1.02390011850372
  C   -1.19197246613814      0.98768611215564     -0.68104597551214
  N   -1.62175041017862      1.53012222664185     -1.63080389572268
