16
Coordinates from ORCA-job run
  C   0.79786137494690      0.02081898369376     -0.08720190488856
  C   -0.52129535055080      0.05920490057010      0.70417925007668
  Br  2.19918449238790      0.94252149166382      1.24977759968330
  H   -0.33244119993726     -0.38557900426502      1.68627269901614
  N   1.20759670131577     -1.30553707460913     -0.31571788831020
  H   2.04397468198218     -1.34983109839187     -0.88490857970529
  H   1.39076917123267     -1.78144756949138      0.55826429297767
  N   0.71605133172746      0.75778285374558     -1.27395080453850
  H   1.56965901024812      0.72020302403596     -1.81618421187892
  H   0.47422304389423      1.72530254865363     -1.10007641609775
  C   -1.62935333391648     -0.71300958984552     -0.02550303819659
  H   -1.33920980862176     -1.75600987240072     -0.14169964502917
  H   -2.55696403112876     -0.65733282679219      0.54745484185624
  H   -1.79491931241589     -0.28574144105637     -1.01406731787776
  C   -0.93364387975453      1.44744135712220      0.91107496363519
  N   -1.29149289140973      2.56221331736717      1.00228615927754
