16
Coordinates from ORCA-job run
  C   0.80892145070708      0.13944850497498     -0.00317335328649
  C   -0.62584577797005      0.27729999003195      0.54475027486154
  Br  1.91625855378416     -0.62093490280165      1.52505436055051
  H   -0.53828524570704      0.83218695982928      1.48273003430867
  N   0.83390325568868     -0.69289558284874     -1.14774750868453
  H   0.51952847280547     -1.63635609275954     -0.95985639403574
  H   1.75869271314846     -0.72589135765094     -1.55847997278316
  N   1.36026428297862      1.44919745932460     -0.22592661375962
  H   0.97796195948816      1.81826041146431     -1.09177243544106
  H   2.36967177771471      1.41466702209242     -0.29270867041070
  C   -1.36103903555559     -1.04434080223637      0.77294709733001
  H   -1.56912773033556     -1.54667782247976     -0.17355686045762
  H   -2.31816926630488     -0.85437957562769      1.26132890350329
  H   -0.77124625804064     -1.69869796784719      1.41621762794069
  C   -1.37865124721955      1.11425804230376     -0.39591231711423
  N   -1.98283790518201      1.77585571423058     -1.15489417252157
