16
Coordinates from ORCA-job run
  C   0.89951149336197      0.05254819436772      0.01955799563143
  C   -0.49384788989228      0.04309568460564      0.70491037922019
  Br  2.14128439267942      0.91048002353547      1.38876345789975
  H   -0.39463597715327     -0.46276839926605      1.67205094720000
  N   1.27874510519344     -1.26746047085715     -0.30491083453306
  H   2.18548010054251     -1.25976820501136     -0.75614635835665
  H   1.30621278834349     -1.86994105463907      0.50777101943796
  N   1.03543608871025      0.84617500364664     -1.16180543158420
  H   0.80016780447763      1.81645000196739     -0.99701103326625
  H   0.46193135522813      0.45811261819676     -1.90159711893432
  C   -1.54920674237288     -0.67279606712694     -0.14791947524176
  H   -2.51034709857325     -0.66542761721776      0.36910671482549
  H   -1.24946889398213     -1.70205268623167     -0.33713806629830
  H   -1.68168528887535     -0.16559860179733     -1.10533051760821
  C   -0.92305190250921      1.41823819804591      0.95736945502792
  N   -1.30752533517847      2.51971337778179      1.09132886658001
