16
Coordinates from ORCA-job run
  C   0.89277614252224      0.09929164679475     -0.02273335223967
  C   -0.47261204209513      0.06815732052547      0.71510462240041
  Br  2.18543336450271      0.91824358934101      1.33410841436081
  H   -0.30335509834785     -0.39067678977380      1.69398643754854
  N   1.46586425287461     -1.17270096518551     -0.34126903694462
  H   0.89467713376920     -1.64440212351806     -1.03216240906914
  H   1.59568001162211     -1.75040644828193      0.47797669923955
  N   0.79102879895579      0.83295768734930     -1.21761478729314
  H   1.67824878996251      0.83653727256195     -1.70467309171708
  H   0.46331604950547      1.77967952932059     -1.07375895509821
  C   -1.52277341379097     -0.73456256370303     -0.06221091355002
  H   -1.65081374210076     -0.32533934834785     -1.06432330880333
  H   -2.48075882369720     -0.69860195561127      0.45937851470950
  H   -1.22113788241766     -1.78046502304652     -0.13701334128267
  C   -0.95445983342593      1.43247361181837      0.93332151615473
  N   -1.36211370783913      2.52881455975653      1.04088299158434
