16
Coordinates from ORCA-job run
  C   0.93267150464343      0.20123269282495      0.08523250153203
  C   -0.49095469191474      0.09619959243584      0.69181836366486
  Br  2.05441760359210      1.03332825695479      1.54249714823217
  H   -0.37961760860069     -0.38875865453494      1.66639440671232
  N   1.58935471813522     -1.05131919043484     -0.18390053914682
  H   1.69189715742875     -1.62636826979812      0.64291603985017
  H   1.09985304301277     -1.55551931356421     -0.91379522215037
  N   0.92802740094727      1.03536854601444     -1.04810450370876
  H   1.72771961620856      0.88681979566158     -1.64505133375566
  H   0.05723110130475      1.09839839885934     -1.54984591718267
  C   -1.44949525959011     -0.74294155891262     -0.16487743331299
  H   -1.62065362422432     -0.29928918182901     -1.14766707595758
  H   -2.41690425890920     -0.81585775955910      0.33467516028102
  H   -1.06143225941744     -1.75412123667215     -0.29439000487510
  C   -1.06598491173914      1.42316924971437      0.91884878192293
  N   -1.59612953087721      2.46065863283968      1.06624962789444
