16
Coordinates from ORCA-job run
  C   0.83115692446039      0.04154386352509      0.04778749382453
  C   -0.54929182774166      0.10544327251208      0.73419207937299
  Br  2.13471653414300      0.87888352424568      1.36790742367634
  H   -0.41759503222859     -0.31596546534499      1.73380139593528
  N   1.24400464187040     -1.33711840584735     -0.08094329704961
  H   1.01514041606236     -1.65350577020598     -1.01675718339160
  H   2.23599344867545     -1.44381201182389      0.07667578167654
  N   0.80244520281075      0.71554070118063     -1.19418641448724
  H   1.71009469279259      0.70547933266000     -1.64250681155092
  H   0.47449879203999      1.67148126154572     -1.11557196967316
  C   -1.59160545747044     -0.71514696411371     -0.03362862526242
  H   -1.27075866109123     -1.75616303079778     -0.07138677566848
  H   -1.71523084712518     -0.33319390494744     -1.04720639752177
  H   -2.55318657388891     -0.66716175618509      0.48055922851517
  C   -0.99098473581657      1.49499844002662      0.86152986511523
  N   -1.35939751749236      2.60969691357042      0.89973420648912
