16
Coordinates from ORCA-job run
  C   0.76443437853581      0.06017437818119     -0.16943919026715
  C   -0.60798177919356      0.15319046634798      0.51833236872451
  Br  0.38615369346126      0.46476048297563     -2.22950092982588
  H   -0.36578285951674      0.00033724114920      1.57801831982511
  N   1.64563000294194      1.02557911342976      0.34127571946549
  H   2.53376039503393      1.02437240652393     -0.14523239890698
  H   1.25096636511886      1.95657671291693      0.29096131959390
  N   1.29693138642252     -1.23906570504907     -0.04682025675267
  H   2.28248110839491     -1.26251733632550     -0.27712476649943
  H   0.81046009074576     -1.89591671045985     -0.64119786067983
  C   -1.62435483420434     -0.90212883618645      0.08641356390566
  H   -2.54996481962451     -0.76919531715749      0.64879468320252
  H   -1.24256407391873     -1.90022016078456      0.30674681708467
  H   -1.84700869174950     -0.81782709559506     -0.97694090835653
  C   -1.15293294225739      1.50517511485775      0.39123146969064
  N   -1.58122742019023      2.59670524517560      0.32548204979595
