16
Coordinates from ORCA-job run
  C   0.88337996625423     -0.01125318310475      0.08548095488539
  C   -0.59675537486340      0.28858457178982      0.45029335281307
  Br  1.74675714532306     -0.69772122714723      1.73573100703989
  H   -0.57813861961739      0.99629081637550      1.28601178427609
  N   0.93034978943906     -1.03276744686070     -0.91022993052610
  H   1.87867519264447     -1.11566090912994     -1.25786837801997
  H   0.30954836143769     -0.80972849647520     -1.68184138521170
  N   1.66518802901491      1.14701825663854     -0.28129535794271
  H   1.27338193239578      1.57049335226308     -1.11715379987283
  H   1.69687196959310      1.83504417430246      0.46220850910044
  C   -1.43809048479704     -0.93382737580915      0.82443026009652
  H   -2.45835154053455     -0.62530935792131      1.06132814001071
  H   -1.00652921508529     -1.42344486456913      1.69639314876871
  H   -1.46445707538005     -1.64945525064380      0.00364581148188
  C   -1.18791781248399      0.97705300130837     -0.70335176967941
  N   -1.65491226334059      1.48468393898343     -1.65478234721998
