16
Coordinates from ORCA-job run
  C   0.86389332372166      0.14571384711364     -0.06528245578318
  C   -0.58554111055427      0.29459849763670      0.47333956698117
  Br  1.92928112420989     -0.65506337896740      1.48703122785288
  H   -0.55570628961072      0.97743145978045      1.33073169620284
  N   1.06276863113714     -0.75166942367190     -1.16110314390460
  H   0.53601645245739     -0.42394361047677     -1.96416632216306
  H   0.81293184594028     -1.70278825257201     -0.93048792035155
  N   1.34959669238081      1.40430627666573     -0.45661563461885
  H   1.31020668976148      2.09677878958475      0.27891711189195
  H   2.28847960656847      1.32513453554976     -0.82571440400299
  C   -1.26380425469789     -1.01090193502318      0.89296282141860
  H   -1.31822057296732     -1.70467867932053      0.05193684646530
  H   -0.72358078648291     -1.48110264018061      1.71279108612869
  H   -2.28488191898584     -0.80464504485607      1.21806610841745
  C   -1.37962672378473      0.92395887161227     -0.58869209383866
  N   -2.04181270909344      1.36687068712518     -1.45171449069599
