16
Coordinates from ORCA-job run
  C   0.89867740822558      0.05290969913890      0.00097900148071
  C   -0.48155898774434      0.06886717384554      0.71280400375609
  Br  2.16777640800444      0.95469651352965      1.31515654503214
  H   -0.36408134077059     -0.40064528201441      1.69610411651342
  N   1.26935212053161     -1.27895040552775     -0.28458813765075
  H   2.16781527959928     -1.28921691139600     -0.75198362810073
  H   1.31064143963476     -1.85228288092292      0.54844808147660
  N   1.01315030358974      0.80454438264140     -1.20957634251942
  H   0.78115416698092      1.78017339538374     -1.07426214557114
  H   0.42599758859245      0.39155539769611     -1.92479897249114
  C   -1.55265177835120     -0.67815586287003     -0.09232937671677
  H   -1.69718490260599     -0.21251541907531     -1.06896390741986
  H   -2.50587517965175     -0.64379568137184      0.43832253879187
  H   -1.26043559513693     -1.71634146678454     -0.24087281856679
  C   -0.90506704185161      1.45290777089580      0.92167765046409
  N   -1.26670988904635      2.56624957683165      1.01488339152168
