16
Coordinates from ORCA-job run
  C   0.83338751923606     -0.21772082184638     -0.16370697748698
  C   -0.51146755218113     -0.14625709007755      0.61118175463195
  Br  1.05912643957303     -2.19144352256962     -0.65480147261340
  H   -0.41473311702341     -0.76797199444104      1.50917125823375
  N   0.90887785857723      0.48978714662744     -1.40431303860757
  H   0.77700448278579      1.48163659040678     -1.23489299334506
  H   0.24474037974745      0.14865395140349     -2.08457435583289
  N   1.87193866223422      0.25404988615734      0.65559306264872
  H   2.75522423670408      0.22949669892131      0.16237561406464
  H   1.93981668650406     -0.23301494291129      1.53891902818796
  C   -1.74494739406260     -0.59069389947435     -0.17719808639335
  H   -1.66554660922467     -1.63866830130021     -0.46082537838576
  H   -2.63825198484268     -0.45964917694813      0.43572289413108
  H   -1.86824702553304      0.01712941514327     -1.07553576985767
  C   -0.69196169128874      1.24815673698317      1.03264234956950
  N   -0.85596089120566      2.37750932392577      1.31024211105507
