16
Coordinates from ORCA-job run
  C   0.79389548452839      0.06021196779567     -0.27225847923396
  C   -0.59361354786010      0.17604186806516      0.40690291874334
  Br  0.48183976861893      0.23973846709033     -2.27247601967178
  H   -0.35992585491419      0.13441778340735      1.47954375074938
  N   1.72147353092725      1.10603048605567      0.04961914276764
  H   1.89197869934675      1.10006055781074      1.05011393149500
  H   1.37520532675327      2.01269159094328     -0.23769588714151
  N   1.39839960424280     -1.16403990565919      0.08911261700125
  H   0.87982655363983     -1.96719521240016     -0.23868910723707
  H   2.34001268964243     -1.19260824984238     -0.28345446800182
  C   -1.59419027224286     -0.93484168347428      0.08417405666252
  H   -2.53264102616461     -0.75424136674866      0.61140312242852
  H   -1.21090928403445     -1.90106178085617      0.41755960715400
  H   -1.79871317780752     -0.97309927880642     -0.98563476020425
  C   -1.16563698968289      1.49681319387302      0.14474819463427
  N   -1.62500150499303      2.56108156274604     -0.04296862014552
