16
Coordinates from ORCA-job run
  C   0.76222987112093      0.05186322064697     -0.18196576994230
  C   -0.59661856146908      0.15315837271021      0.53117068415920
  Br  0.35599252794831      0.49808366249053     -2.22794728160066
  H   -0.33738937223568     -0.02416057288286      1.58300579121429
  N   1.66662179871060      0.99482904597888      0.33011646215461
  H   2.54634076874286      0.98860693505572     -0.17134485133624
  H   1.28556875664255      1.93233146647347      0.30244537106316
  N   1.27672979107205     -1.25731858175037     -0.09060435669121
  H   2.25806549779965     -1.29143097183269     -0.33678228810096
  H   0.77063483136294     -1.89646995477641     -0.68784755293522
  C   -1.63644010555559     -0.87903464780611      0.09840077621931
  H   -2.55188462304487     -0.73887881706524      0.67542120540175
  H   -1.87219314159111     -0.77625056540376     -0.96051679844202
  H   -1.26770645850151     -1.88615368392376      0.29949061685035
  C   -1.12280619358610      1.51516661764475      0.43783188131530
  N   -1.53614538741594      2.61365847444069      0.39712611067063
