16
Coordinates from ORCA-job run
  C   0.77061369422741      0.10924113345165     -0.32741760991351
  C   -0.54167323565213      0.12376021673652      0.50042113605352
  Br  0.24885278156677      0.55900705662000     -2.24461043364989
  H   -0.20874410448618     -0.14073288802822      1.51343728204373
  N   1.68408111441392      1.02514645456106      0.22900921923322
  H   2.55507709511307      1.00332728207520     -0.28648222599957
  H   1.32294495451570      1.96968519060927      0.27130231259788
  N   1.43772007652469     -1.15639928032453     -0.41613814402597
  H   0.88564435629058     -1.85166410145512     -0.89745218816199
  H   1.69001462867707     -1.47318238532073      0.51364237756801
  C   -1.61404222857665     -0.86903378996136      0.05595199792126
  H   -1.20521892662450     -1.88063806885072      0.02972575365064
  H   -2.00143316858528     -0.61471610000897     -0.92959979695994
  H   -2.44000566865890     -0.86014698448560      0.76942255308204
  C   -1.08307841029931      1.48091775772409      0.57569709841669
  N   -1.50175295844626      2.57642850665747      0.64309066814388
