16
Coordinates from ORCA-job run
  C   0.92660759298919      0.06787036810255      0.15064474550050
  C   -0.51220432623326      0.09638740476223      0.73339219394882
  Br  2.09405448742338      0.89152467898013      1.51027081693162
  H   -0.46244019397172     -0.32477118987945      1.74150790297311
  N   1.33223568630459     -1.30782001015048      0.02000086600141
  H   2.31008807156381     -1.32458833080683     -0.24992535101575
  H   0.80265033894829     -1.74455412385291     -0.72850846935693
  N   1.13840441809009      0.82622303285433     -1.05891682357961
  H   0.59952293799547      0.42683265610037     -1.81993614960230
  H   0.88626870939643      1.80182791202500     -0.94475880367194
  C   -1.50485523260265     -0.71993244072254     -0.10430515185848
  H   -2.51490370188718     -0.59299223570548      0.28801288865911
  H   -1.51455534080932     -0.39089133668617     -1.14628129727891
  H   -1.25970936245983     -1.78136591399860     -0.05443525198247
  C   -0.97177974781776      1.48231749578850      0.82585102363207
  N   -1.35038433692952      2.59393203318934      0.83838686069976
