16
Coordinates from ORCA-job run
  C   0.86432263477924      0.13902946180223     -0.07275916534042
  C   -0.58172348119022      0.30815951783037      0.46934152548045
  Br  1.93178235824464     -0.63677112742237      1.49149555680743
  H   -0.54340560665340      1.00902582948903      1.31171972327504
  N   1.05267824093933     -0.78209799854069     -1.15043790261028
  H   0.79929192389464     -1.72701769686966     -0.89908693584121
  H   0.52472615774879     -0.46841108416119     -1.95836284921779
  N   1.35606739959788      1.38623692390703     -0.49186461524630
  H   1.32253420150242      2.09393989304974      0.22940641111151
  H   2.29341287950724      1.29430425963133     -0.86211720983746
  C   -1.26566362009140     -0.98380280982012      0.92016800039431
  H   -1.32367525242497     -1.69717118618897      0.09593890865461
  H   -2.28564341975514     -0.76546869236744      1.24079232304002
  H   -0.72685685750139     -1.43682663046843      1.75051115755147
  C   -1.37682863775322      0.91954420390670     -0.60244991976734
  N   -2.04001892084445      1.34732713622245     -1.47229500845403
