16

C	-0.321902	-0.06191	-1.505717
C	0.0	0.0	0.0
F	-0.177661	1.304609	-1.930834
H	1.090745	0.0	0.0
N	0.620309	-0.86816	-2.186569
H	0.749101	-0.476294	-3.112392
H	1.514716	-0.8032	-1.687674
N	-1.66124	-0.47605	-1.759997
H	-2.297578	0.292026	-1.586465
H	-1.745393	-0.791475	-2.717167
N	-0.417826	-1.234471	0.689115
O	0.055573	-2.281125	0.252719
O	-1.150423	-1.148226	1.681058
C	-0.574134	1.163276	0.638469
N	-0.998637	2.136794	1.143446
H	2.561559	0.0	0.0
