16

C	-0.346422	-0.076434	-1.496146
C	0.0	0.0	0.0
F	-0.309844	1.264424	-1.949692
H	1.102895	0.0	0.0
N	0.654892	-0.843203	-2.137274
H	0.643554	-0.665237	-3.13406
H	1.570285	-0.615624	-1.735089
N	-1.703414	-0.492447	-1.75391
H	-1.722308	-1.499502	-1.655562
H	-1.92714	-0.247664	-2.712643
N	-0.38023	-1.189812	0.770719
O	-0.352321	-1.08358	2.000213
O	-0.584781	-2.249618	0.168907
C	-0.514326	1.186814	0.64447
N	-0.889203	2.170999	1.166507
H	2.51635	0.0	0.0
