16

C	-0.34061	-0.009259	-1.500302
C	0.0	0.0	0.0
F	-0.297393	1.350554	-1.892718
H	1.096662	0.0	0.0
N	0.661476	-0.75045	-2.169372
H	0.655249	-0.529255	-3.156371
H	1.576223	-0.541367	-1.755345
N	-1.6976	-0.407929	-1.782177
H	-1.723186	-1.418431	-1.733771
H	-1.919259	-0.114954	-2.726192
N	-0.385469	-1.221939	0.718105
O	-0.35919	-1.168231	1.950698
O	-0.595264	-2.253085	0.070762
C	-0.518649	1.157396	0.693557
N	-0.903091	2.114371	1.257121
H	2.527146	0.0	0.0
