15
Coordinates from ORCA-job run
  C   -0.73652291339166      0.20575320920435      0.53497833837953
  C   0.45313400640005      0.43221964010613     -0.37469634334514
  F   -1.44875292838242      1.39836747399539      0.50531116654187
  H   0.16256672923859      0.75866991533215     -1.37067867677301
  H   -0.38014605538944      0.05756948211162      1.55524056096304
  C   -1.61805602957272     -0.92450840707292      0.06111350886847
  H   -1.90408265298717     -0.78783375985581     -0.98332785204297
  H   -2.52204562853526     -0.94137060533669      0.67097715730390
  H   -1.11614479168135     -1.88746669081725      0.16934813415146
  N   1.22888807315635     -0.83698678137567     -0.51589234758630
  O   1.83346811993153     -1.21909204556539      0.48190511037625
  O   1.14514728070519     -1.41024278411352     -1.59742671639832
  N   1.39545974400346      1.47103238802964      0.16632856863958
  O   2.07155000368584      2.04699902898415     -0.68230575800638
  O   1.43553704281900      1.63688993637381      1.37912514892801
