15
Coordinates from ORCA-job run
  C   -0.60495399697650     -0.40008244028228      0.57295921920845
  C   0.64770797557761     -0.14819367618382     -0.24913817048187
  F   -0.63635017102604      0.52159918999598      1.60363452182411
  H   0.65624917084954     -0.71821791300365     -1.17791340051150
  H   -0.50598507288864     -1.39149521299793      1.02186164269289
  C   -1.87640378847797     -0.28414652342953     -0.23625556597812
  H   -2.72491143789760     -0.50187500924091      0.41333020060043
  H   -1.99216485463465      0.72239468297038     -0.63725701646876
  H   -1.88079026511017     -0.99484384191211     -1.06523488204129
  N   1.92165116094825     -0.49646263814649      0.47228694845285
  O   1.84249365126811     -0.96601463615715      1.60106062618233
  O   2.94339906567838     -0.29580480317189     -0.17446206549055
  N   0.73539278354873      1.30129943668142     -0.62559349723212
  O   0.15271261086792      1.60164884125615     -1.66363913705111
  O   1.32195316827302      2.05119454362184      0.14136057629427
