15
Coordinates from ORCA-job run
  C   -0.44716177963403     -0.08737652364450      0.95459756813617
  C   0.84880041571379      0.21954972187701      0.20584516845908
  F   -0.64078800975757      0.97129289602859      1.83278443223683
  H   1.56888672111628      0.71271832351520      0.85686968053507
  H   -0.26987431337790     -0.98261286637466      1.55479215279972
  C   -1.66906292026994     -0.24157656579449      0.08440563566856
  H   -1.89340816563786      0.69933861944340     -0.42092101078226
  H   -2.52066543658953     -0.50221785219601      0.71359429641710
  H   -1.52128905351938     -1.02617404763774     -0.65671561611725
  N   0.58908364150877      1.14500551254851     -0.94582916916077
  O   0.40880924588202      0.63813024927688     -2.04685836189122
  O   0.50839967557808      2.33089908910539     -0.64993722816733
  N   1.51116216334901     -0.99979244184217     -0.35245005257046
  O   2.66446420423418     -0.83521221004733     -0.73519210239595
  O   0.86364361140409     -2.04197190425807     -0.39598539316728
