15
Coordinates from ORCA-job run
  C   -0.75918310312694      0.16831399022701      0.51601434645546
  C   0.41225042589173      0.44730111249698     -0.40261333965333
  F   -1.58462866574834      1.27997926190538      0.39959089992915
  H   0.10237151535736      0.67347897777337     -1.42036545391677
  H   -0.40057189410538      0.12794075955016      1.54539690275425
  C   -1.52051103256141     -1.07361409332020      0.11993828072246
  H   -0.92776773743822     -1.97241862160216      0.29806686911975
  H   -1.80740118054664     -1.03923506122637     -0.93261146341790
  H   -2.42494621312072     -1.13653037513903      0.72613100983826
  N   1.31136494835501     -0.74529895265148     -0.45073100687740
  O   1.93911585447345     -0.99505217793159      0.57426049595433
  O   1.29818632498473     -1.39684714410679     -1.49015514057001
  N   1.24152640431028      1.60954690233433      0.06795198409518
  O   1.86591185517922      2.19009480305757     -0.81634782774881
  O   1.25328249809588      1.86134061863285      1.26647344331538
