15
Coordinates from ORCA-job run
  C   -0.72852877478676      0.18315603281291      0.55343935240929
  C   0.42474149763637      0.44466781219864     -0.39281599262919
  F   -1.48824353860321      1.34651202469456      0.53036908025555
  H   0.09394802283780      0.74694908738381     -1.38387566964079
  H   -0.33718124098248      0.06308327906521      1.56455176317783
  C   -1.57811061327637     -0.98667066953161      0.11936593630436
  H   -1.03470718522761     -1.92763111163674      0.22050438151762
  H   -1.90257317051781     -0.87244667381061     -0.91650811075748
  H   -2.46084791143267     -1.03286494456449      0.75817378438159
  N   1.24616066489961     -0.79479370781731     -0.54155392981327
  O   1.15456552330127     -1.38456487309856     -1.61341716741515
  O   1.89430103316123     -1.13904293200998      0.44253233652748
  N   1.33988487522374      1.52668420146371      0.10886779298567
  O   1.96703937003809      2.11889462035221     -0.76571805931040
  O   1.40955144772880      1.70806785449826      1.31808450200687
