15
Coordinates from ORCA-job run
  C   -0.65926582032800     -0.19535488872796      0.80262852178259
  C   0.76776832531206      0.20093291546907      0.42581435321176
  F   -1.09083910498354      0.75276908472371      1.72111899253273
  H   1.29274597959665      0.63041630773831      1.27748469949429
  H   -0.60251238206472     -1.15363935062750      1.32395605566683
  C   -1.63235712386348     -0.25227878161872     -0.34814554844709
  H   -2.60127071027338     -0.58675675075815      0.02380257594607
  H   -1.28705931815150     -0.94548753283173     -1.11427693679694
  H   -1.75840854736133      0.74033443706585     -0.78400198872592
  N   0.76033582071909      1.24027775668242     -0.65631308245302
  O   0.88676786405599      0.85454968580952     -1.81240356367545
  O   0.54447583762786      2.38327412959263     -0.27250801915102
  N   1.58506107999612     -0.94712117388863     -0.07298849253365
  O   0.99884835873649     -1.97404995840643     -0.40339600137428
  O   2.79470974098170     -0.74786588022247     -0.10977156547689
