15

C	0.0	0.0	0.0
C	-0.549942	0.004206	-1.4263
Cl	1.793901	0.0	0.0
H	-0.29856	-0.919397	-1.942822
H	-1.640796	0.138421	-1.349228
C	-0.487973	1.142345	0.881763
H	-0.134314	2.091694	0.48514
H	-0.104246	1.001161	1.893739
H	-1.581035	1.120013	0.887281
C	-0.381583	-1.290877	0.590857
N	-0.591185	-2.339388	1.077289
N	0.019221	1.098217	-2.254293
O	0.612528	0.772166	-3.283863
O	-0.147655	2.256422	-1.876839
Br	-3.807035	0.0	0.0
