15

C	0.0	0.0	0.0
C	-0.54805	-0.063162	-1.426232
Cl	1.793663	0.0	0.0
H	-1.637958	0.082614	-1.357451
H	-0.303997	-1.013835	-1.895346
C	-0.489233	1.184123	0.823806
H	-1.582019	1.163078	0.828774
H	-0.133168	2.1128	0.383116
H	-0.108133	1.092049	1.842403
C	-0.383973	-1.259624	0.651627
N	-0.594071	-2.283366	1.188296
N	0.031571	0.982675	-2.306858
O	-0.119524	2.159324	-1.985263
O	0.618829	0.599963	-3.320542
Br	-3.804627	0.0	0.0
