15

C	0.0	0.0	0.0
C	-0.554934	0.04585	-1.410364
Cl	1.793931	0.0	0.0
H	-0.307755	0.99406	-1.884089
H	-1.648891	-0.077653	-1.332012
C	-0.486781	1.237191	0.7496
H	-1.580014	1.213701	0.760594
H	-0.127644	2.134764	0.240929
H	-0.100687	1.224817	1.769721
C	-0.392377	-1.204159	0.743159
N	-0.609156	-2.122063	1.443216
N	-0.02463	-1.011933	-2.308021
O	0.122073	-2.140512	-1.848123
O	0.200402	-0.684293	-3.473814
Br	-3.794826	0.0	0.0
