15

C	0.0	0.0	0.0
C	-0.553817	-0.012086	-1.411722
Cl	1.794033	0.0	0.0
H	-1.64817	-0.131002	-1.329701
H	-0.305479	0.915685	-1.924155
C	-0.487274	1.266853	0.697832
H	-0.102379	1.296751	1.718144
H	-1.580864	1.244969	0.708793
H	-0.126887	2.142766	0.153287
C	-0.391478	-1.173067	0.791803
N	-0.609067	-2.062067	1.527984
N	-0.023465	-1.106591	-2.26451
O	0.200134	-0.827908	-3.443097
O	0.124544	-2.21473	-1.757703
Br	-3.795481	0.0	0.0
