15

C	0.0	0.0	0.0
C	-0.368499	-0.403618	-1.461348
Cl	1.798727	0.0	0.0
H	0.497901	-0.194801	-2.090235
H	-0.610384	-1.461477	-1.520528
C	-0.486755	1.353671	0.490352
H	-1.579668	1.341455	0.485442
H	-0.114546	1.506997	1.505173
H	-0.117833	2.14206	-0.162463
C	-0.396771	-1.069199	0.920213
N	-0.60893	-1.94777	1.670467
N	-1.457148	0.305596	-2.214142
O	-2.086798	-0.395722	-2.995282
O	-1.49752	1.527303	-2.147971
Br	-3.73091	0.0	0.0
