15

C	0.0	0.0	0.0
C	-0.553945	0.03009	-1.41116
Cl	1.793922	0.0	0.0
H	-0.306615	0.973054	-1.895616
H	-1.647987	-0.092624	-1.332816
C	-0.48581	1.246233	0.734978
H	-0.102001	1.244483	1.756174
H	-0.122243	2.137611	0.217994
H	-1.579346	1.227103	0.744689
C	-0.393775	-1.195257	0.756547
N	-0.614525	-2.104667	1.466435
N	-0.021409	-1.03775	-2.296047
O	0.121193	-2.161525	-1.824292
O	0.21027	-0.722685	-3.463124
Br	-3.796386	0.0	0.0
