14
Coordinates from ORCA-job run
  C   0.84099252886108     -0.01418186403571      0.78490940743484
  C   -0.62071441617177      0.25554982161164      0.42868555561969
  Br  1.62348073973012      1.38310368204795      1.84447439288298
  H   -1.16067492148855      0.26322397583681      1.38274644866074
  H   0.93024784358928     -0.94731541695121      1.33791482778769
  N   1.63213545031148     -0.22519521382723     -0.47949559546588
  O   1.98544885037048     -1.38397271042181     -0.69034750351196
  O   1.79950452728563      0.73899142929346     -1.21401875283643
  C   -1.18074833583195     -0.85749265433396     -0.46705179060388
  H   -2.25620574705829     -0.72367724699951     -0.59003768640823
  H   -0.72013585833591     -0.83222485611537     -1.45569313175864
  H   -0.99810749498929     -1.83703010060633     -0.02026685111960
  C   -0.82094267303672      1.56878904727393     -0.18810081813829
  N   -1.05628049323557      2.61143210722734     -0.67371850254302
