14
Coordinates from ORCA-job run
  C   0.87805586527451     -0.37925441057329      0.19641379730867
  C   -0.49618798681342      0.27914206566459      0.11046037868360
  Br  1.22495826455332     -1.11837549516327      1.94315817541166
  H   -0.52996702760811      1.07365751432351      0.86165708078405
  H   1.00966438230982     -1.17338518560925     -0.53737265569995
  N   1.95306368174321      0.63793425808792     -0.09725432456948
  O   2.83962070896092      0.28054167368860     -0.86567210621985
  O   1.84816142870847      1.72731192512349      0.45373384235194
  C   -1.64008480688629     -0.71646963434541      0.32214250451603
  H   -1.61346020909800     -1.11957586672095      1.33386557543518
  H   -2.59649297149553     -0.21351475866825      0.17364030414966
  H   -1.57213397430205     -1.54056910768266     -0.39126333307000
  C   -0.60573777264481      0.90000982857771     -1.21428382077256
  N   -0.70045958270207      1.36354719329727     -2.28922541830895
