14
Coordinates from ORCA-job run
  C   0.95075311486456      0.45916476507859      0.11829425533948
  C   -0.54675154186648      0.17823888191635      0.31206183250817
  Br  1.43141463675863      0.90288236327757     -1.69390137301965
  H   -0.63449626060516     -0.28931240233965      1.30242161835330
  H   1.28191872990731      1.28612848225400      0.74341167601346
  N   1.78253576835413     -0.71510278487754      0.56709224153792
  O   1.45795272153455     -1.83069680066335      0.17617324724142
  O   2.72543912121822     -0.44803668198763      1.30624859778571
  C   -1.22880956461856     -0.72044154752492     -0.72454489985851
  H   -2.25838749015666     -0.90090520565099     -0.41063559201753
  H   -0.70757118077559     -1.67141065755590     -0.80328737728002
  H   -1.24712673865864     -0.23630578022432     -1.70027502175253
  C   -1.22741028448448      1.47437923250024      0.38377342134591
  N   -1.77846103147183      2.51041813579754      0.42416737380285
