14
Coordinates from ORCA-job run
  C   1.02080999461026      0.42734274517735      0.11269427623971
  C   -0.50022400825172      0.36387362979267      0.31581369849378
  Br  1.54199108496953      0.94013042004872     -1.65657028261710
  H   -0.64169042998165      0.12565459112355      1.37682707512625
  H   1.47914527597887      1.12477640954519      0.81285394398495
  N   1.56196479923501     -0.93828728440462      0.49680203252010
  O   1.95861874876953     -1.70757317396088     -0.36454140992227
  O   1.48798904706534     -1.15973078516812      1.70314053545758
  C   -1.18730942663945     -0.70329947220132     -0.53870927613315
  H   -1.02965510735494     -0.51426482442487     -1.60053937183142
  H   -0.80238415315702     -1.69504366261855     -0.29513613599415
  H   -2.25961563815859     -0.69571018282465     -0.33883827473128
  C   -1.07357023955979      1.68885191858542      0.08117135600640
  N   -1.55506994752539      2.74327967133012     -0.10596816659939
