14
Coordinates from ORCA-job run
  C   1.01892049569867      0.44494925125923     -0.00536408228810
  C   -0.49831554919087      0.42446534150291      0.23072135884421
  Br  1.51086830299239      0.53646810854704     -1.85313384686151
  H   -0.62298083747645      0.43572478866301      1.32013793409897
  H   1.48250789369387      1.28686186580361      0.50733580502579
  N   1.57605520018567     -0.79281048118454      0.67564460494287
  O   1.96765852840920     -1.73814594306105      0.00946638540544
  O   1.52002911708645     -0.72991268409363      1.90143579779025
  C   -1.19056116487129     -0.81271912598620     -0.34485873410196
  H   -1.05024691493106     -0.87194953314802     -1.42395027439926
  H   -2.25964814317938     -0.76316696764224     -0.13443394799514
  H   -0.79498877678373     -1.72044780745128      0.11365256858040
  C   -1.08392464079496      1.65871257852007     -0.29194192537890
  N   -1.57437351083852      2.64197060827108     -0.70571164366305
