16

C	-0.49658	0.075016	-1.442019
C	0.0	0.0	0.0
Br	-0.17039	-1.661687	-2.314402
H	1.094201	0.0	0.0
H	-1.580024	0.195566	-1.486348
C	0.237651	1.157128	-2.212962
H	-0.039476	2.132832	-1.806579
H	1.314176	1.01324	-2.088429
H	-0.025827	1.137485	-3.272868
N	-0.472494	-1.081773	0.815293
H	-1.269108	-1.551578	0.403283
H	0.289314	-1.739405	0.931437
N	-0.457538	1.267248	0.690317
O	-1.483308	1.835019	0.281553
O	0.193921	1.63448	1.660791
H	2.801084	0.0	0.0
