16

C	-0.516051	0.019262	-1.439736
C	0.0	0.0	0.0
Br	-0.100099	-1.704223	-2.289498
H	1.090579	0.0	0.0
H	-1.609851	0.058089	-1.449629
C	0.111641	1.137617	-2.250391
H	1.19749	1.082242	-2.146452
H	-0.22077	2.10368	-1.864295
H	-0.171845	1.067949	-3.302577
N	-0.449632	-1.060469	0.843964
H	-1.280783	-1.51974	0.500622
H	0.308378	-1.724934	0.924042
N	-0.52328	1.301133	0.571386
O	-1.720245	1.323093	0.878356
O	0.237353	2.262245	0.662121
H	2.83868	0.0	0.0
