16

C	-0.415691	-0.031876	-1.441112
C	0.0	0.0	0.0
Br	-2.408176	-0.065094	-1.613083
H	1.09946	0.0	0.0
H	-0.136733	0.904733	-1.918577
C	0.185418	-1.22792	-2.138339
H	1.269043	-1.172311	-1.9777
H	-0.036963	-1.219478	-3.207873
H	-0.182705	-2.149825	-1.689465
N	-0.411203	-1.13363	0.75503
H	0.252806	-1.264656	1.509984
H	-1.331513	-0.992777	1.15199
N	-0.376135	1.304218	0.62031
O	-0.199761	2.326665	-0.047733
O	-0.757303	1.3041	1.797027
H	2.620269	0.0	0.0
