16

C	-0.362257	-0.035889	-1.461147
C	0.0	0.0	0.0
Br	-2.344025	-0.193728	-1.719564
H	1.094124	0.0	0.0
H	-0.125192	0.921642	-1.917497
C	0.338921	-1.177478	-2.158554
H	0.00187	-2.141917	-1.774075
H	0.167229	-1.14928	-3.236592
H	1.409102	-1.068477	-1.93843
N	-0.403124	-1.099723	0.79859
H	-1.197885	-1.601674	0.431201
H	0.388129	-1.707974	0.958799
N	-0.427996	1.312474	0.593078
O	-0.210135	2.31379	-0.097258
O	-0.894102	1.34754	1.729417
H	2.65372	0.0	0.0
