12

C	-0.490649	-0.005521	-1.464674
C	0.0	0.0	0.0
Cl	0.130631	-1.439354	-2.314477
H	1.096621	0.0	0.0
H	-1.581553	-0.073776	-1.488316
C	-0.095078	1.214335	-2.165517
N	0.144099	2.202351	-2.754625
C	-0.49084	-1.188827	0.694568
N	-0.902298	-2.140977	1.245701
C	-0.489635	1.204105	0.669709
N	-0.904965	2.174661	1.185349
Br	3.297642	0.0	0.0
