12

C	-0.489725	0.011472	-1.465068
C	0.0	0.0	0.0
Cl	0.126055	-1.416907	-2.327905
H	1.096608	0.0	0.0
H	-1.580889	-0.051286	-1.49071
C	-0.086795	1.236169	-2.152813
N	0.156683	2.228579	-2.731782
C	-0.492203	-1.195512	0.682084
N	-0.899249	-2.154689	1.224343
C	-0.487771	1.198644	0.68156
N	-0.89196	2.168848	1.206778
Br	3.295993	0.0	0.0
