12

C	-0.489575	0.026446	-1.465092
C	0.0	0.0	0.0
Cl	0.129711	-1.393471	-2.339125
H	1.096675	0.0	0.0
H	-1.580472	-0.039252	-1.491055
C	-0.090031	1.257712	-2.143107
N	0.150991	2.255961	-2.714441
C	-0.491895	-1.203114	0.668893
N	-0.897679	-2.167255	1.202928
C	-0.489462	1.190543	0.6945
N	-0.900352	2.151209	1.231959
Br	3.299375	0.0	0.0
