12

C	-0.489604	0.004285	-1.465261
C	0.0	0.0	0.0
Cl	0.127951	-1.428246	-2.319665
H	1.096624	0.0	0.0
H	-1.580578	-0.060699	-1.490278
C	-0.089169	1.225536	-2.160873
N	0.153131	2.215582	-2.746014
C	-0.49227	-1.192322	0.687646
N	-0.898081	-2.147918	1.236874
C	-0.48803	1.201497	0.67634
N	-0.887541	2.176076	1.197006
Br	3.297445	0.0	0.0
