16

C	-0.587859	0.019646	-1.428278
C	0.0	0.0	0.0
Cl	0.274856	-1.320716	-2.333964
H	1.088297	0.0	0.0
N	-1.993515	-0.193201	-1.337958
H	-2.404536	-0.269982	-2.260032
H	-2.127653	-1.062047	-0.830283
C	-0.337426	1.23378	-2.210198
N	-0.241164	2.148326	-2.940503
N	-0.488957	-1.159217	0.690785
H	-1.147503	-0.864893	1.398629
H	0.294671	-1.611055	1.139521
N	-0.444695	1.277086	0.689915
O	-0.011064	2.323576	0.229466
O	-1.199552	1.190251	1.659505
Cl	3.242501	0.0	0.0
