16

C	-0.315641	0.061411	-1.511524
C	0.0	0.0	0.0
Cl	-2.109948	0.275905	-1.796756
H	1.092482	0.0	0.0
N	0.400451	1.128985	-2.122488
H	0.485036	0.991296	-3.120225
H	1.326666	1.202634	-1.70143
C	-0.020467	-1.273273	-2.072962
N	0.225714	-2.320666	-2.549061
N	-0.502359	-1.112142	0.715796
H	0.164306	-1.868566	0.694189
H	-1.418025	-1.40988	0.413752
N	-0.486251	1.282139	0.623307
O	-1.5635	1.246518	1.214798
O	0.218745	2.277717	0.481233
Cl	3.250948	0.0	0.0
