16

C	-0.621425	-0.054928	-1.409076
C	0.0	0.0	0.0
Cl	-0.002429	-1.602328	-2.13061
H	1.092745	0.0	0.0
N	-2.061039	-0.10302	-1.406097
H	-2.32642	-0.641924	-0.585102
H	-2.41707	0.84208	-1.316797
C	-0.156564	1.010398	-2.301974
N	0.180631	1.84551	-3.055276
N	-0.540482	-1.102696	0.788535
H	-0.319731	-0.887888	1.75556
H	0.014255	-1.917974	0.548133
N	-0.433402	1.26183	0.690789
O	-0.806582	2.21446	0.007108
O	-0.35686	1.274862	1.916682
Cl	3.236804	0.0	0.0
