16

C	-0.339711	-0.058679	-1.515819
C	0.0	0.0	0.0
Cl	-0.103124	1.6068	-2.266576
H	1.091955	0.0	0.0
N	0.521967	-1.048513	-2.048321
H	1.490175	-0.847338	-1.788092
H	0.429019	-1.131369	-3.051706
C	-1.739663	-0.407527	-1.77946
N	-2.849421	-0.722169	-2.003328
N	-0.491741	-1.104674	0.761553
H	0.063023	-1.924019	0.547868
H	-1.473016	-1.28105	0.57304
N	-0.570497	1.238986	0.60111
O	-1.802791	1.264469	0.667099
O	0.184825	2.118699	0.991477
Cl	3.31072	0.0	0.0
