13

C	0.0	0.0	0.0
C	-0.285603	-0.129586	-1.521248
Br	1.955235	0.0	0.0
H	0.455909	0.47862	-2.045306
H	-0.308141	0.975864	0.373326
H	-0.075102	-1.167481	-1.802281
C	-0.561697	-1.125926	0.830635
H	-0.271909	-1.024987	1.878464
H	-1.654399	-1.066331	0.749687
H	-0.207381	-2.090451	0.457306
C	-1.551322	0.254862	-2.155512
N	-2.329515	0.53831	-2.989904
Cl	-3.733616	0.0	0.0
