13

C	0.0	0.0	0.0
C	-0.550369	0.211356	-1.406975
Br	1.954122	0.0	0.0
H	-0.254751	1.188979	-1.79631
H	-0.299787	0.854008	0.607753
H	-1.648178	0.194467	-1.301152
C	-0.493986	-1.291335	0.623514
H	-1.587484	-1.254131	0.639873
H	-0.161887	-2.152765	0.039487
H	-0.117647	-1.393646	1.643484
C	-0.127134	-0.817803	-2.351706
N	0.21488	-1.632604	-3.124215
Cl	-3.734845	0.0	0.0
