17

C	-0.49028	-0.013692	-1.448072
C	0.0	0.0	0.0
Br	-2.430596	0.045758	-1.605798
H	1.09115	0.0	0.0
C	0.119819	1.083385	-2.299565
H	-0.165452	0.924285	-3.343172
H	1.207472	1.047381	-2.182031
H	-0.240883	2.058935	-1.978765
N	-0.027951	-1.348903	-2.077778
O	1.102057	-1.691304	-1.747703
O	-0.732394	-1.877041	-2.930037
C	-0.505957	-1.131882	0.75047
N	-0.872503	-2.08146	1.340062
N	-0.420295	1.286545	0.645095
O	-1.284208	1.241914	1.538856
O	0.266144	2.264215	0.349087
H	2.528213	0.0	0.0
