17

C	-0.550095	-0.005401	-1.4176
C	0.0	0.0	0.0
Br	0.290844	-1.519153	-2.36101
H	1.091855	0.0	0.0
C	-2.050412	-0.130187	-1.537653
H	-2.373285	-1.027258	-1.007719
H	-2.347103	-0.196811	-2.583185
H	-2.505315	0.753234	-1.087029
N	-0.061212	1.227806	-2.179683
O	-0.761266	1.598399	-3.117864
O	1.010196	1.707548	-1.846651
C	-0.385369	-1.198674	0.71195
N	-0.702242	-2.173864	1.290558
N	-0.406089	1.157967	0.753274
O	-0.8998	2.133849	0.146806
O	-0.095975	1.158725	1.957869
H	2.316249	0.0	0.0
