17

C	-0.369793	0.061027	-1.473937
C	0.0	0.0	0.0
Br	-2.307596	0.381462	-1.72825
H	1.090787	0.0	0.0
C	0.449687	1.028883	-2.29979
H	1.500082	0.853827	-2.029451
H	0.19096	2.052829	-2.051385
H	0.272004	0.835505	-3.357593
N	-0.078404	-1.319761	-2.093452
O	-0.454971	-1.496013	-3.246398
O	0.592255	-2.10248	-1.431561
C	-0.578566	-1.125678	0.700975
N	-1.030716	-2.051564	1.268571
N	-0.311956	1.23266	0.731281
O	-0.068004	2.307246	0.169175
O	-0.650627	1.12715	1.916849
H	2.40579	0.0	0.0
