17

C	-0.274963	0.034354	-1.512059
C	0.0	0.0	0.0
F	0.040835	1.373889	-1.853434
H	1.088925	0.0	0.0
N	0.622428	-0.764163	-2.284088
H	1.53996	-0.603397	-1.859288
H	0.38353	-1.728452	-2.078558
N	-1.631709	-0.247707	-1.809109
H	-2.193609	0.384695	-1.252153
H	-1.788664	-0.059554	-2.792433
N	-0.456039	-1.28345	0.578217
O	-0.135696	-2.328299	0.011595
O	-1.110601	-1.264069	1.629612
N	-0.648393	1.112036	0.673556
H	0.069426	1.813063	0.801438
H	-0.938702	0.794156	1.589647
F	2.597867	0.0	0.0
