17

C	-0.413196	0.139327	-1.463634
C	0.0	0.0	0.0
F	-1.815668	0.45809	-1.463563
H	1.095648	0.0	0.0
N	0.252241	1.28225	-2.033895
H	0.041656	2.053641	-1.408326
H	1.243372	1.077064	-1.890321
N	-0.14369	-0.970161	-2.286346
H	-0.505474	-0.773866	-3.210471
H	-0.502529	-1.828652	-1.897739
N	-0.507207	-1.24389	0.670559
O	-0.413159	-2.326343	0.084551
O	-0.958217	-1.144689	1.815799
N	-0.39434	1.179048	0.715607
H	0.24036	1.294805	1.494763
H	-1.33822	1.097911	1.070936
F	2.563165	0.0	0.0
