19

C	0.0	0.0	0.0
C	-0.228338	0.185705	-1.532983
F	1.364667	0.0	0.0
H	0.280205	1.128879	-1.743686
C	-0.524369	1.163919	0.793895
H	-0.183116	2.11654	0.382896
H	-0.178311	1.038737	1.821349
H	-1.625029	1.107787	0.769936
N	-0.621824	-1.203951	0.550518
O	-1.80786	-1.374844	0.015847
O	-0.30309	-1.493065	1.734378
C	-1.579864	0.174959	-2.208093
H	-2.288933	0.78361	-1.64423
H	-1.985739	-0.830997	-2.219722
H	-1.461434	0.565672	-3.22527
N	0.638813	-0.811288	-2.253348
O	0.444229	-2.00409	-2.043863
O	1.469828	-0.361683	-3.048339
H	-2.993749	0.0	0.0
