19

C	0.0	0.0	0.0
C	-0.230968	0.136873	-1.538618
F	1.36476	0.0	0.0
H	0.243726	1.091479	-1.776415
C	-0.526542	1.189044	0.755874
H	-1.626471	1.122933	0.744371
H	-0.200488	2.128431	0.304786
H	-0.168276	1.106516	1.783342
N	-0.615303	-1.184838	0.599803
O	-0.29364	-1.418311	1.795148
O	-1.802567	-1.38274	0.077661
C	-1.580276	0.056714	-2.214341
H	-2.308176	0.664703	-1.673657
H	-1.474124	0.408778	-3.247257
H	-1.955245	-0.961357	-2.182643
N	0.672679	-0.849471	-2.224337
O	0.500806	-2.042094	-1.995499
O	1.513021	-0.396097	-3.007312
H	-2.989436	0.0	0.0
