15
Coordinates from ORCA-job run
  C   1.25373417537294      0.04937519010354      0.10517695348462
  C   -0.23552841020950      0.37089733421942      0.02779298812618
  F   1.53160682257072     -1.09537549266945     -0.62933985171306
  H   -0.38171394403409      1.27404009956109      0.63444355153238
  H   1.84670975336651      0.86058435830298     -0.32990666172693
  C   1.69698912735847     -0.16592675372555      1.49227338605241
  N   2.02696315261819     -0.31214919581499      2.60881944324018
  C   -1.07570549372856     -0.76270774881521      0.60954549671840
  H   -0.91279155871442     -1.68530642152779      0.04899136955063
  H   -2.13681629611139     -0.51200542869220      0.54946016057433
  H   -0.83338850775614     -0.95046677258098      1.65787550795347
  C   -0.61859817356879      0.67572722216772     -1.41871520037334
  H   -0.03301288236863      1.50571295168365     -1.82373417452063
  H   -0.45508644174738     -0.19917759071729     -2.05097489966912
  H   -1.67436132304793      0.94777824850505     -1.48170806922952
