15
Coordinates from ORCA-job run
  C   1.13741785766622     -0.48393277957838      0.16740222585207
  C   -0.30061231439400     -0.00060983777323      0.30896636411391
  F   1.33766433007931     -1.62677146892329      0.92796418130017
  H   -0.45010957472137      0.23243563228251      1.36998421113005
  H   1.34877530409513     -0.74742559987173     -0.87543023194620
  C   2.10483784734929      0.53565899769578      0.60438841124482
  N   2.85520777818286      1.36885711389328      0.95109447074712
  C   -1.25960908717740     -1.11468796809360     -0.09983955114323
  H   -1.10432263099559     -2.01358716447981      0.49740495767294
  H   -2.29377108110453     -0.78962020876248      0.03366554468233
  H   -1.12360557623053     -1.37378657335684     -1.15469437295215
  C   -0.51446485758405      1.26296365148622     -0.52076798360175
  H   -0.32279844991100      1.06884050806458     -1.58088721979839
  H   -1.54919704249207      1.59951277888309     -0.42866578691951
  H   0.13358749723774      2.08115291853390     -0.19958522038219
