15
Coordinates from ORCA-job run
  C   1.25533141546714      0.00019948404469      0.09444570742638
  C   -0.21951316459998      0.38182338120154      0.01556926035233
  F   1.47880652990964     -1.17994435999629     -0.60180614300345
  H   -0.32191590856446      1.31205382060855      0.58934462403684
  H   1.87876664610549      0.76980019977991     -0.37243654874818
  C   1.70042707439658     -0.18594736328404      1.48506242133982
  N   2.03342448604460     -0.30766647674164      2.60373654224648
  C   -1.10162371273619     -0.69287524417430      0.64533883417026
  H   -0.86556578378752     -0.84321383583355      1.70130784515671
  H   -0.97347511662218     -1.64465191461810      0.12569860585658
  H   -2.15281560350436     -0.40563167395107      0.57305993670064
  C   -0.60163661513085      0.64894922716181     -1.43858241720092
  H   -1.64379647044681      0.96872163671374     -1.50374381741152
  H   0.01870110977021      1.43373086596389     -1.88030355116666
  H   -0.48611488630132     -0.25634774687514     -2.03769129975530
