15
Coordinates from ORCA-job run
  C   1.25809665118906     -0.42018411024919     -0.10009256268667
  C   -0.20957676122814     -0.29058399893378     -0.48903789612038
  F   1.57343084397313     -1.75035873096245      0.13583193132078
  H   -0.32545211031741     -0.92611957013114     -1.37566911609021
  H   1.90460119213868     -0.07566396173149     -0.91373033851347
  C   1.56932994855824      0.35772132881124      1.11098279678627
  N   1.79090471189337      0.99996160129954      2.06770528369237
  C   -0.52525603945024      1.15494289545895     -0.86380834877209
  H   -0.41981624827343      1.81626952760591      0.00041909908707
  H   0.13141809745729      1.52205454168545     -1.65775472810642
  H   -1.55445427669258      1.23420702841255     -1.22016019356659
  C   -1.12132607454988     -0.80936551432357      0.61753935278246
  H   -0.85791038697547     -1.82962940139036      0.90070943781371
  H   -1.05447794733599     -0.17603950843576      1.50660374709910
  H   -2.16051160038664     -0.80721212711591      0.28046153527408
