14

C	0.0	0.0	0.0
C	-0.332171	-0.070363	-1.515587
Cl	1.773212	0.0	0.0
H	0.279327	-0.8785	-1.924984
H	-1.391492	-0.257604	-1.637678
N	-0.372201	1.336371	0.644814
O	-0.519522	2.31321	-0.081369
O	-0.382388	1.342201	1.868229
C	-0.868008	-1.026322	0.631086
N	-0.845786	-2.09834	1.163891
N	-0.051489	1.123375	-2.378788
O	1.090422	1.565468	-2.443182
O	-1.000486	1.538421	-3.043433
H	-2.104399	0.0	0.0
