14
Coordinates from ORCA-job run
  C   1.02965647323736      0.06779449944841     -0.11612213680087
  C   -0.32658871942392     -0.10016842810343      0.58917737177226
  H   1.08306953856553      1.08542886411361     -0.51423772697093
  H   -0.41292014720649     -1.14513657562778      0.91363750615271
  H   1.83471163011159     -0.03379792733020      0.62444697523693
  N   1.11972959578445     -0.87578645821795     -1.22639222295206
  H   1.81262646955023     -0.56536267792492     -1.89473629905705
  H   1.41440381905765     -1.78267559541826     -0.88596789238931
  C   -1.49821013351272      0.23618731225926     -0.33447253497320
  H   -2.45418232058282      0.04143965397241      0.15485478683762
  H   -1.46589898223511      1.29151166773541     -0.61607696500661
  H   -1.42096764144188     -0.37081887801889     -1.23565598958190
  C   -0.35361820670587      0.73061075889733      1.79583993116010
  N   -0.36181137519799      1.42077378421499      2.74570519657231
