14
Coordinates from ORCA-job run
  C   0.73211091954332     -0.25136714890368     -0.60176030401345
  C   -0.36225381383590     -0.01948501793071      0.44599534042010
  H   0.49702809406730     -1.18981648608731     -1.12705752886580
  H   -0.25712080192208     -0.78659791340401      1.22370055125567
  H   0.68025061940719      0.55496850023436     -1.33923164017824
  N   2.04639926891364     -0.22427071191841      0.02486465015025
  H   2.76885427039709     -0.07808944671416     -0.66763349993789
  H   2.23537231937841     -1.10687484011959      0.48301555126686
  C   -1.76452986003949     -0.11239737642293     -0.16198854966073
  H   -1.91495129468332     -1.09741696382980     -0.60999226010947
  H   -1.89486001580283      0.64502151542284     -0.93808942409796
  H   -2.53343149080377      0.04194999354632      0.59649262443998
  C   -0.16818251386307      1.28194146001294      1.09070783131292
  N   -0.06568570075650      2.34343443611414      1.58097665801777
