14
Coordinates from ORCA-job run
  C   1.05992384270532     -0.06377405608595      0.02838417482175
  C   -0.36060494290781     -0.18980866323067      0.59947319518942
  H   1.76581106220966     -0.45212001953338      0.76664756428153
  H   -0.53267938939974     -1.24934690365260      0.81745320576022
  H   1.28942062135682      1.00267907077312     -0.10870138005179
  N   1.16754103988406     -0.85770450482639     -1.19279851117647
  H   2.12216981009310     -1.16344213627461     -1.32596243789998
  H   0.91900846804479     -0.29959014379143     -1.99887560603342
  C   -1.42229711334199      0.29655035050441     -0.38900886519662
  H   -1.38719854875118     -0.31851765330148     -1.28918888646313
  H   -2.42296866676587      0.22040394213808      0.03940429338404
  H   -1.24599516581194      1.34150735172577     -0.65884320524931
  C   -0.44872168644138      0.55586219142303      1.85806554030350
  N   -0.50240933087383      1.17730117413210      2.85295091833026
