15

C	0.0	0.0	0.0
C	-0.408954	-0.046743	-1.469862
F	1.39049	0.0	0.0
H	-1.496945	-0.169277	-1.405316
H	-0.363377	-0.89221	0.500738
C	-0.460424	1.192381	0.723901
N	-0.590072	2.16779	1.365424
N	0.221957	-1.246947	-2.039623
H	-0.191723	-1.419712	-2.94851
H	1.209495	-1.063556	-2.186598
C	-0.018674	1.241977	-2.18922
H	-0.257313	1.163191	-3.254885
H	-0.561786	2.098518	-1.781599
H	1.057341	1.433851	-2.095586
F	-2.541429	0.0	0.0
