15

C	0.0	0.0	0.0
C	-0.382768	-0.149426	-1.517632
F	1.386676	0.0	0.0
H	0.578172	0.013403	-2.024007
H	-0.381321	-0.80918	0.615591
C	-0.415671	1.296623	0.554878
N	-0.556956	2.390477	0.957613
N	-1.358069	0.771436	-2.075106
H	-1.002609	1.718193	-1.969361
H	-2.144906	0.660855	-1.399655
C	-0.86414	-1.572904	-1.76392
H	-0.190584	-2.316152	-1.323147
H	-0.94703	-1.761045	-2.836106
H	-1.844185	-1.640256	-1.287854
F	-2.60467	0.0	0.0
