15

C	0.0	0.0	0.0
C	-0.49779	0.41427	-1.409974
F	1.379566	0.0	0.0
H	-1.238573	1.202643	-1.256949
H	-0.363815	-0.995615	0.238506
C	-0.421107	0.956298	1.038167
N	-0.533552	1.75834	1.888171
N	-1.136335	-0.770059	-1.992833
H	-1.961718	-0.80904	-1.361727
H	-1.483915	-0.502544	-2.910936
C	0.633964	0.926466	-2.291861
H	1.367302	0.14137	-2.484962
H	1.143148	1.782553	-1.84131
H	0.213022	1.250876	-3.250123
F	-2.586471	0.0	0.0
