15

C	0.0	0.0	0.0
C	-0.386237	-0.179518	-1.513899
F	1.385264	0.0	0.0
H	0.576746	-0.047827	-2.0255
H	-0.375964	-0.800744	0.631259
C	-0.426033	1.299787	0.538698
N	-0.588547	2.377812	0.974657
N	-1.339499	0.756446	-2.082394
H	-0.96321	1.694881	-1.983583
H	-2.129588	0.668188	-1.409327
C	-0.894847	-1.598384	-1.725011
H	-1.842838	-1.654469	-1.18785
H	-0.187121	-2.339054	-1.333193
H	-1.048688	-1.782037	-2.791148
F	-2.598701	0.0	0.0
