15

C	0.0	0.0	0.0
C	-0.392283	-0.127024	-1.516571
F	1.385252	0.0	0.0
H	0.570982	0.007865	-2.027475
H	-0.376731	-0.820776	0.604665
C	-0.425557	1.279006	0.588617
N	-0.597035	2.325057	1.093602
N	-1.335523	0.840705	-2.04769
H	-0.948643	1.770757	-1.917773
H	-2.126957	0.732895	-1.380444
C	-0.923598	-1.529303	-1.776078
H	-1.100645	-1.661896	-2.846748
H	-0.220927	-2.296983	-1.430964
H	-1.862373	-1.593333	-1.223766
F	-2.605684	0.0	0.0
