13

C	-0.484381	0.007512	-1.420689
C	0.0	0.0	0.0
Br	-0.067742	1.702215	-2.242969
H	1.091116	0.0	0.0
H	-0.039771	-0.774755	-2.02543
H	-0.391475	0.828457	0.58358
N	-1.976005	-0.1833	-1.519459
O	-2.394811	-0.738075	-2.529983
O	-2.659267	0.247374	-0.596277
N	-0.442967	-1.25007	0.669133
O	-0.681079	-2.225515	-0.046048
O	-0.510438	-1.23684	1.892146
Cl	3.256772	0.0	0.0
