13

C	-0.512452	0.005702	-1.409925
C	0.0	0.0	0.0
Br	-0.027338	1.662664	-2.274486
H	1.090855	0.0	0.0
H	-0.128536	-0.812422	-2.010642
H	-0.375388	0.838438	0.580922
N	-2.016526	-0.102622	-1.466827
O	-2.654107	0.375859	-0.533824
O	-2.489954	-0.645443	-2.459458
N	-0.450039	-1.235269	0.691997
O	-0.786348	-2.194343	-0.007678
O	-0.429437	-1.227029	1.917047
Cl	3.261551	0.0	0.0
