13

C	-0.584032	0.083466	-1.387227
C	0.0	0.0	0.0
Br	-2.509746	0.316419	-1.350756
H	1.091047	0.0	0.0
H	-0.167843	0.961773	-1.879831
H	-0.330107	0.865638	0.572939
N	-0.193016	-1.078122	-2.291788
O	1.006457	-1.104487	-2.530845
O	-1.046777	-1.83995	-2.719142
N	-0.474458	-1.190272	0.744355
O	-0.523103	-2.254378	0.130633
O	-0.750085	-1.039475	1.932289
Cl	3.268192	0.0	0.0
