16

C	0.0	0.0	0.0
C	-0.284777	0.115433	-1.513736
F	1.406761	0.0	0.0
H	0.451359	0.876092	-1.840697
H	-0.320208	0.928256	0.481611
C	-0.611814	-1.183999	0.685716
H	-0.330318	-2.114781	0.192653
H	-1.698332	-1.019067	0.597286
H	-0.317201	-1.215256	1.739602
N	-1.606553	0.553514	-1.867528
H	-2.306718	0.378389	-1.086507
H	-1.929016	-0.007625	-2.647664
N	0.067349	-1.184279	-2.132185
H	1.029771	-1.389028	-1.877385
H	0.069304	-1.040962	-3.138351
F	-3.261284	0.0	0.0
