16

C	0.0	0.0	0.0
C	-0.512883	-0.120242	-1.458211
F	1.393514	0.0	0.0
H	0.391722	-0.154518	-2.079818
H	-0.294562	0.986304	0.372916
C	-0.484742	-1.047489	0.971531
H	-0.029719	-0.87176	1.952521
H	-0.220356	-2.043126	0.614011
H	-1.571215	-0.935855	1.019572
N	-1.335946	1.020862	-1.880274
H	-2.149058	0.937987	-1.245516
H	-0.847177	1.882406	-1.647141
N	-1.264078	-1.354394	-1.640569
H	-1.570619	-1.338744	-2.610045
H	-2.11226	-1.172783	-1.077973
F	-3.017177	0.0	0.0
