11
Coordinates from ORCA-job run
  C   -0.24097119582422      0.08317700147161     -0.22252725147974
  C   1.24720392206846     -0.11016249998767     -0.01819898946020
  F   -0.47927088993624      0.00957152362553     -1.61199228711602
  H   1.49786798827700     -0.00718120482432      1.03693464867556
  H   1.79925389457674      0.62405673848958     -0.60384107560961
  H   1.52303955017102     -1.10926503941553     -0.36306079893857
  C   -0.66983151785090      1.43913938590595      0.18426092331184
  N   -0.99190703056444      2.52048741831364      0.50563234046133
  N   -0.99459008819416     -0.87170969344546      0.50026062665875
  H   -0.70468078361111     -1.81154537711904      0.26047881243443
  H   -1.98711384911215     -0.76656825301428      0.33205305106224
