11
Coordinates from ORCA-job run
  C   -0.22057210083073      0.10020930323206     -0.23613428248146
  C   1.23919675763563     -0.16967024901703      0.06378063919582
  F   -0.36548611429775      0.07109456739833     -1.63996674095408
  H   1.86444982463572      0.54952217416734     -0.46409828461443
  H   1.42109174242975     -0.10233605146346      1.13578447830554
  H   1.49093435055255     -1.17319932648123     -0.28668510054110
  C   -0.61346682803445      1.46509547337927      0.17719354454614
  N   -0.90843978302869      2.55193966036779      0.50601722355619
  N   -1.06614776086790     -0.83429803673970      0.40770912651208
  H   -0.80502558864603     -1.78069438811018      0.16113149688682
  H   -2.03853449954811     -0.67666312673318      0.17526789958848
