11
Coordinates from ORCA-job run
  C   -0.21869218958435      0.05127397705068     -0.34670914564900
  C   1.25464470017101     -0.13915558714216     -0.05839353219593
  F   -0.39963775888389      0.09759988577836     -1.72065648613007
  H   1.82747155342024      0.65062365314270     -0.54395779241430
  H   1.44992728690512     -0.10799215008194      1.01524842850547
  H   1.55373203937699     -1.10779222206867     -0.45973359092457
  C   -0.68903138308769      1.36849499319016      0.16628504953570
  N   -1.06924171259032      2.37865928290799      0.62919113946417
  N   -0.98292779458348     -1.05458965526168      0.14304739098351
  H   -0.74953083353261     -1.26322311550502      1.10453278492535
  H   -1.97671390761102     -0.87389906201041      0.07214575389968
