11
Coordinates from ORCA-job run
  C   -0.23131107502710      0.09988532788810     -0.22525733921076
  C   1.24338694970552     -0.14719434156619      0.01568529690727
  F   -0.42731880900404      0.09236572005353     -1.62337609519192
  H   1.46349247074079     -0.09811922043161      1.08142411387461
  H   1.83497566482976      0.59473398042807     -0.51944348724380
  H   1.50079878531798     -1.13815535629418     -0.36498106974259
  C   -0.63325470327773      1.45022692528078      0.22546465539217
  N   -0.93518927425384      2.52657208517876      0.58141146097291
  N   -1.03520233868958     -0.86121265063452      0.43193734762045
  H   -0.76420469143517     -1.79838684104291      0.16221319132414
  H   -2.01817297890660     -0.71971562885981      0.23592192529752
