11
Coordinates from ORCA-job run
  C   -0.23853148537141      0.12933032566107     -0.31178122279386
  C   1.21886759690112     -0.26339731735940     -0.20388060677240
  F   -0.52506937490536      0.41155978967974     -1.63875249761103
  H   1.36169991683777     -1.18441017408708     -0.76959885716229
  H   1.50543704618635     -0.42169430756544      0.83753625918388
  H   1.84224256716093      0.52496622862252     -0.62507504740690
  C   -0.50048225065335      1.39207660741597      0.43400415389728
  N   -0.71548462098515      2.35132153787274      1.07655821695562
  N   -1.08972156251484     -0.95053422001763      0.08378143514553
  H   -2.05595244874415     -0.65363296663354      0.14269465310818
  H   -0.80400538391190     -1.33458550358894      0.97451351345598
