14
Coordinates from ORCA-job run
  C   -0.65116063199848     -0.55944604312218      0.10780989195810
  C   0.74683309298832     -0.19009354113901     -0.38167482339900
  H   -0.57202906701508     -1.37319444600154      0.83461904353593
  H   1.14407020968932     -1.04183669666515     -0.94616441616591
  C   -1.51371214185544     -0.94066948885188     -1.00103890833792
  N   -2.18286591838073     -1.28533848130309     -1.90281103260368
  N   -1.28065407905098      0.59550549538168      0.87737144019012
  O   -2.48476236811656      0.51996140349976      1.06440312836300
  O   -0.51033288013823      1.45639593945856      1.28316634253360
  N   1.69922062508076     -0.04831019498676      0.80276929442850
  O   2.57447559957857      0.79512107261658      0.71525193294417
  O   1.52665561605310     -0.85564268349336      1.70601728749037
  C   0.76092032175571      1.00134663821428     -1.21719929731641
  N   0.74134162140971      1.92420102639211     -1.94351988362087
