14
Coordinates from ORCA-job run
  C   -0.74297980387896     -0.42761381995744      0.01134880826710
  C   0.78313053464777     -0.37169944701513     -0.02190471765511
  H   -1.04612779270083     -1.47251213960348     -0.12192698075262
  H   1.17571268893327     -0.88014255477006      0.86407394470473
  C   -1.36087201098701      0.40048753204259     -1.01330281493278
  N   -1.83149654469135      1.02734094611592     -1.88798671249757
  N   -1.25440479695995     -0.06393431979400      1.40324835140975
  O   -0.59516587779346     -0.51716677506356      2.32896563375099
  O   -2.28944745931595      0.57549950533028      1.46829479687510
  N   1.27283600285851      1.06621991902063      0.09668296066218
  O   2.41291045553513      1.28283729588474     -0.28195039507777
  O   0.49250467775084      1.85282165500974      0.61821234671291
  C   1.30356410649212     -0.97499393795765     -1.24005383595804
  N   1.67983582010985     -1.49914385924259     -2.22170138550889
