14
Coordinates from ORCA-job run
  C   0.71415200795057     -0.24454983093417     -0.41069753859948
  C   -0.79591303902574     -0.02731236904478     -0.34024049447991
  H   0.93850336275092     -0.75383321217048     -1.35521751349308
  H   -1.08885901113828      0.68362515614412     -1.11863367129076
  C   1.22741473451163     -1.02420570127772      0.70565100208994
  N   1.60490315003806     -1.70245076079588      1.58713640894789
  N   1.43319304136713      1.09691868645673     -0.52855527442975
  O   0.88222979355735      1.91512222172076     -1.25272425633220
  O   2.50340218161645      1.20923366883263      0.04301902823328
  N   -1.18809808224341      0.64072352526315      0.97111941369427
  O   -2.36886534907857      0.57599217020991      1.27460087511376
  O   -0.29200300473308      1.22909677063921      1.56274720814237
  C   -1.51477007880468     -1.28386486627821     -0.49082980850862
  N   -2.05428970676837     -2.31549545876525     -0.64837537908774
