14
Coordinates from ORCA-job run
  C   -0.74727185061879     -0.41304963237132     -0.09515068280636
  C   0.77897201645572     -0.37082097474919     -0.08352155884200
  H   -1.05564872306349     -1.40590256995027     -0.44280174760880
  H   1.14903023338206     -1.06571004825913      0.67613488088138
  C   -1.33651429962520      0.61091648740033     -0.94484200813469
  N   -1.78107117680690      1.40629780370169     -1.68576169203523
  N   -1.28762964913464     -0.33030844928618      1.32995871155073
  O   -2.33843139949841      0.26508580976108      1.49271277866153
  O   -0.63607463214364     -0.94008967619342      2.16717281330336
  N   1.28176696306793      0.99839054503960      0.35770792003679
  O   2.45565249912679      1.23833090317346      0.12285906688204
  O   0.47679747173096      1.70036546980720      0.95636134520840
  C   1.32302362817857     -0.69765406583868     -1.39341851342237
  N   1.71839891894901     -0.99685160223515     -2.45841131367478
