17

C	0.0	0.0	0.0
C	-0.376234	-0.061903	-1.563276
Cl	1.733347	0.0	0.0
H	0.49919	0.367933	-2.047991
N	-0.83721	1.061546	0.638733
O	-0.8737	1.050505	1.889799
O	-0.785164	2.157527	-0.030543
N	-0.331784	-1.287467	0.820311
O	0.352722	-1.527165	1.80426
O	-1.289482	-1.957417	0.440801
N	-1.528065	0.574923	-2.113365
H	-1.5394	1.492792	-1.664479
H	-2.356743	0.073935	-1.818093
N	-0.375893	-1.510639	-2.012357
O	0.68279	-2.124011	-1.905008
O	-1.416673	-1.978368	-2.460169
H	-1.995092	0.0	0.0
