13
Coordinates from ORCA-job run
  C   -0.28882172514707      0.22354661416145      0.20034022769131
  C   0.63039020543310     -0.96215736843546     -0.10867923910800
  Br  0.24209194803419      0.92514311796020      2.01020209610497
  H   0.33194089278745     -1.35050076505445     -1.08859246935187
  H   0.48194543053672     -1.75944912277172      0.62497998176850
  N   -1.63793716777781     -0.23577680925498      0.17148225339420
  H   -1.80310404592800     -0.97851239201536      0.84109916645658
  H   -2.27890253522847      0.52382897120695      0.36794235937618
  N   -0.03467615489106      1.29629028811471     -0.72212690095760
  H   -0.36207390092993      2.18375318843255     -0.36434159898485
  H   -0.50971943312484      1.08886203223185     -1.59478443430437
  C   2.04199568428179     -0.59809137417355     -0.14683116410437
  N   3.18887080195393     -0.35693638040219     -0.19069027798068
