13
Coordinates from ORCA-job run
  C   -0.24491443691774      0.21591629679810      0.34311999941893
  C   0.62631229424257     -0.96858285564791     -0.08509978594105
  Br  0.36412475044479      0.85223385098946      2.09441228506976
  H   0.21641630988224     -1.37502810544843     -1.01931998342914
  H   0.54547872944475     -1.75081661274998      0.67099189866271
  N   -1.58766143393032     -0.29972268993183      0.55137664943866
  H   -1.99278721164299     -0.52891734821084     -0.35205389647230
  H   -2.17061193721309      0.40485876632653      0.98865568314829
  N   -0.04307330331003      1.30540831982666     -0.57997242173504
  H   -0.57624553914716      2.12148893982300     -0.30490031804995
  H   -0.32260570937293      1.02449835695630     -1.51469898829638
  C   2.02576990725948     -0.61806429705005     -0.30300003579760
  N   3.15979758026044     -0.38427262168100     -0.49051108601690
