13
Coordinates from ORCA-job run
  C   -0.14062093825910      0.38472336150235      0.23777395876563
  C   0.99150099813628     -0.36581645513531     -0.46964793553698
  Br  0.54221728551337      1.12663296008684      1.91888936161386
  H   1.81200993994066      0.33064167242637     -0.64800055380153
  H   0.62383299007215     -0.69411176611179     -1.45098465980619
  N   -1.17471085475937     -0.55445176733268      0.59616350716658
  H   -1.55306699823973     -0.98952353111708     -0.23949264851255
  H   -1.92440818006175     -0.09788783356627      1.10156182723361
  N   -0.47596564784649      1.52758378951877     -0.59507207779773
  H   -0.94904387491919      1.19462329785186     -1.43064270327583
  H   -1.10720328462381      2.14857157132546     -0.10172269781232
  C   1.46893098931975     -1.53300044099791      0.26422466244509
  N   1.88552757572723     -2.47998485845061      0.81694995931835
