19

C	0.0	0.0	0.0
C	-0.461677	0.035217	-1.458859
F	1.363872	0.0	0.0
H	0.113354	0.878329	-1.871212
N	-0.480712	1.006232	0.87938
H	-0.479309	1.89632	0.395906
H	-1.440905	0.787789	1.133088
N	-0.389596	-1.344011	0.629021
O	0.429533	-2.253476	0.549076
O	-1.506519	-1.416783	1.129533
C	-1.952452	0.322441	-1.599045
H	-2.239958	0.225458	-2.649565
H	-2.222073	1.326762	-1.272073
H	-2.587659	-0.356005	-1.026511
C	-0.057586	-1.227811	-2.21823
H	-0.688896	-2.070383	-1.92522
H	0.984236	-1.498392	-2.040479
H	-0.201089	-1.065991	-3.289564
Br	-5.149146	0.0	0.0
