19

C	0.0	0.0	0.0
C	-0.486688	-0.166621	-1.426087
F	1.360372	0.0	0.0
H	0.09718	-1.008062	-1.811237
N	-0.509016	1.107815	0.677395
H	-0.354364	1.012739	1.674169
H	-1.507873	1.194341	0.514458
N	-0.24938	-1.334759	0.801584
O	-0.094839	-2.394295	0.203933
O	-0.480667	-1.222826	2.003575
C	-0.136359	1.087057	-2.228565
H	-0.738529	1.936864	-1.902198
H	-0.345733	0.909383	-3.286584
H	0.918091	1.351323	-2.123594
C	-1.967749	-0.504171	-1.52366
H	-2.235717	-1.397912	-0.96159
H	-2.633937	0.284207	-1.171198
H	-2.222876	-0.689374	-2.571419
Br	-5.111677	0.0	0.0
