19

C	0.0	0.0	0.0
C	-0.440737	0.342003	-1.420891
F	1.363965	0.0	0.0
H	0.243047	-0.228512	-2.058886
N	-0.535354	0.752829	1.060322
H	-1.225716	0.203243	1.563373
H	-0.974435	1.597772	0.719941
N	-0.3288	-1.49495	0.235223
O	0.263703	-2.279508	-0.495345
O	-1.145842	-1.794381	1.09808
C	-0.223187	1.833501	-1.688362
H	-0.98941	2.437945	-1.195592
H	-0.315238	2.024959	-2.759511
H	0.763756	2.167366	-1.361241
C	-1.874336	-0.078525	-1.703723
H	-1.984303	-1.165638	-1.70611
H	-2.607683	0.30227	-0.989236
H	-2.167228	0.278978	-2.694602
Br	-5.056363	0.0	0.0
