15

C	0.0	0.0	0.0
C	-0.52992	-0.182539	-1.431906
F	1.414124	0.0	0.0
H	0.342958	-0.34607	-2.07251
H	-0.268092	-0.875071	0.592656
N	-0.51456	1.156752	0.607091
H	-0.366199	1.974297	0.033248
H	-0.185943	1.278314	1.552515
N	-1.181304	1.053717	-1.874347
H	-1.419546	0.949457	-2.854586
H	-2.065145	1.113855	-1.365073
N	-1.338414	-1.398718	-1.450689
H	-1.650228	-1.55772	-2.402822
H	-2.189643	-1.209368	-0.913009
Cl	-4.173623	0.0	0.0
