15

C	0.0	0.0	0.0
C	-0.46138	0.016815	-1.447709
F	1.41257	0.0	0.0
H	-1.549713	0.146013	-1.411111
H	-0.309214	-0.908638	0.52039
N	-0.483534	1.146283	0.659536
H	-0.285416	1.960924	0.094621
H	-0.095537	1.237343	1.585838
N	-0.03336	-1.223284	-2.113046
H	-0.573974	-1.30989	-2.966464
H	-0.296589	-2.014451	-1.53464
N	0.137213	1.180631	-2.084871
H	-0.272041	1.319809	-2.999653
H	1.118579	0.958799	-2.214657
Cl	-4.066487	0.0	0.0
