15

C	0.0	0.0	0.0
C	-0.391072	-0.030329	-1.481122
F	1.402188	0.0	0.0
H	0.31984	0.646598	-1.981904
H	-0.288984	-0.941581	0.47609
N	-0.492139	1.14879	0.668268
H	-0.930277	0.906025	1.544532
H	-1.189064	1.59475	0.080665
N	-1.698524	0.517284	-1.678088
H	-2.449447	0.069632	-1.146878
H	-1.960412	0.545628	-2.653098
N	-0.216111	-1.421755	-1.942205
H	-0.399712	-1.452119	-2.940138
H	0.760109	-1.672653	-1.813684
Cl	-4.454613	0.0	0.0
