14
Coordinates from ORCA-job run
  C   -0.60633565750213     -0.08194302416239      0.05774787026543
  C   0.74526503686405     -0.35944173413887      0.69798952875033
  Cl  -1.78661382641017     -0.96666783490209      1.34231139289470
  H   0.80325270001062      0.09975408925472      1.68232909807997
  H   0.92784377118540     -1.42990711026267      0.76161918879695
  N   -0.72367354592281     -0.68068819550492     -1.20252230613879
  H   -1.63453690978586     -0.53649164723385     -1.61818717906236
  H   -0.51231658005698     -1.66805025274482     -1.18065213406483
  N   -0.88829598285801      1.28935902899625      0.00581697597234
  H   -1.77462554673345      1.48864746508461     -0.43898373709269
  H   -0.86061339931560      1.72113665500868      0.91856660250371
  N   1.83473481894536      0.22928942675604     -0.13486606198272
  O   2.30472301160418     -0.48628656203460     -1.01596437672860
  O   2.17219210997540      1.38128969588391      0.12379513780657
