14
Coordinates from ORCA-job run
  C   -0.53695488693263     -0.26688059014453      0.15802689108432
  C   0.94136970776931     -0.44220214113646     -0.19012007255578
  Cl  -0.87476448451428     -1.04106702882881      1.74475457062853
  H   1.25358521655403     -1.45777505789754      0.03591239423490
  H   1.09194031997675     -0.21242167482303     -1.24554224174061
  N   -1.25474292368350     -1.06279022123070     -0.82931949065713
  H   -2.18218023518661     -1.29079629420547     -0.49197565966822
  H   -1.34699631895159     -0.51895143387933     -1.68106603076870
  N   -0.84277668821362      1.12524179017013      0.29312495423141
  H   -1.83608096431184      1.27975256382949      0.40210643516715
  H   -0.46934723091150      1.67636528529654     -0.46941680813305
  N   1.80704263219115      0.49711452791225      0.56921694917522
  O   2.23280297494534      0.12238347703907      1.65707006717386
  O   2.01810288126900      1.59202679789839      0.04722804182810
