14
Coordinates from ORCA-job run
  C   -0.69142589296301     -0.14811954164763      0.14790879399405
  C   0.72721575262355     -0.36068550687782      0.70024193637907
  Cl  -1.73603036041745     -1.05883088339018      1.38566219242352
  H   0.84342468895540      0.15481246077324      1.65216233874961
  H   0.96778519455588     -1.41745802657352      0.79754806885623
  N   -0.76139200109329     -0.65425987858393     -1.16147752805023
  H   -0.46925981935788     -1.61853657677335     -1.24213628809110
  H   -1.68623042854179     -0.51779047444025     -1.54709119247652
  N   -1.20140622791969      1.18871294299766      0.12682170644821
  H   -0.57687531142517      1.76792257046145     -0.42323658549563
  H   -1.27177829396234      1.56698061955843      1.06211587058805
  N   1.71274139437755      0.21832326146188     -0.25390204524545
  O   2.38862438617120     -0.56493998224675     -0.91497124888760
  O   1.75460691899704      1.44586901528079     -0.32964601919221
