14
Coordinates from ORCA-job run
  C   -0.68994173465199     -0.14805703926390      0.15423597336722
  C   0.73204217787289     -0.34151987865160      0.70499503522378
  Cl  -1.73440046960635     -0.92535244034279      1.47996234097052
  H   0.84831420195426      0.10965621073556      1.68837273035796
  H   0.98744458376213     -1.39962774362921      0.72890148031961
  N   -1.03217727017404     -0.83427498964623     -1.05391341659574
  H   -0.97952870370479     -1.83678238826252     -0.93135340045256
  H   -0.38804775274781     -0.55123301734196     -1.78403078927778
  N   -0.92747494043430      1.22226174216074     -0.04914496914965
  H   -1.85682086414450      1.37159140555784     -0.41882498929745
  H   -0.76326843719602      1.79069076692185      0.77036726555923
  N   1.70041558302266      0.33990585641027     -0.19767743728503
  O   2.21923502350124      1.37640256217017      0.20708403310067
  O   1.88620860254662     -0.17466104681822     -1.29997385684079
