18

C	0.0	0.0	0.0
C	-0.501276	0.062406	-1.448504
Br	1.968832	0.0	0.0
H	-1.586395	-0.064397	-1.334603
N	-0.475051	1.184705	0.68482
H	-0.233673	1.114009	1.668008
H	-1.498342	1.13521	0.62188
C	-0.422157	-1.306621	0.656218
H	-1.515731	-1.329429	0.661554
H	-0.037091	-2.159591	0.099789
H	-0.053678	-1.341561	1.685622
N	-0.006372	-1.062699	-2.225802
H	0.876797	-0.769224	-2.630379
H	-0.650616	-1.226446	-2.990284
N	-0.156592	1.352922	-2.053709
H	-0.10136	2.03399	-1.301288
H	-0.930602	1.634796	-2.645386
Cl	-3.763754	0.0	0.0
