18

C	0.0	0.0	0.0
C	-0.434542	0.130293	-1.456202
Br	2.108821	0.0	0.0
H	-1.528008	0.064796	-1.372931
N	-0.456869	1.077698	0.705426
H	-0.391553	1.965266	0.234532
H	-0.36394	1.068674	1.705094
C	-0.395228	-1.315143	0.626739
H	-0.060524	-1.355241	1.666579
H	0.028288	-2.150024	0.074586
H	-1.489819	-1.348459	0.593452
N	0.036336	-0.993896	-2.245554
H	-0.432673	-0.987224	-3.143045
H	1.036565	-0.910346	-2.393924
N	-0.110817	1.476815	-1.930812
H	0.858233	1.500723	-2.229417
H	-0.704427	1.708213	-2.717101
Cl	-3.914621	0.0	0.0
