18

C	0.0	0.0	0.0
C	-0.309255	-0.24081	-1.518061
Br	1.984162	0.0	0.0
H	0.236748	0.564143	-2.044854
N	-0.452921	1.272476	0.48485
H	-0.297146	1.99188	-0.214708
H	-1.456798	1.197125	0.650688
C	-0.521073	-1.09938	0.896094
H	-0.234361	-0.8982	1.929814
H	-1.614677	-1.096934	0.828585
H	-0.146055	-2.068672	0.575514
N	-1.687873	-0.126306	-1.911911
H	-2.035598	0.811037	-1.759374
H	-2.303197	-0.710244	-1.353115
N	0.116763	-1.576576	-1.917291
H	1.125984	-1.630104	-1.956328
H	-0.262161	-1.727649	-2.844058
Cl	-4.203124	0.0	0.0
