14

C	-0.484462	-0.025232	-1.450092
C	0.0	0.0	0.0
F	-0.193362	1.171253	-2.078299
H	1.095992	0.0	0.0
C	0.159965	-1.128255	-2.191734
N	0.590378	-2.027664	-2.812115
C	-1.949505	-0.22277	-1.506654
N	-3.119029	-0.347268	-1.520684
N	-0.356372	-1.265953	0.618207
H	-1.120197	-1.178933	1.273756
H	0.47272	-1.608263	1.09667
C	-0.512911	1.180746	0.674215
N	-0.939183	2.122906	1.23722
H	2.573014	0.0	0.0
