14

C	-0.482825	-0.1099	-1.444718
C	0.0	0.0	0.0
F	-0.196054	1.050768	-2.139257
H	1.094719	0.0	0.0
C	0.167386	-1.247784	-2.124744
N	0.619137	-2.15224	-2.721917
C	-1.946943	-0.315742	-1.490365
N	-3.114366	-0.452034	-1.485513
N	-0.353685	-1.230369	0.686997
H	-1.119559	-1.112076	1.336054
H	0.476769	-1.545295	1.182494
C	-0.508118	1.216046	0.611015
N	-0.877956	2.186669	1.164884
H	2.570948	0.0	0.0
