14

C	-0.471192	-0.040533	-1.439519
C	0.0	0.0	0.0
F	-1.866655	-0.09159	-1.521253
H	1.09524	0.0	0.0
C	-0.037508	1.157381	-2.184015
N	0.283078	2.108278	-2.794994
C	0.042447	-1.249415	-2.108471
N	0.445468	-2.200575	-2.666127
N	-0.343795	-1.245099	0.663121
H	-1.142004	-1.150911	1.275421
H	0.474398	-1.526245	1.198086
C	-0.49948	1.195939	0.659286
N	-0.896954	2.138283	1.242218
H	2.561993	0.0	0.0
