14

C	-0.487921	-0.079933	-1.448039
C	0.0	0.0	0.0
F	-0.205763	1.095538	-2.117434
H	1.094738	0.0	0.0
C	0.169403	-1.203979	-2.143942
N	0.657414	-2.102089	-2.721196
C	-1.949318	-0.292425	-1.492903
N	-3.114448	-0.449553	-1.496957
N	-0.356058	-1.24479	0.663015
H	0.474301	-1.56735	1.153251
H	-1.124117	-1.134799	1.310985
C	-0.521153	1.201811	0.629366
N	-0.933294	2.159446	1.176599
H	2.576693	0.0	0.0
