14

C	-0.48579	-0.061767	-1.434001
C	0.0	0.0	0.0
F	-1.881694	-0.134329	-1.497441
H	1.095204	0.0	0.0
C	-0.080086	1.134083	-2.197375
N	0.217228	2.082497	-2.823301
C	0.03938	-1.269079	-2.096269
N	0.453898	-2.222123	-2.642628
N	-0.340803	-1.235411	0.682875
H	0.479712	-1.512165	1.216533
H	-1.136865	-1.132145	1.296227
C	-0.500738	1.204381	0.643781
N	-0.904573	2.154301	1.210273
H	2.562795	0.0	0.0
