14

C	-0.456178	-0.070818	-1.44143
C	0.0	0.0	0.0
F	-1.852048	-0.108825	-1.547288
H	1.107855	0.0	0.0
C	0.002821	1.103855	-2.207652
N	0.327307	2.046245	-2.828993
C	0.052547	-1.302095	-2.07299
N	0.405191	-2.270096	-2.635592
N	-0.342918	-1.231282	0.688855
H	0.480422	-1.513255	1.216777
H	-1.131069	-1.1213	1.311134
C	-0.493854	1.211632	0.63051
N	-0.876214	2.173923	1.19149
H	2.544987	0.0	0.0
