14

C	-0.380725	0.240595	-1.452262
C	0.0	0.0	0.0
F	-1.774156	0.226431	-1.625171
H	1.105138	0.0	0.0
C	0.110767	1.536741	-1.948078
N	0.470858	2.573618	-2.365668
C	0.14185	-0.850275	-2.297504
N	0.463479	-1.739488	-2.993428
N	-0.377498	-1.303545	0.496749
H	-1.212535	-1.669136	0.058352
H	0.408016	-1.930739	0.350505
C	-0.523923	1.079052	0.823638
N	-0.909603	1.959908	1.5016
H	2.558899	0.0	0.0
