14

C	-0.465799	-0.046623	-1.439376
C	0.0	0.0	0.0
F	-1.860378	-0.127393	-1.522459
H	1.0958	0.0	0.0
C	-0.058515	1.159868	-2.184904
N	0.212094	2.123825	-2.797458
C	0.072986	-1.243707	-2.11252
N	0.443277	-2.167099	-2.734957
N	-0.346155	-1.245706	0.660148
H	-1.167505	-1.160876	1.242166
H	0.455676	-1.518837	1.222269
C	-0.495436	1.197865	0.659602
N	-0.865525	2.151732	1.241596
H	2.564123	0.0	0.0
