14

C	-0.478655	-0.074736	-1.449032
C	0.0	0.0	0.0
F	-0.202074	1.105696	-2.11407
H	1.095246	0.0	0.0
C	0.181669	-1.190204	-2.155991
N	0.604585	-2.09827	-2.767876
C	-1.939111	-0.29286	-1.500998
N	-3.102151	-0.455245	-1.525332
N	-0.353832	-1.245795	0.659471
H	-1.134944	-1.145102	1.29325
H	0.468297	-1.564009	1.164989
C	-0.517949	1.201098	0.63118
N	-0.94159	2.164431	1.159247
H	2.579651	0.0	0.0
