16

C	-0.435486	-0.033804	-1.443474
C	0.0	0.0	0.0
F	-0.167118	1.135431	-2.085812
H	1.090633	0.0	0.0
C	0.225012	-1.123941	-2.17592
N	0.802724	-1.918056	-2.820987
N	-1.963673	-0.189243	-1.601476
O	-2.367126	-0.78616	-2.590794
O	-2.63813	0.399852	-0.769418
N	-0.405838	-1.198867	0.67095
O	-1.005235	-2.063764	-0.005104
O	0.006285	-1.357887	1.826429
N	-0.355294	1.22288	0.729337
O	0.136219	2.252249	0.259412
O	-1.04465	1.154478	1.74449
H	2.311408	0.0	0.0
