16

C	-0.446807	-0.052053	-1.437081
C	0.0	0.0	0.0
F	0.251748	0.841152	-2.174914
H	1.091345	0.0	0.0
C	-0.349823	-1.367517	-2.086542
N	-0.337552	-2.325711	-2.769132
N	-1.953634	0.318018	-1.585752
O	-2.260516	1.063428	-2.497613
O	-2.693177	-0.244915	-0.79064
N	-0.379924	-1.166742	0.787434
O	0.07284	-2.22893	0.341621
O	-1.041098	-1.045866	1.818843
N	-0.360246	1.248635	0.637313
O	0.095746	1.415962	1.771768
O	-0.943402	2.114397	-0.039058
H	2.312562	0.0	0.0
