16

C	-0.611225	0.009329	-1.388015
C	0.0	0.0	0.0
F	-0.32503	-1.17243	-2.007031
H	1.088674	0.0	0.0
C	-2.056989	0.251251	-1.429631
N	-3.222622	0.390343	-1.485887
N	0.086041	1.057127	-2.295193
O	1.274035	0.834799	-2.483497
O	-0.592523	1.950553	-2.77931
N	-0.359807	-1.230793	0.725239
O	-1.327057	-1.88898	0.321232
O	0.360408	-1.526291	1.679168
N	-0.36871	1.162102	0.742883
O	-0.20532	1.167185	1.97197
O	-0.678003	2.159507	0.051819
H	2.290996	0.0	0.0
