16

C	-0.489056	0.009061	-1.434024
C	0.0	0.0	0.0
F	0.122731	-0.968156	-2.129979
H	1.091658	0.0	0.0
C	-1.944699	-0.082213	-1.611874
N	-3.102827	-0.14447	-1.80415
N	-0.058995	1.343596	-2.094543
O	-0.59002	2.345965	-1.634601
O	0.734484	1.273187	-3.016316
N	-0.437603	-1.173961	0.698955
O	-0.142518	-1.202643	1.90524
O	-0.922412	-2.121603	0.050896
N	-0.469652	1.180326	0.784556
O	0.351064	2.044935	1.072919
O	-1.66562	1.187655	1.079729
H	2.406682	0.0	0.0
