16

C	-0.487675	-0.042965	-1.421154
C	0.0	0.0	0.0
F	0.264093	0.751969	-2.213655
H	1.091013	0.0	0.0
C	-0.547444	-1.385934	-2.017273
N	-0.650505	-2.409156	-2.585527
N	-1.957581	0.460099	-1.541482
O	-2.722957	-0.030932	-0.725363
O	-2.219687	1.218816	-2.456207
N	-0.365508	-1.179103	0.787773
O	-1.086569	-1.076374	1.780495
O	0.160006	-2.22204	0.378681
N	-0.325251	1.245695	0.654994
O	0.073574	1.363482	1.816845
O	-0.785887	2.166835	-0.042238
H	2.303917	0.0	0.0
