16

C	-0.419392	-0.01936	-1.459482
C	0.0	0.0	0.0
F	0.244045	-0.984219	-2.121749
H	1.096561	0.0	0.0
C	-1.863092	-0.157214	-1.697264
N	-3.010449	-0.29647	-1.912625
N	0.009079	1.312236	-2.138392
O	-0.400389	2.335139	-1.607542
O	0.669292	1.218558	-3.158907
N	-0.450893	-1.156961	0.707823
O	-0.744695	-2.18042	0.057528
O	-0.337384	-1.09477	1.946876
N	-0.492128	1.202343	0.742141
O	-1.714156	1.297306	0.854959
O	0.336082	1.985441	1.189607
H	2.364438	0.0	0.0
