19

C	0.0	0.0	0.0
C	-0.511363	-0.258372	-1.423406
Cl	1.797228	0.0	0.0
H	-1.603277	-0.231986	-1.300273
N	-0.461862	1.322972	0.38312
H	-1.485066	1.272467	0.359586
H	-0.189326	1.499006	1.345129
C	-0.442915	-1.08827	0.969133
H	-1.535275	-1.133392	0.95088
H	-0.020623	-2.061308	0.712473
H	-0.10968	-0.828859	1.978349
C	-0.125611	-1.611555	-1.998162
H	-0.587723	-2.434925	-1.449043
H	-0.480578	-1.666184	-3.031747
H	0.95988	-1.730714	-2.009117
N	-0.031792	0.801836	-2.322286
H	-0.035626	1.662545	-1.782699
H	-0.729794	0.915623	-3.05004
Br	-3.943658	0.0	0.0
