19

C	0.0	0.0	0.0
C	-0.493769	0.620471	-1.30669
Cl	1.885203	0.0	0.0
H	-1.583438	0.622021	-1.162035
N	-0.455625	0.801336	1.057037
H	-0.116677	0.498487	1.957456
H	-0.264927	1.777198	0.874522
C	-0.440683	-1.433204	0.189854
H	0.011897	-2.099962	-0.543735
H	-0.153044	-1.777704	1.186689
H	-1.533335	-1.444182	0.113423
C	-0.149737	-0.184456	-2.55348
H	0.933218	-0.300229	-2.661192
H	-0.532593	0.339243	-3.434057
H	-0.612	-1.173069	-2.535004
N	-0.054492	2.01762	-1.361542
H	0.87483	2.060473	-1.766861
H	-0.686704	2.535019	-1.96131
Br	-4.132928	0.0	0.0
