19

C	0.0	0.0	0.0
C	-0.466888	0.132946	-1.471553
Cl	1.810165	0.0	0.0
H	-1.559584	0.108403	-1.384961
N	-0.453897	1.07691	0.847712
H	-0.280707	1.960392	0.380657
H	-1.468545	0.965183	0.92193
C	-0.44982	-1.307428	0.628146
H	0.016558	-2.165435	0.14501
H	-0.171587	-1.300128	1.683632
H	-1.538137	-1.372373	0.541326
C	-0.026151	-1.003551	-2.384321
H	-0.371385	-1.97367	-2.022908
H	1.062353	-1.03243	-2.48683
H	-0.458397	-0.829959	-3.371402
N	-0.114129	1.405629	-2.102352
H	-0.708225	2.143421	-1.746275
H	0.851917	1.638867	-1.897886
Br	-3.901841	0.0	0.0
