19

C	0.0	0.0	0.0
C	-0.486395	-0.140263	-1.454918
Cl	1.866809	0.0	0.0
H	-1.575456	-0.205907	-1.330779
N	-0.456326	1.229207	0.527497
H	-0.292184	1.304241	1.521084
H	-0.058646	2.023389	0.048778
C	-0.467166	-1.132664	0.888028
H	-0.149816	-0.9563	1.920183
H	-0.055965	-2.089341	0.569347
H	-1.561372	-1.146359	0.842698
C	0.023041	-1.381863	-2.16986
H	-0.48288	-1.445791	-3.13336
H	-0.184857	-2.294949	-1.611113
H	1.099099	-1.320241	-2.349244
N	-0.224857	1.029581	-2.288063
H	0.73608	1.334987	-2.175964
H	-0.851029	1.778087	-2.019706
Br	-4.112255	0.0	0.0
