19

C	0.0	0.0	0.0
C	-0.324351	-0.197301	-1.530455
Cl	1.812764	0.0	0.0
H	0.425376	-0.908104	-1.895541
N	-0.500522	1.192896	0.623995
H	-0.335719	1.998221	0.032682
H	-1.509042	1.08124	0.732529
C	-0.457835	-1.193697	0.81625
H	-0.088187	-1.095788	1.83817
H	-0.079498	-2.123814	0.385672
H	-1.550801	-1.216365	0.830007
C	-0.163746	1.107202	-2.303315
H	-0.201694	0.888319	-3.371356
H	-0.998691	1.777643	-2.080112
H	0.777445	1.614804	-2.077401
N	-1.617103	-0.757368	-1.861597
H	-2.391033	-0.234155	-1.454019
H	-1.704386	-1.694339	-1.488529
Br	-4.291152	0.0	0.0
