19

C	0.0	0.0	0.0
C	-0.310873	0.264631	-1.510947
Cl	1.809614	0.0	0.0
H	0.329801	1.113526	-1.769913
N	-0.447105	1.139438	0.772346
H	-0.201115	0.994318	1.747173
H	-1.465952	1.148199	0.722638
C	-0.511656	-1.333713	0.505852
H	-1.606121	-1.320353	0.440848
H	-0.120104	-2.172628	-0.070687
H	-0.227868	-1.473801	1.552146
C	-1.746439	0.653514	-1.812054
H	-2.482682	-0.071866	-1.467404
H	-1.840489	0.752795	-2.896165
H	-2.021587	1.6053	-1.360172
N	0.053908	-0.839223	-2.39646
H	0.958437	-1.217743	-2.141956
H	-0.636302	-1.576063	-2.310326
Br	-4.646406	0.0	0.0
