11

C	-0.538944	-0.057638	-1.411138
C	0.0	0.0	0.0
F	-0.3911	1.171094	-2.057976
H	1.092348	0.0	0.0
H	-1.609535	-0.292765	-1.400988
H	-0.005907	-0.815981	-1.990402
H	-0.342649	0.930585	0.472007
N	-0.453045	-1.215492	0.693997
H	-1.285416	-1.01966	1.234583
H	0.271556	-1.512999	1.334989
Br	3.788122	0.0	0.0
