11

C	-0.551617	-0.073894	-1.404693
C	0.0	0.0	0.0
F	-0.246177	1.083127	-2.12004
H	1.098599	0.0	0.0
H	-0.124602	-0.921009	-1.950089
H	-1.640818	-0.170824	-1.372499
H	-0.358629	0.925795	0.458352
N	-0.54176	-1.15186	0.75436
H	-0.439651	-0.949434	1.741656
H	0.082722	-1.933184	0.584982
Br	3.808702	0.0	0.0
