11

C	-0.449403	-0.010296	-1.434611
C	0.0	0.0	0.0
F	-1.816749	0.261201	-1.559039
H	1.102391	0.0	0.0
H	0.090678	0.752627	-2.001214
H	-0.270761	-0.988318	-1.891315
H	-0.3463	0.929443	0.461399
N	-0.567063	-1.139772	0.744575
H	-0.416184	-0.963997	1.73164
H	0.013133	-1.945357	0.53239
Br	3.758662	0.0	0.0
