11

C	-0.53483	0.009768	-1.40539
C	0.0	0.0	0.0
F	-0.236362	-1.196941	-2.046976
H	1.100413	0.0	0.0
H	-1.625809	0.101228	-1.404667
H	-0.081326	0.814199	-1.989929
H	-0.329047	0.932583	0.475022
N	-0.587927	-1.131664	0.735655
H	-0.140042	-1.162955	1.645062
H	-0.274318	-1.969702	0.257875
Br	3.804527	0.0	0.0
