11

C	-0.496028	-0.090309	-1.427107
C	0.0	0.0	0.0
F	-0.204703	1.083754	-2.123475
H	1.093656	0.0	0.0
H	-1.587491	-0.209058	-1.464019
H	-0.01933	-0.919787	-1.957241
H	-0.321971	-0.910773	0.520801
N	-0.478751	1.172785	0.730271
H	0.045223	1.974217	0.402585
H	-1.453624	1.342944	0.50659
Br	3.794043	0.0	0.0
