13
Coordinates from ORCA-job run
  C   0.19574330136271      0.39271391621440     -0.18681807122453
  C   -0.94160529562459     -0.60909056455082      0.09313747151792
  H   -0.17000870393751      1.14033160388405     -0.89899936462370
  H   -0.62152750264554     -1.32928960883450      0.85184967077445
  H   -1.15678337888742     -1.16850467649743     -0.82205563879653
  C   1.41590034945474     -0.31997240361442     -0.77730927707302
  H   1.78709194448159     -1.08194212487615     -0.08850528847233
  H   2.22224816312391      0.38907855327529     -0.96958275286047
  H   1.14675488110844     -0.80096418061774     -1.72046132218412
  C   0.55701178430808      1.09689503444015      1.04677659349426
  N   0.87000523965869      1.63646171515123      2.04145635493693
  C   -2.16483306361371      0.05243527728617      0.54274262909770
  N   -3.14199771878937      0.60284745873977      0.88776899541343
