13
Coordinates from ORCA-job run
  C   0.20166564366608      0.39077991281216     -0.18806537203870
  C   -0.94609505633524     -0.60322866093575      0.07566695704126
  H   -0.14355617371066      1.13136467189755     -0.91767459369863
  H   -0.64354439205503     -1.32167681324107      0.84329566265300
  H   -1.14722859911186     -1.16583407914263     -0.84096852231009
  C   1.43221235350492     -0.33437357519457     -0.74068665908492
  H   1.18256898772292     -0.82962468085511     -1.68164550942931
  H   2.24485534815657      0.36914163225157     -0.92655900607454
  H   1.78571857391991     -1.08618735307252     -0.03190715310991
  C   0.53712684043009      1.10853740328542      1.04486534794492
  N   0.82881124182450      1.66204275669251      2.03827968156264
  C   -2.17510755502249      0.06465886788297      0.49936575870455
  N   -3.15942721298973      0.61439991761950      0.82503340783973
