16

C	-0.525947	-0.021462	-1.441156
C	0.0	0.0	0.0
Cl	-2.297897	-0.215423	-1.441571
H	1.091833	0.0	0.0
N	-0.167647	1.316049	-2.123496
O	1.00604	1.619503	-2.000637
O	-1.031087	1.925527	-2.731921
C	0.061737	-1.084303	-2.246918
N	0.501864	-1.945505	-2.916018
N	-0.381821	-1.25782	0.60672
H	0.280997	-1.484537	1.335233
H	-1.318793	-1.228282	0.985926
N	-0.444367	1.244363	0.609
H	0.31945	1.627068	1.149457
H	-1.237722	1.091182	1.216766
Br	3.489372	0.0	0.0
