16

C	-0.468125	-0.003977	-1.469019
C	0.0	0.0	0.0
Cl	0.263725	-1.336171	-2.36906
H	1.101575	0.0	0.0
N	-1.998797	-0.173229	-1.485382
O	-2.44429	-1.311387	-1.478508
O	-2.649969	0.863966	-1.423129
C	-0.15075	1.25592	-2.122879
N	0.127884	2.263446	-2.657156
N	-0.548316	-1.167103	0.69558
H	0.070354	-1.326083	1.485523
H	-0.466246	-1.994165	0.112779
N	-0.44949	1.226535	0.609638
H	0.307608	1.653529	1.124138
H	-1.236795	1.041368	1.216294
Br	3.496917	0.0	0.0
