16

C	-0.547218	-0.104941	-1.435187
C	0.0	0.0	0.0
Cl	-2.312718	-0.26623	-1.439791
H	1.09692	0.0	0.0
N	-0.154638	1.185331	-2.175897
O	1.025447	1.227049	-2.493892
O	-1.004026	2.041742	-2.350065
C	0.019486	-1.228316	-2.174351
N	0.368429	-2.199015	-2.737906
N	-0.487588	-1.158435	0.764923
H	-0.245056	-2.010801	0.264865
H	0.088321	-1.175693	1.603956
N	-0.440676	1.243272	0.571752
H	0.296863	1.628746	1.145917
H	-1.278098	1.094608	1.120504
Br	3.480799	0.0	0.0
