16

C	-0.507172	-0.01961	-1.458243
C	0.0	0.0	0.0
Cl	0.314345	1.205557	-2.44309
H	1.095972	0.0	0.0
N	-0.233859	-1.368262	-2.128078
O	-0.972311	-1.671049	-3.060562
O	0.719274	-2.007748	-1.711603
C	-1.950463	0.204869	-1.505217
N	-3.094548	0.470047	-1.46339
N	-0.602952	-1.170065	0.631789
H	-0.773088	-0.9081	1.595246
H	0.08319	-1.916638	0.632115
N	-0.408339	1.194537	0.700527
H	0.254845	1.937914	0.530763
H	-1.345937	1.497091	0.464126
Br	3.535682	0.0	0.0
