16

C	-0.584642	0.057718	-1.416615
C	0.0	0.0	0.0
Cl	0.126424	1.376019	-2.371744
H	1.09593	0.0	0.0
N	-0.257149	-1.257263	-2.128711
O	0.922902	-1.552968	-2.17072
O	-1.198021	-1.892082	-2.589846
C	-2.037177	0.21448	-1.379216
N	-3.203309	0.350482	-1.336178
N	-0.476718	-1.231201	0.584392
H	0.263434	-1.664157	1.120717
H	-1.283817	-1.051587	1.168567
N	-0.508096	1.170087	0.730553
H	-0.052035	1.137868	1.637157
H	-0.142521	2.0057	0.283704
Br	3.527644	0.0	0.0
