16

C	-0.564937	-0.031704	-1.427976
C	0.0	0.0	0.0
Cl	-2.313314	-0.341256	-1.407031
H	1.095352	0.0	0.0
N	-0.311139	1.33922	-2.089312
O	-1.217161	1.89075	-2.692735
O	0.835461	1.738915	-1.954347
C	0.076438	-1.035114	-2.268342
N	0.548387	-1.842722	-2.978944
N	-0.380163	-1.236064	0.635373
H	-1.309457	-1.194893	1.033104
H	0.304568	-1.472375	1.340527
N	-0.49886	1.230606	0.630112
H	-0.754225	1.013354	1.585023
H	0.278844	1.883079	0.674318
Br	3.489729	0.0	0.0
