16

C	-0.580711	-0.012175	-1.417855
C	0.0	0.0	0.0
Cl	0.087946	1.291853	-2.422149
H	1.095655	0.0	0.0
N	-0.212776	-1.33678	-2.091606
O	-1.121652	-1.95124	-2.641853
O	0.960965	-1.653194	-2.033372
C	-2.03711	0.096454	-1.382089
N	-3.206473	0.192773	-1.323837
N	-0.478242	-1.207391	0.632269
H	-1.305882	-1.013194	1.183497
H	0.250904	-1.607079	1.207839
N	-0.515926	1.198965	0.675333
H	-0.130052	1.164256	1.615134
H	-0.08582	2.012805	0.243921
Br	3.542387	0.0	0.0
