16

C	-0.484508	0.024382	-1.463954
C	0.0	0.0	0.0
Cl	0.362074	-1.184663	-2.4282
H	1.099262	0.0	0.0
N	-1.996655	-0.29595	-1.453264
O	-2.362187	-1.423991	-1.736215
O	-2.708039	0.630711	-1.081854
C	-0.329304	1.337396	-2.076228
N	-0.214568	2.361433	-2.6394
N	-0.544867	-1.211589	0.626938
H	-0.209608	-2.02448	0.116171
H	-0.099967	-1.265502	1.538215
N	-0.435591	1.194163	0.669579
H	0.271963	1.489822	1.328481
H	-1.324455	1.047406	1.130528
Br	3.485951	0.0	0.0
