16

C	-0.524298	-0.036409	-1.443236
C	0.0	0.0	0.0
Cl	-2.304313	-0.168238	-1.441867
H	1.093184	0.0	0.0
N	-0.122549	1.271311	-2.151561
O	-0.980262	2.101252	-2.404107
O	1.077867	1.345518	-2.371532
C	0.017646	-1.145614	-2.216831
N	0.398195	-2.035191	-2.883678
N	-0.391178	-1.252485	0.619228
H	0.277621	-1.484189	1.344109
H	-1.321114	-1.196186	1.018286
N	-0.417999	1.254956	0.588444
H	-1.361607	1.203273	0.956026
H	0.224011	1.497599	1.333922
Br	3.494037	0.0	0.0
