19

C	-0.260508	0.04301	-1.512921
C	0.0	0.0	0.0
F	-0.04564	-1.284048	-1.998297
H	1.092183	0.0	0.0
C	-1.673825	0.365722	-1.948295
H	-1.954785	1.370292	-1.634458
H	-1.753073	0.2949	-3.037115
H	-2.358123	-0.355536	-1.499822
N	0.723459	0.929815	-2.019627
H	1.615818	0.709111	-1.548852
H	0.807028	0.811676	-3.020764
N	-0.572716	-1.259926	0.53391
O	-1.786035	-1.274918	0.792149
O	0.160741	-2.234148	0.666236
C	-0.533555	1.200255	0.747793
H	-0.164996	1.180737	1.776968
H	-1.623805	1.246879	0.76349
H	-0.130349	2.092671	0.266915
F	2.652679	0.0	0.0
