19

C	-0.201477	0.036419	-1.528557
C	0.0	0.0	0.0
F	-0.095655	-1.325285	-1.970238
H	1.092222	0.0	0.0
C	-1.549462	0.49006	-2.048699
H	-1.726584	1.534197	-1.78977
H	-2.339965	-0.132422	-1.626516
H	-1.565195	0.390516	-3.138594
N	0.875286	0.818305	-2.01002
H	1.742664	0.552715	-1.503845
H	0.972088	0.719591	-3.012226
N	-0.597494	-1.237588	0.549237
O	-1.824529	-1.246656	0.728582
O	0.133363	-2.192812	0.793321
C	-0.538959	1.215998	0.719785
H	-0.052718	2.09375	0.291338
H	-1.623534	1.313131	0.641009
H	-0.267565	1.165719	1.777923
F	2.681491	0.0	0.0
