19

C	-0.340512	-0.100803	-1.497665
C	0.0	0.0	0.0
F	-0.203546	1.238494	-1.98385
H	1.094088	0.0	0.0
C	0.688786	-0.907394	-2.259315
H	0.629727	-0.655327	-3.323713
H	0.5118	-1.971257	-2.114877
H	1.666794	-0.648298	-1.840537
N	-1.678004	-0.54501	-1.724905
H	-1.865959	-0.553168	-2.720796
H	-2.327116	0.094677	-1.280941
N	-0.45539	-1.244515	0.662327
O	-1.275068	-1.166395	1.584346
O	0.015398	-2.309916	0.271793
C	-0.552671	1.223179	0.693706
H	-1.642229	1.310429	0.639014
H	-0.275351	1.196379	1.747167
H	-0.093896	2.098813	0.239437
F	2.629529	0.0	0.0
