19

C	-0.210575	-0.0738	-1.53362
C	0.0	0.0	0.0
F	-0.223633	-1.449715	-1.844237
H	1.096675	0.0	0.0
C	-1.516793	0.474601	-2.069031
H	-1.561127	0.267864	-3.14073
H	-1.591882	1.552615	-1.911358
H	-2.351999	-0.01535	-1.566246
N	0.930619	0.496384	-2.186264
H	0.787978	1.48466	-2.346549
H	1.760384	0.362949	-1.575406
N	-0.62814	-1.161336	0.664112
O	0.082002	-2.086409	1.04709
O	-1.861515	-1.146185	0.784397
C	-0.500089	1.285936	0.623053
H	-0.219928	1.311987	1.679213
H	0.008802	2.121457	0.13702
H	-1.580998	1.411962	0.541581
F	2.678345	0.0	0.0
