19

C	-0.209268	0.036028	-1.536014
C	0.0	0.0	0.0
F	-0.212085	-1.312597	-1.950819
H	1.094056	0.0	0.0
C	-1.520211	0.613407	-2.02777
H	-2.350668	0.079781	-1.563928
H	-1.605134	1.675766	-1.788903
H	-1.565275	0.486601	-3.111187
N	0.927816	0.660753	-2.145149
H	0.781457	1.658356	-2.220317
H	1.757432	0.480498	-1.546567
N	-0.624154	-1.206777	0.579807
O	-1.847786	-1.174031	0.781628
O	0.078791	-2.185702	0.81416
C	-0.498299	1.241048	0.70893
H	-1.578961	1.376076	0.636602
H	0.013877	2.106756	0.281801
H	-0.21999	1.194857	1.765094
F	2.675293	0.0	0.0
