19

C	-0.390871	0.050711	-1.475021
C	0.0	0.0	0.0
F	-1.80438	0.364856	-1.556334
H	1.090024	0.0	0.0
C	0.371636	1.194701	-2.125458
H	-0.052089	2.162765	-1.858063
H	0.335167	1.088043	-3.213409
H	1.40478	1.11146	-1.775454
N	-0.128997	-1.132074	-2.211479
H	-0.561227	-1.04953	-3.122432
H	-0.455678	-1.951948	-1.723018
N	-0.516973	-1.182548	0.725737
O	-0.968861	-1.028016	1.86445
O	-0.435435	-2.301848	0.203316
C	-0.400139	1.260846	0.747009
H	-0.041486	1.195173	1.772447
H	0.103081	2.109425	0.285201
H	-1.47946	1.429001	0.753457
F	2.574096	0.0	0.0
