15

C	0.0	0.0	0.0
C	-0.41022	0.055767	-1.497301
Cl	1.781487	0.0	0.0
H	-1.462406	0.350983	-1.517557
C	-0.438267	1.232652	0.682595
N	-0.542125	2.219647	1.318155
C	-0.739	-1.11299	0.636543
N	-0.710212	-2.118471	1.276051
N	-0.328459	-1.271057	-2.177025
O	-1.11708	-1.411392	-3.110252
O	0.495171	-2.093164	-1.793437
N	0.387433	1.026754	-2.295265
O	1.03899	0.614249	-3.251538
O	0.280382	2.196775	-1.93905
H	-2.207234	0.0	0.0
