15

C	0.0	0.0	0.0
C	-0.415754	0.035653	-1.505351
Cl	1.781447	0.0	0.0
H	-1.457507	0.329461	-1.557487
C	-0.438447	1.219153	0.699692
N	-0.748578	2.245893	1.201553
C	-0.557554	-1.150854	0.712735
N	-0.806092	-2.201749	1.214276
N	-0.318704	-1.286125	-2.1808
O	-1.082566	-1.419078	-3.139105
O	0.442662	-2.147068	-1.751104
N	0.375569	1.017192	-2.30465
O	0.133051	2.19105	-2.009473
O	1.105558	0.628872	-3.208289
H	-2.159854	0.0	0.0
