15

C	0.0	0.0	0.0
C	-0.425032	-0.019542	-1.494007
Cl	1.780691	0.0	0.0
H	-1.492485	-0.277727	-1.475394
C	-0.72162	1.120917	0.64222
N	-0.692168	2.134881	1.267022
C	-0.453297	-1.245678	0.647653
N	-0.585217	-2.266896	1.220582
N	0.324959	-1.000906	-2.31664
O	0.179967	-2.174335	-1.98461
O	0.985317	-0.592409	-3.269603
N	-0.321271	1.312391	-2.158217
O	0.504315	2.125274	-1.758167
O	-1.10259	1.470216	-3.09482
H	-2.244908	0.0	0.0
