15

C	0.0	0.0	0.0
C	-0.430741	-0.039007	-1.494001
Cl	1.781184	0.0	0.0
H	-1.473895	-0.370052	-1.50324
C	-0.686855	1.133456	0.64615
N	-0.716406	2.144876	1.270152
C	-0.488066	-1.226874	0.662164
N	-0.585528	-2.243471	1.251832
N	0.390098	-0.969938	-2.316595
O	1.042304	-0.513879	-3.252177
O	0.288994	-2.155515	-2.01174
N	-0.418079	1.306686	-2.139123
O	0.402543	2.140972	-1.775536
O	-1.259789	1.451498	-3.024326
H	-2.228631	0.0	0.0
