17
Coordinates from ORCA-job run
  C   -0.98739110831731     -0.31588819539498      0.07809323937371
  C   0.35695383708199      0.11496557929015     -0.53413272204619
  Br  -2.49048942547335      0.55762456950720     -0.99766992814637
  H   0.33543645913181     -0.24123492418280     -1.57297382935619
  N   -1.12475544524532     -1.72414262623277      0.09990496007363
  H   -2.00520469788070     -2.01750536840553      0.50452792627213
  H   -1.03611501096751     -2.10914763696559     -0.83322950297196
  C   -1.14866269763833      0.21924558861212      1.43078506662747
  N   -1.23715938942779      0.64307448882743      2.52334048821644
  C   1.50246030817945     -0.57360014584342      0.21375153839659
  H   1.52531841984880     -0.25383628273814      1.25936365276001
  H   2.45374108356539     -0.29064113331250     -0.24343057762207
  H   1.41222770409916     -1.65858096015965      0.19331273477530
  C   0.55990758452793      1.62653788042630     -0.53216428761284
  H   0.55846804310829      2.01525760139908      0.49003373190272
  H   -0.20680727750782      2.14913358863092     -1.10267668171682
  H   1.53107161291531      1.85973797654219     -0.97483580892553
