17
Coordinates from ORCA-job run
  C   -0.94708579025470     -0.33640402236070      0.01676604401230
  C   0.51233185286315      0.12840392495721      0.16730741434355
  Br  -1.62307189817684      0.01320443809181     -1.80133004269272
  H   0.76694239814575     -0.15190898063272      1.20184964918223
  N   -1.04521428107845     -1.76274385352624      0.23326454373634
  H   -0.70816302689226     -1.97912485750571      1.16693862458436
  H   -2.00929257340571     -2.06847295485692      0.16074809233389
  C   -1.81921075017616      0.43918308963990      0.91581189880768
  N   -2.49858524841123      0.99697234937293      1.69778070428770
  C   0.66887695513776      1.64005787005746      0.04141643202052
  H   0.03674145350397      2.18229146040631      0.74783021156484
  H   1.70726196611600      1.91514362668130      0.24084799625608
  H   0.42170468277213      1.97127369511530     -0.96947899314012
  C   1.45199978144413     -0.61468520664038     -0.77736105799028
  H   2.48706729373154     -0.40633009205943     -0.49488378350284
  H   1.28734279555137     -1.69110659351281     -0.74282148904278
  H   1.30935438912956     -0.27675389322730     -1.80568624476075
