17
Coordinates from ORCA-job run
  C   -1.01444663647206     -0.33228480977101     -0.09902133171483
  C   0.25745951163485      0.45223620110968     -0.47363654264426
  Br  -1.93673730628603     -0.95684105090537     -1.72633827069665
  H   -0.07458292592380      1.27121343209995     -1.12199698689419
  N   -0.69860545969618     -1.50424728730620      0.68605670275866
  H   -0.27890264105777     -1.21510592494049      1.56397149695822
  H   -1.54261003609946     -2.02530060789361      0.89620861025390
  C   -1.98170956455099      0.56713199950074      0.55583367486387
  N   -2.71744606174453      1.27321525692440      1.14267343528328
  C   1.26851502392069     -0.40681800204972     -1.22652947292660
  H   0.86122260750408     -0.78454799418571     -2.16427316037562
  H   1.57784316029576     -1.25913281977579     -0.62027180218520
  H   2.15076139844449      0.19519311406041     -1.45847040489116
  C   0.89602828743014      1.06086696675628      0.77943788524764
  H   1.70878114932989      1.72642658031492      0.47991661138589
  H   0.18780074782040      1.64815635446593      1.36824647937626
  H   1.33662874545054      0.28983859159559      1.41819307620080
