17
Coordinates from ORCA-job run
  C   -0.93439614398747     -0.32524521765588      0.23166024845355
  C   0.52322700214384      0.16727979348930      0.19069632045682
  Br  -1.83917109245456      0.11942532230427     -1.55026816933407
  H   0.86876443430577     -0.01735248633847      1.21690685396701
  N   -1.02078532969908     -1.70283701456849      0.54192328322261
  H   -0.57555505404454     -2.26950604957497     -0.16806967046057
  H   -1.97981317085994     -2.00602952678105      0.65852448516450
  C   -1.70755633406303      0.43869075944318      1.21223025993548
  N   -2.30647797673836      1.03588029811777      2.02821611547055
  C   0.64410231115360      1.65974595119926     -0.09813981024943
  H   -0.01563420521996      2.25479922143994      0.53726539511594
  H   1.67080116707260      1.97993712995485      0.09542836131472
  H   0.40987863005433      1.88059192802969     -1.14060861074969
  C   1.38850253935935     -0.65563276857058     -0.75937738550055
  H   2.40102421104473     -0.24593470547459     -0.76966869389982
  H   1.47189498009700     -1.69927549731299     -0.44805600379308
  H   1.00019403183571     -0.61453713770125     -1.77966297911397
