17
Coordinates from ORCA-job run
  C   -1.03430779955264     -0.28346410197569      0.07522755649186
  C   0.45238393485069      0.13210795071362      0.18278695763631
  Br  -1.73041141614320      0.15903343766703     -1.72050223247359
  H   0.70880523442630     -0.13120458818752      1.22072740943945
  N   -1.33581263675325     -1.68060532540550      0.29687784621061
  H   -0.85676812145182     -2.25690824963501     -0.38388728007906
  H   -1.04371007785316     -1.94893981913370      1.23158770211100
  C   -1.82346470065224      0.49883183096812      1.03439944829266
  N   -2.40266968035700      1.11318253110929      1.85184695870153
  C   0.67404850731736      1.63165883770635      0.00767840307014
  H   0.49041208746198      1.93377910943966     -1.02513677400051
  H   1.70973358490403      1.87897423762545      0.25370533973269
  H   0.02637832813588      2.22076620917406      0.66027845434333
  C   1.35755385385968     -0.67006108399346     -0.74638731666557
  H   1.28050868158316     -1.74648356492870     -0.57969374929725
  H   1.12922540505122     -0.46092100881228     -1.79345182094306
  H   2.39809481517302     -0.38974640233171     -0.56705690257052
