17
Coordinates from ORCA-job run
  C   -1.01894874669572     -0.25290437111058     -0.03864383378444
  C   0.29676234957374      0.42685944450941     -0.45947804819009
  Br  -1.96274125752803     -0.87995793972593     -1.74996801363703
  H   0.03691590974255      1.12322158668713     -1.26270125863714
  N   -0.81311932553736     -1.30161537570955      0.88380222735728
  H   -0.24051575723204     -2.03658147089282      0.48924906779481
  H   -1.68233383706423     -1.69291349061065      1.22404208328924
  C   -1.96205818314775      0.71596831828047      0.52133229609108
  N   -2.70855436892735      1.48500025959442      1.00351158782018
  C   1.31493290424278     -0.58069410679193     -0.98689431644026
  H   1.71140845583638     -1.20057348860875     -0.17769707973470
  H   0.89461901610849     -1.22377966321744     -1.76203605435332
  H   2.16148109288941     -0.04454205035067     -1.42132895587231
  C   0.87717561065956      1.21629034856565      0.71600105274766
  H   0.20457022619128      2.01055561208071      1.04548789951325
  H   1.07336769834632      0.55598028017776      1.56266104719447
  H   1.81903821254204      1.67968610712276      0.41166029884135
