17
Coordinates from ORCA-job run
  C   -1.00370826804755     -0.31979763100534     -0.19737792644610
  C   0.33217106994950      0.39376041139285     -0.47927452735561
  Br  -1.72626430520553     -1.10029058000377     -1.85747533292306
  H   0.11473662880715      1.14691086840171     -1.24530472916685
  N   -0.83373131275162     -1.40466266366972      0.74270627455656
  H   -1.71456193475550     -1.88478178822595      0.88931821561922
  H   -0.52607957147432     -1.02930808367247      1.63424518713176
  C   -2.01659572267862      0.66545163611312      0.22367542376918
  N   -2.79653084373051      1.44712915951424      0.62961536117445
  C   1.40125437213194     -0.56091428297824     -1.00160107489704
  H   1.58946389923158     -1.35914219582842     -0.28255850879945
  H   2.33057936755480     -0.00838663366185     -1.16145323976132
  H   1.11134763070059     -1.01536397177547     -1.94886128172535
  C   0.82468952347361      1.11630436319465      0.77919093808591
  H   0.06567372687909      1.77280878053524      1.21059109094015
  H   1.15689634554116      0.40665654139122      1.54248373108244
  H   1.68865939437422      1.73362607027820      0.52308039871513
