17
Coordinates from ORCA-job run
  C   -1.08036438749179     -0.28091137745983      0.02072833948182
  C   0.29449870992692      0.13723456966401     -0.54965211411908
  Br  -2.50207503440862      0.53835861840823     -1.09756998995097
  H   0.28980758871238     -0.20375570633519     -1.59353705306029
  N   -1.35879376533708     -1.69433502937857      0.05143944860632
  H   -0.84382452851204     -2.14740487994432      0.79674994289378
  H   -1.12272289020338     -2.11870944858306     -0.83835839173120
  C   -1.24184406433787      0.25332464340474      1.37614325511343
  N   -1.30338337891345      0.66484062503542      2.47498287808553
  C   1.41007342669687     -0.58702019022601      0.20737217445270
  H   2.37917505032564     -0.29315629218374     -0.20202116720330
  H   1.33518313988596     -1.67230393582146      0.12262568320339
  H   1.40374277605504     -0.31670484201422      1.26771575244570
  C   0.53083525401207      1.64436587999332     -0.51650368655938
  H   -0.22835755205794      2.19103255498191     -1.07487206449368
  H   0.53660140283601      2.01314539959005      0.51304922283132
  H   1.50444825281129      1.87199941086870     -0.95729222999609
