17
Coordinates from ORCA-job run
  C   -1.08063553830883     -0.27622304825804     -0.07681247520516
  C   0.33356547186247      0.16900907177031     -0.51573175556055
  Br  -2.41375583099839      0.61675207775459     -1.24526124898535
  H   0.40582505509591     -0.10555111154322     -1.57660665744981
  N   -1.36228231428042     -1.68769623824715     -0.15446239873964
  H   -0.89458234273421     -2.18920972595519      0.59113783445696
  H   -1.06910496348310     -2.05504175857814     -1.05272589233367
  C   -1.34159433816082      0.17474199918485      1.29322155607265
  N   -1.47082583090031      0.53085967452174      2.40578805545033
  C   1.38916734628136     -0.60817572008578      0.27413302373892
  H   1.32230016658444     -1.68519773824709      0.11211778623872
  H   2.38622170094328     -0.29173676707651     -0.04033826219640
  H   1.30230574448591     -0.40840273949695      1.34649745512305
  C   0.56885328313162      1.66961255633108     -0.37004711754785
  H   1.57066310976671      1.91932749129619     -0.72790641770281
  H   -0.14954291668557      2.25508004816708     -0.94296017617077
  H   0.50442219739988      1.97185192846229      0.67895669081136
