15

C	-0.361362	-0.029949	-1.458162
C	0.0	0.0	0.0
Br	-2.327232	-0.178216	-1.773702
H	1.092764	0.0	0.0
H	-0.280679	-0.971693	0.41966
N	0.030354	1.27477	-2.150924
O	0.048912	1.264064	-3.378805
O	0.295022	2.238365	-1.443002
C	0.370027	-1.160369	-2.138113
H	0.194855	-1.154768	-3.211787
H	1.436555	-1.019646	-1.904514
H	0.041638	-2.110675	-1.714465
C	-0.59018	1.038602	0.819537
N	-1.080649	1.824099	1.544598
H	2.68959	0.0	0.0
