15

C	-0.585605	-0.045428	-1.394766
C	0.0	0.0	0.0
Br	0.211051	1.411354	-2.445205
H	1.091153	0.0	0.0
H	-0.285946	0.964548	0.435873
N	-0.18796	-1.342027	-2.096171
O	-0.696921	-1.548409	-3.197405
O	0.597053	-2.084039	-1.517558
C	-2.094152	0.073608	-1.473983
H	-2.40376	0.994875	-0.979123
H	-2.427347	0.086555	-2.510555
H	-2.547234	-0.776273	-0.95554
C	-0.549548	-1.0569	0.831464
N	-1.00904	-1.893944	1.517625
H	2.696473	0.0	0.0
