15

C	-0.351176	0.002423	-1.460264
C	0.0	0.0	0.0
Br	-2.319301	0.019286	-1.809491
H	1.105036	0.0	0.0
H	-0.349594	0.900466	0.503951
N	0.113434	1.333569	-2.063187
O	0.167314	2.30585	-1.32086
O	0.356125	1.343025	-3.266548
C	0.301157	-1.139218	-2.192978
H	-0.074127	-2.084242	-1.795494
H	0.115129	-1.086448	-3.262256
H	1.375699	-1.061862	-1.976828
C	-0.493538	-1.185238	0.665718
N	-0.8817	-2.147496	1.217562
H	2.653558	0.0	0.0
