15

C	-0.324839	-0.158351	-1.459677
C	0.0	0.0	0.0
Br	-2.286343	-0.150731	-1.851063
H	1.106484	0.0	0.0
H	-0.353566	0.953416	0.392209
N	0.177842	1.096523	-2.175791
O	0.713247	0.944565	-3.267663
O	-0.023075	2.174475	-1.625217
C	0.317806	-1.383915	-2.046439
H	1.388572	-1.314109	-1.809273
H	-0.098647	-2.265316	-1.558445
H	0.16392	-1.448416	-3.122083
C	-0.496983	-1.102168	0.792322
N	-0.881711	-2.000516	1.447175
H	2.653417	0.0	0.0
