15

C	-0.338772	-0.152304	-1.456307
C	0.0	0.0	0.0
Br	-2.305903	-0.230479	-1.820437
H	1.106567	0.0	0.0
H	-0.362579	0.943243	0.407361
N	0.086707	1.132559	-2.172203
O	0.516101	1.025983	-3.31648
O	-0.076101	2.18867	-1.572437
C	0.353425	-1.33934	-2.064896
H	-0.00463	-2.246192	-1.575055
H	0.179964	-1.403772	-3.136154
H	1.422043	-1.213906	-1.844219
C	-0.471617	-1.121265	0.783657
N	-0.813919	-2.038412	1.435038
H	2.654506	0.0	0.0
