15

C	-0.495217	-0.019342	-1.43909
C	0.0	0.0	0.0
Br	-0.060749	1.698489	-2.247264
H	1.102285	0.0	0.0
H	-0.298897	0.953738	0.444593
N	0.220966	-1.129927	-2.218587
O	0.494665	-0.956602	-3.399326
O	0.346925	-2.179115	-1.597879
C	-1.977718	-0.292555	-1.626691
H	-2.555783	0.471028	-1.10469
H	-2.216627	-1.270085	-1.201382
H	-2.236919	-0.274558	-2.687989
C	-0.549638	-1.068996	0.814253
N	-1.002898	-1.899906	1.512586
H	2.686442	0.0	0.0
