15

C	-0.502526	-0.057545	-1.436999
C	0.0	0.0	0.0
Br	-0.070598	1.635069	-2.295006
H	1.106108	0.0	0.0
H	-0.297102	0.965357	0.420133
N	0.213027	-1.194675	-2.179023
O	0.691526	-1.008217	-3.288031
O	0.149368	-2.271577	-1.594001
C	-1.988344	-0.328395	-1.603269
H	-2.256864	-0.353831	-2.662534
H	-2.232641	-1.283907	-1.134954
H	-2.55507	0.46424	-1.112703
C	-0.543435	-1.045686	0.847445
N	-0.984415	-1.854752	1.578757
H	2.681335	0.0	0.0
