15

C	-0.39926	0.0681	-1.461962
C	0.0	0.0	0.0
Br	0.073467	-1.575031	-2.378057
H	1.092913	0.0	0.0
H	-0.312678	0.933583	0.477976
N	-1.919623	0.285339	-1.577678
O	-2.637936	-0.52373	-2.14876
O	-2.313229	1.322237	-1.046247
C	0.307164	1.235514	-2.125345
H	0.085424	1.270709	-3.195239
H	1.380794	1.099887	-1.950421
H	-0.01649	2.163928	-1.651594
C	-0.568888	-1.121182	0.723828
N	-1.026429	-2.003684	1.352158
H	2.723382	0.0	0.0
