15

C	-0.489395	0.104825	-1.44037
C	0.0	0.0	0.0
Br	-0.089909	1.897135	-2.084494
H	1.096341	0.0	0.0
H	-0.30466	0.907818	0.528148
N	0.264218	-0.918867	-2.300915
O	0.76824	-0.587833	-3.363368
O	0.205708	-2.06078	-1.855081
C	-1.965515	-0.179634	-1.658869
H	-2.190124	-1.190337	-1.313023
H	-2.558719	0.534112	-1.085438
H	-2.22025	-0.084025	-2.717467
C	-0.542528	-1.142483	0.713449
N	-0.985038	-2.035753	1.337751
H	2.691386	0.0	0.0
