15

C	-0.377895	-0.074757	-1.46267
C	0.0	0.0	0.0
Br	-0.122634	-1.887973	-2.149141
H	1.106088	0.0	0.0
H	-0.296201	0.988284	0.372773
N	-1.867678	0.204955	-1.687792
O	-2.655718	-0.218375	-0.850818
O	-2.18123	0.83746	-2.695374
C	0.474184	0.888974	-2.255908
H	0.238767	1.911366	-1.945596
H	0.300075	0.793468	-3.325321
H	1.518016	0.677785	-1.991241
C	-0.526384	-1.023179	0.881071
N	-0.880406	-1.837926	1.65062
H	2.711558	0.0	0.0
