15

C	0.0	0.0	0.0
C	-0.532325	0.023446	-1.433454
Cl	1.716567	0.0	0.0
H	-1.662734	0.050908	-1.218469
N	-0.335761	1.372876	0.824971
O	-1.103739	2.127593	0.48593
O	0.266248	1.424158	1.870285
N	-0.355784	-1.353183	0.771951
O	-0.98364	-2.20765	0.217232
O	0.141027	-1.444445	1.846074
C	-0.083218	-1.17971	-2.164228
N	0.176342	-2.161836	-2.771329
C	-0.032437	1.210185	-2.156221
N	0.250757	2.192138	-2.747582
F	-2.593172	0.0	0.0
