17

C	0.0	0.0	0.0
C	-0.518688	0.287063	-1.40304
Cl	1.80084	0.0	0.0
H	-0.234062	-0.50729	-2.090327
H	-1.610838	0.382563	-1.333465
C	-0.474718	1.004744	1.037128
H	-0.075155	1.998804	0.845079
H	-0.15138	0.674197	2.027717
H	-1.568072	1.035014	1.005001
C	-0.476972	-1.399382	0.365832
H	-0.113882	-2.138825	-0.353007
H	-0.10464	-1.665804	1.35782
H	-1.571715	-1.396689	0.377703
N	0.016642	1.534652	-2.010312
O	-0.256836	2.604966	-1.470237
O	0.693035	1.421313	-3.034441
Cl	-3.809183	0.0	0.0
