17

C	0.0	0.0	0.0
C	-0.521054	-0.357239	-1.385229
Cl	1.800833	0.0	0.0
H	-1.614729	-0.434131	-1.309491
H	-0.225342	0.395003	-2.115706
C	-0.481998	1.417815	0.289904
H	-0.14855	2.11453	-0.484386
H	-1.574737	1.400452	0.324011
H	-0.091696	1.751412	1.255098
C	-0.482192	-0.942048	1.093283
H	-0.193631	-0.533404	2.066249
H	-0.061448	-1.940878	0.98627
H	-1.572112	-0.992704	1.038595
N	-0.005808	-1.645066	-1.929176
O	-0.25576	-2.68177	-1.315767
O	0.628553	-1.594863	-2.984223
Cl	-3.810988	0.0	0.0
