17

C	0.0	0.0	0.0
C	-0.519093	-0.34327	-1.39065
Cl	1.800907	0.0	0.0
H	-1.611011	-0.434073	-1.315795
H	-0.235278	0.423571	-2.108491
C	-0.476802	1.412368	0.30814
H	-0.116889	2.121469	-0.441843
H	-0.101136	1.722307	1.28585
H	-1.570986	1.407366	0.324048
C	-0.473	-0.960713	1.078116
H	-1.56562	-0.994895	1.045512
H	-0.070847	-1.960836	0.929474
H	-0.150026	-0.587977	2.053401
N	0.01273	-1.614528	-1.948965
O	0.668886	-1.543955	-2.989613
O	-0.244061	-2.660437	-1.356021
Cl	-3.807139	0.0	0.0
