17

C	0.0	0.0	0.0
C	-0.188992	-0.224837	-1.519197
Cl	1.80659	0.0	0.0
H	0.389948	-1.099937	-1.81099
H	0.172184	0.652898	-2.053809
C	-0.54378	1.334661	0.453282
H	-0.13829	2.151535	-0.148183
H	-0.294165	1.510109	1.502514
H	-1.63423	1.298045	0.348599
C	-0.531092	-1.150531	0.82467
H	-1.623571	-1.14189	0.746104
H	-0.245336	-1.021769	1.871916
H	-0.146616	-2.106913	0.464731
N	-1.551868	-0.498565	-2.064136
O	-2.109612	0.420901	-2.655259
O	-1.949405	-1.656707	-1.975078
Cl	-3.998386	0.0	0.0
