17

C	0.0	0.0	0.0
C	-0.195035	0.539194	-1.437605
Cl	1.806592	0.0	0.0
H	0.377937	1.460127	-1.539472
H	0.169648	-0.203468	-2.146262
C	-0.528237	0.951784	1.050528
H	-0.231183	0.610355	2.045713
H	-1.621859	0.95265	0.981251
H	-0.151545	1.96447	0.892966
C	-0.545492	-1.399421	0.165791
H	-0.14555	-2.073532	-0.595859
H	-0.289214	-1.790781	1.153709
H	-1.637218	-1.341019	0.07803
N	-1.561678	0.912189	-1.910291
O	-2.117805	0.13219	-2.677513
O	-1.967024	2.022442	-1.578352
Cl	-3.996397	0.0	0.0
