13

C	-0.532929	0.030114	-1.425488
C	0.0	0.0	0.0
Br	0.258189	-1.384126	-2.490218
H	1.09118	0.0	0.0
H	-0.333001	0.906423	0.514649
C	-1.98687	-0.087592	-1.496758
N	-3.159217	-0.176568	-1.508038
N	-0.177847	1.372211	-2.100032
O	0.540711	2.134676	-1.473632
O	-0.66724	1.553996	-3.207677
C	-0.509722	-1.171574	0.701151
N	-0.940671	-2.101985	1.273328
Br	3.410793	0.0	0.0
