13

C	-0.537898	0.000979	-1.423476
C	0.0	0.0	0.0
Br	0.258664	-1.461526	-2.420444
H	1.091045	0.0	0.0
H	-0.317266	-0.935781	0.470983
C	-1.990081	-0.120942	-1.488225
N	-3.159853	-0.243843	-1.48668
N	-0.155697	1.299627	-2.162697
O	0.7613	1.948012	-1.684473
O	-0.79305	1.537004	-3.18365
C	-0.545616	1.125288	0.751074
N	-1.017744	2.01802	1.350341
Br	3.446824	0.0	0.0
