13

C	-0.428463	0.052491	-1.454405
C	0.0	0.0	0.0
Br	-2.366286	-0.191988	-1.658355
H	1.0956	0.0	0.0
H	-0.336096	-0.94544	0.429557
C	-0.062964	1.291635	-2.12333
N	0.189805	2.321752	-2.633027
N	0.211314	-1.137519	-2.194395
O	0.643896	-0.921777	-3.317604
O	0.179922	-2.205308	-1.600606
C	-0.534686	1.123639	0.750113
N	-0.973833	2.022009	1.366308
Br	3.357095	0.0	0.0
