15

C	0.0	0.0	0.0
C	-0.521596	-0.102637	-1.436484
Br	1.958379	0.0	0.0
H	-1.62188	-0.115322	-1.225286
N	-0.545607	1.178609	0.589861
H	-1.580142	0.96071	0.501372
H	-0.296828	1.202331	1.573762
C	-0.337376	-1.25305	0.714957
N	-0.562838	-2.205918	1.364975
N	-0.099571	-1.335841	-2.076712
H	-0.75759	-1.576913	-2.806571
H	0.819559	-1.229327	-2.490163
C	-0.173281	1.103297	-2.198839
N	0.077165	1.993886	-2.924958
F	-2.775989	0.0	0.0
