15

C	0.0	0.0	0.0
C	-0.510429	-0.212336	-1.443175
Br	1.946071	0.0	0.0
H	-1.610277	-0.225447	-1.218531
N	-0.526257	1.166985	0.638799
H	-0.30489	1.973398	0.060983
H	-1.558592	0.95981	0.565804
C	-0.378078	-1.187764	0.788179
N	-0.575649	-2.13315	1.456036
N	-0.063053	-1.465391	-2.018422
H	0.855163	-1.3696	-2.434678
H	-0.717421	-1.770499	-2.726545
C	-0.192073	0.967469	-2.258966
N	0.064544	1.873075	-2.965333
F	-2.752172	0.0	0.0
