15

C	0.0	0.0	0.0
C	-0.387925	-0.205705	-1.529251
Br	2.059311	0.0	0.0
H	0.526887	-0.167503	-2.125744
N	-0.477822	1.175172	0.620359
H	-0.389517	1.923342	-0.063012
H	-1.502074	0.946421	0.666928
C	-0.328343	-1.165911	0.825445
N	-0.482698	-2.110919	1.506901
N	-1.260043	0.879546	-1.937462
H	-1.463198	0.770646	-2.925085
H	-2.115514	0.709342	-1.368572
C	-0.961604	-1.547763	-1.758982
N	-1.390365	-2.592336	-2.087497
F	-2.694441	0.0	0.0
