15

C	0.0	0.0	0.0
C	-0.267653	-0.202679	-1.570169
Br	2.004455	0.0	0.0
H	0.077047	0.76082	-1.969679
N	-0.62803	1.189022	0.442176
H	-0.453829	1.298925	1.437601
H	-1.656931	0.933083	0.334897
C	-0.343226	-1.218374	0.751669
N	-0.592335	-2.162397	1.407735
N	-1.602084	-0.484104	-2.044707
H	-1.758856	-1.482418	-1.945339
H	-2.291473	-0.087725	-1.359544
C	0.585742	-1.270828	-2.121653
N	1.153557	-2.206534	-2.548865
F	-2.950628	0.0	0.0
