16

C	-0.516744	-0.040338	-1.403391
C	0.0	0.0	0.0
Br	0.524006	-1.444689	-2.440099
H	1.093089	0.0	0.0
H	-0.3559	0.94006	0.435863
N	-1.912015	-0.215844	-1.551881
H	-2.156311	-0.29638	-2.531695
H	-2.199331	-1.048479	-1.056261
N	-0.208042	1.249663	-2.172641
O	-0.688138	1.333473	-3.3036
O	0.445341	2.11719	-1.612154
C	-0.473137	-1.187793	0.829707
H	-1.54966	-1.190925	1.047327
H	-0.206393	-2.129034	0.341899
H	0.061448	-1.165465	1.781877
F	2.639965	0.0	0.0
