16

C	-0.540467	-0.054163	-1.395613
C	0.0	0.0	0.0
Br	0.308902	-1.653672	-2.319699
H	1.096014	0.0	0.0
H	-0.312271	-0.942238	0.471585
N	-1.947933	-0.071608	-1.502939
H	-2.24265	-0.187819	-2.463866
H	-2.317143	-0.812277	-0.923007
N	-0.080816	1.108019	-2.279399
O	0.831968	1.813299	-1.880409
O	-0.681633	1.24606	-3.346087
C	-0.524237	1.190513	0.799343
H	-0.106423	1.127138	1.807551
H	-0.162626	2.124432	0.366597
H	-1.616053	1.234357	0.870965
F	2.641403	0.0	0.0
