16

C	0.034571	-0.312741	-1.49348
C	0.0	0.0	0.0
Br	-0.708746	1.566113	-2.69388
H	1.096155	0.0	0.0
H	-0.36154	-0.906533	0.495363
N	1.249778	-0.682331	-1.870341
H	2.10294	-0.385826	-1.182826
H	1.358752	-1.033935	-2.810251
N	-1.066983	-1.182319	-2.07256
O	-0.827312	-1.790194	-3.113008
O	-2.111567	-1.256982	-1.433393
C	-0.687391	1.241252	0.518023
H	-1.743146	1.262873	0.242593
H	-0.212397	2.138044	0.124726
H	-0.607688	1.259101	1.609733
F	2.820727	0.0	0.0
