11
Coordinates from ORCA-job run
  C   -0.71327534820581      0.24185803955306     -0.12040450557511
  C   0.73405270597201      0.72800441274950     -0.06946314813385
  Cl  -1.76774714305895      1.59025065675660      0.39657026991643
  H   0.96807635595762      1.00777641301060      0.96042658155679
  H   -0.99824294496072      0.04400810487784     -1.16044497532168
  H   0.85978419463338      1.60508024711523     -0.70784770076503
  N   -0.89029505852622     -0.85972108901033      0.79027656078118
  H   -1.85275113871093     -1.17420580739004      0.77855417880933
  H   -0.29914513614081     -1.63493245443172      0.50918118082654
  C   1.63954808251885     -0.33148923942476     -0.51021167874271
  N   2.32099543052156     -1.21762928380598     -0.86763676335189
