11
Coordinates from ORCA-job run
  C   -0.59220903949405      0.11540766283244     -0.15293196180701
  C   0.90019723385798     -0.15247313118970      0.01646889604924
  Cl  -1.03199197021377      1.53389911767870      0.91788294224767
  H   1.11573498688491     -0.36608716390409      1.06749238223491
  H   -0.80585517173561      0.46117061226962     -1.16384753225328
  H   1.14956002170217     -1.04040750048239     -0.57059215263549
  N   -1.32861914469796     -1.06752140690608      0.11121832177466
  H   -2.31401454726771     -0.93914927823162     -0.07767271526267
  H   -1.22094580770013     -1.36095666890685      1.07460908069230
  C   1.72928193220668      0.96538721296399     -0.42365309470218
  N   2.39886150645748      1.85173054387598     -0.79997416633814
