15
Coordinates from ORCA-job run
  C   0.67138106612975     -0.06130495535691      0.25594629544533
  C   -0.73195299389929      0.20451243323425     -0.39011993986095
  F   0.36558677264968     -0.27769418371852      1.59771793333032
  H   -0.64045863057868      0.15830269221471     -1.47753038783951
  N   1.48083485555878      1.07094672631156      0.02039137754630
  H   1.12984038548608      1.90308197858938      0.48064322530512
  H   2.42099934578897      0.87573286592766      0.35077598326660
  N   1.39459963938874     -1.20368303468571     -0.19359987724848
  H   1.65611235068892     -1.08013250771061     -1.16125111099003
  H   0.84633255483021     -2.05015705616525     -0.11215674807299
  C   -1.27982277875966      1.49051372245388      0.02352089936731
  N   -1.65924134567585      2.55843800784854      0.32166205796986
  N   -1.67089030464479     -0.91094558331388      0.00002302370898
  O   -2.54893806859115     -0.68423666877454      0.82390544459573
  O   -1.43438284837172     -1.99337443685456     -0.53992817652359
