15
Coordinates from ORCA-job run
  C   0.71736373590881      0.04634692878522     -0.13276910530484
  C   -0.76506357703468      0.02178836851581     -0.57231404311418
  F   1.34749093220875      0.61143044193704     -1.28515391750326
  H   -0.85028686741205     -0.50640079453223     -1.52340747528979
  N   1.17570888645153     -1.25920303736521      0.13051533208675
  H   0.89763555862758     -1.91761378066943     -0.58414553997671
  H   2.18387677305136     -1.26816863613820      0.22380087024725
  N   0.89916930506387      0.87950506227812      0.98825446102837
  H   0.93795747785967      1.85735645486246      0.73622099579423
  H   1.69344779852069      0.61264095108409      1.55027002248995
  C   -1.28480048153483      1.37527410603696     -0.69080679150225
  N   -1.67077835132234      2.47742297384463     -0.80822678041419
  N   -1.57380687290802     -0.77371385339165      0.41968971566914
  O   -1.66625676002632     -1.97157189545323      0.16577756099818
  O   -2.04065755745400     -0.18409328979435      1.38329469479135
