15
Coordinates from ORCA-job run
  C   0.72325392451232      0.02416190789446     -0.24533380501573
  C   -0.78442552864242      0.16269768750625     -0.55346451691923
  F   1.34932125154416      0.51220088679476     -1.39798656917959
  H   -1.00024783978120     -0.34705009359185     -1.49415257083211
  N   1.00429170524992     -1.35147331180980     -0.03471345178229
  H   1.96047984362117     -1.48209280345351      0.26914085533239
  H   0.83105974199643     -1.91038559894272     -0.86217967779173
  N   1.11715610045839      0.89006667950041      0.81072957527388
  H   2.12586791826899      0.95221460911607      0.86171371562756
  H   0.72767478472077      0.58998975478550      1.69403707812399
  C   -1.20860385693795      1.55329009091896     -0.61963569393563
  N   -1.58724133277750      2.66012741836885     -0.71255890077102
  N   -1.57035678654506     -0.56845657677708      0.50304381645816
  O   -1.54662465796627     -0.09625452589335      1.63394579513872
  O   -2.14360526772175     -1.59003612441695      0.14541435027264
