15
Coordinates from ORCA-job run
  C   0.63608486711306      0.02986075233939      0.25528710329042
  C   -0.77748247385560      0.19940684982664     -0.35214055584212
  F   0.44201508275068      0.13715154424964      1.64726671088646
  H   -0.67501932866850      0.18282357286943     -1.43673162030152
  N   1.43107154083392      1.15017363316639     -0.14767447366964
  H   1.64547552964761      1.75981822270507      0.62683114417309
  H   2.26188911192208      0.87839433741169     -0.64781272848016
  N   1.15112532669880     -1.21499629846617     -0.10109518248719
  H   0.62745850690751     -1.84907027711771     -0.68208116828494
  H   2.13833737269184     -1.35886078048794     -0.03345429236664
  C   -1.39896537148126      1.43546894351094      0.09484753825666
  N   -1.92041443273560      2.43588790135278      0.42177434375665
  N   -1.65103457644049     -0.96869224295087      0.02895937182611
  O   -1.58789593806114     -1.93954748420986     -0.72450994748305
  O   -2.32164521732292     -0.87981867419943      1.04953375672588
