18

C	-0.631955	-0.053672	-1.387331
C	0.0	0.0	0.0
Cl	0.035204	-1.485327	-2.236888
H	1.091251	0.0	0.0
C	-2.136789	-0.159168	-1.35282
H	-2.547927	0.760955	-0.935833
H	-2.382296	-1.011719	-0.718538
H	-2.54052	-0.307906	-2.353296
N	-0.197962	1.12393	-2.258195
O	-1.055329	1.636449	-2.974003
O	0.984397	1.429826	-2.226645
N	-0.290443	-1.213761	0.737801
H	-0.660208	-0.925594	1.637933
H	0.620723	-1.635592	0.927465
N	-0.410482	1.168962	0.702002
O	-0.304485	1.166156	1.952107
O	-0.708071	2.192807	0.041656
H	2.352336	0.0	0.0
