18

C	-0.361186	-0.034052	-1.478043
C	0.0	0.0	0.0
Cl	0.303826	1.398248	-2.281075
H	1.090577	0.0	0.0
C	0.268914	-1.262736	-2.106306
H	-0.175668	-2.166493	-1.689571
H	0.12727	-1.244612	-3.188336
H	1.334092	-1.227057	-1.862021
N	-1.867072	-0.100324	-1.75391
O	-2.452609	-0.978588	-1.12055
O	-2.388241	0.615335	-2.593421
N	-0.323337	-1.132423	0.807418
H	0.508498	-1.701373	0.918498
H	-1.119469	-1.655424	0.478946
N	-0.538507	1.22515	0.654818
O	-0.010148	1.571376	1.705515
O	-1.492942	1.805133	0.121656
H	2.629264	0.0	0.0
