18

C	-0.500218	0.071852	-1.439688
C	0.0	0.0	0.0
Cl	-2.248067	0.495403	-1.507011
H	1.090126	0.0	0.0
C	0.299865	0.981817	-2.343723
H	0.05875	2.016342	-2.117158
H	1.359456	0.809193	-2.137034
H	0.068638	0.767432	-3.389957
N	-0.353317	-1.361669	-1.971548
O	-1.329993	-2.093624	-2.028693
O	0.790931	-1.665749	-2.286294
N	-0.425745	-1.17292	0.672534
H	-1.316605	-1.039813	1.132221
H	0.278076	-1.407069	1.363186
N	-0.355894	1.258819	0.712525
O	0.011358	2.32343	0.206946
O	-0.917453	1.170888	1.811784
H	2.579964	0.0	0.0
