18

C	-0.485439	-0.005139	-1.478711
C	0.0	0.0	0.0
Cl	0.087493	-1.515809	-2.228384
H	1.09003	0.0	0.0
C	-1.983225	0.093963	-1.676051
H	-2.219939	0.083352	-2.741543
H	-2.371131	1.009734	-1.235387
H	-2.463408	-0.767287	-1.209971
N	0.193033	1.14916	-2.223696
O	-0.506568	2.14746	-2.403922
O	1.365435	1.023622	-2.538486
N	-0.468521	-1.062879	0.813563
H	0.124252	-1.870366	0.677965
H	-1.446389	-1.284847	0.691135
N	-0.465203	1.296353	0.565054
O	0.217253	2.290318	0.308937
O	-1.506667	1.308057	1.233822
H	2.671162	0.0	0.0
