18

C	-0.445277	0.008968	-1.444279
C	0.0	0.0	0.0
Cl	0.380089	1.277418	-2.373729
H	1.090981	0.0	0.0
C	-0.123832	-1.32382	-2.093052
H	-0.685791	-2.115465	-1.600701
H	0.943041	-1.504478	-1.943155
H	-0.352515	-1.276536	-3.159198
N	-1.961334	0.206134	-1.575918
O	-2.419839	0.619801	-2.632361
O	-2.628017	-0.184805	-0.620427
N	-0.281823	-1.221725	0.691826
H	0.478503	-1.372888	1.348261
H	-1.159198	-1.165974	1.19005
N	-0.455344	1.188789	0.74014
O	-0.295067	1.160907	1.965778
O	-0.921498	2.155811	0.12268
H	2.530494	0.0	0.0
