18

C	-0.358373	-0.051621	-1.481936
C	0.0	0.0	0.0
Cl	0.209923	1.435849	-2.256169
H	1.09059	0.0	0.0
C	0.356755	-1.232302	-2.11173
H	-0.027195	-2.164332	-1.697457
H	1.418529	-1.127996	-1.859074
H	0.216013	-1.223741	-3.195081
N	-1.860421	-0.208244	-1.761149
O	-2.370338	-1.192291	-1.219482
O	-2.446897	0.5568	-2.508964
N	-0.350684	-1.113406	0.821272
H	-1.132506	-1.64649	0.47571
H	0.476366	-1.679852	0.969894
N	-0.565912	1.232817	0.629699
O	-1.673001	1.617944	0.234106
O	0.072193	1.747068	1.541211
H	2.685396	0.0	0.0
