17

C	0.0	0.0	0.0
C	-0.527272	0.006681	-1.432994
F	1.382604	0.0	0.0
H	-1.604865	0.218039	-1.348232
N	-0.282737	1.371807	0.701425
O	0.024499	1.394319	1.892327
O	-0.746467	2.31331	0.071678
N	-0.51599	-1.050725	0.746948
H	-1.535243	-1.059638	0.612269
H	-0.309999	-0.901369	1.72821
C	-0.376718	-1.344658	-1.979633
N	-0.230661	-2.377625	-2.519067
C	0.169192	0.987285	-2.381158
H	0.018242	2.01009	-2.047179
H	1.237402	0.773154	-2.444032
H	-0.264027	0.879105	-3.37726
Cl	-3.531183	0.0	0.0
