17

C	0.0	0.0	0.0
C	-0.27437	-0.032714	-1.532053
F	1.361115	0.0	0.0
H	0.144992	-1.015125	-1.784763
N	-0.317175	1.382677	0.626079
O	-0.655851	2.304463	-0.105515
O	-0.154392	1.44067	1.843188
N	-0.591349	-1.046201	0.699776
H	-1.605935	-0.995577	0.54354
H	-0.419487	-0.925593	1.692369
C	0.601077	0.943676	-2.198192
N	1.271351	1.681585	-2.818162
C	-1.67346	0.056838	-2.127727
H	-2.17083	0.977803	-1.84217
H	-1.577729	0.014627	-3.216172
H	-2.305915	-0.757079	-1.788254
Cl	-3.960302	0.0	0.0
