17

C	0.0	0.0	0.0
C	-0.529872	-0.296793	-1.403098
F	1.350737	0.0	0.0
H	-1.600781	-0.048116	-1.376908
N	-0.292229	1.497457	0.38538
O	0.012837	1.781291	1.54253
O	-0.750278	2.277668	-0.4394
N	-0.51798	-0.86573	0.959136
H	-1.541123	-0.866539	0.865156
H	-0.259849	-0.541843	1.884179
C	-0.410002	-1.737879	-1.638822
N	-0.324511	-2.871772	-1.93115
C	0.206772	0.436375	-2.530108
H	-0.204758	0.115858	-3.489272
H	1.271264	0.195398	-2.516006
H	0.073487	1.511084	-2.435483
Cl	-3.540077	0.0	0.0
