17

C	0.0	0.0	0.0
C	-0.397251	-0.208582	-1.4813
F	1.397397	0.0	0.0
H	0.546137	-0.020013	-2.003927
N	-0.211933	1.488978	0.435663
O	0.039895	2.351463	-0.398513
O	-0.483552	1.685515	1.615017
N	-0.513008	-0.912964	0.899113
H	-1.538342	-0.887152	0.780631
H	-0.297764	-0.609279	1.842196
C	-1.331456	0.736125	-2.101405
N	-1.904371	1.445752	-2.842471
C	-0.826235	-1.651447	-1.767814
H	-0.895077	-1.79264	-2.848866
H	-1.803248	-1.834309	-1.324233
H	-0.094048	-2.348721	-1.357786
Cl	-3.393314	0.0	0.0
