13
Coordinates from ORCA-job run
  C   0.90533288227533      0.00992591317992      0.30369858062225
  C   -0.62441148586643      0.03201913022067      0.24751302680706
  Cl  1.47892513293218     -0.24302092231635      1.94188856143522
  H   -0.97270874957160     -0.88739542460956      0.72422426756144
  H   1.34491654108891      0.92542291302764     -0.09082625761076
  N   1.40864395492546     -1.10854704986935     -0.57177290562009
  O   2.27646134082487     -0.81779092204121     -1.38827705689268
  O   0.89869986886573     -2.20942724431343     -0.39393973407026
  C   -1.05000829563479      0.00908782414222     -1.16659435650723
  N   -1.40695813713560      0.05991661280111     -2.28502326035044
  N   -1.11590675763839      1.17435134212143      0.99073234896858
  H   -1.05856750080561      2.01838474425386      0.43420676975748
  H   -2.08241879426005      1.03607308340306      1.25417001589943
