13
Coordinates from ORCA-job run
  C   0.51028619536477     -0.83639038492033      0.13437982674367
  C   -0.55955876762114      0.24338206326604      0.30532313984285
  Cl  0.32188036093380     -1.72624201535904     -1.36027414140250
  H   -0.35485139880376      0.71689004970630      1.26981453071375
  H   0.50587065901036     -1.53681737319896      0.96944699003358
  N   1.85049501065162     -0.11969961372954      0.20701584412744
  O   2.58369594683421     -0.09741205996672     -0.76451789897092
  O   2.05269973557767      0.39528885423132      1.30200408940793
  C   -1.88926574366454     -0.39138569962691      0.38120916550893
  N   -2.96744715120212     -0.85648858693953      0.41547979614283
  N   -0.40198556829115      1.24283254582696     -0.72925276506037
  H   -0.71722079735641      0.89185558469961     -1.62533391631249
  H   -0.93259848143331      2.07418663601081     -0.50429466077471
