13
Coordinates from ORCA-job run
  C   0.82920617174068      0.09739140972687      0.19218363895495
  C   -0.70860196835782      0.00232263935521      0.19677935045203
  Cl  1.45138725293205      0.15646363038148      1.83783371173323
  H   -0.96343998769460     -0.91574992421319      0.73476752944178
  H   1.18944612709289      0.96713913153796     -0.35543261948071
  N   1.39709798024180     -1.10809185378001     -0.50955925906916
  O   1.03924543233626     -2.20206590295284     -0.08764200678172
  O   2.14352522005400     -0.88686033774584     -1.45760970337454
  C   -1.15037774656261     -0.14478291630949     -1.19708323659719
  N   -1.46756260983160     -0.23355633019615     -2.32385203656150
  N   -1.40325100012305      1.11091992982874      0.80929648823515
  H   -1.16967510425795      1.98930397481991      0.36318316645032
  H   -1.18899976757006      1.16756654954738      1.79613497659737
