13
Coordinates from ORCA-job run
  C   0.88566407470661      0.06602796829207      0.25548720451142
  C   -0.63901229659291      0.06732292795161      0.14290810335962
  Cl  1.37935306066488     -0.01199092125524      1.94479560282671
  H   -1.00413752787751     -0.85820887169660      0.60739759990122
  H   1.31589097571980      0.95415418682849     -0.20192328345543
  N   1.44254768172467     -1.12614734393725     -0.47287915477263
  O   0.95637812724089     -2.21644018878883     -0.19159919096629
  O   2.32318661284910     -0.89926543379023     -1.29619811366733
  C   -0.99535320052653      0.02865289485853     -1.27979978091993
  N   -1.28539144985731      0.00514622467360     -2.41703282102670
  N   -1.14043635663675      1.30109462017797      0.73606066429945
  H   -1.14808975572032      1.21273843704910      1.74483226335291
  H   -2.08859994569462      1.47591549963676      0.42795090655699
