13
Coordinates from ORCA-job run
  C   0.90751541493149     -0.05012912218253      0.29098290875276
  C   -0.61121873814851      0.13516677037108      0.24416738972954
  Cl  1.48808695696991     -0.13657783643217      1.94379740571164
  H   -1.04749005404429     -0.66960596710352      0.84074897249012
  H   1.43676497243200      0.74497631807306     -0.23262679663739
  N   1.26417720021470     -1.32868642123075     -0.42169717298325
  O   0.63880955191276     -2.32981151562325     -0.08970472666771
  O   2.14303231240508     -1.25476970057900     -1.27409572595690
  C   -1.06606629270119     -0.02597874398819     -1.15233359391224
  N   -1.43852811219847     -0.08030671764607     -2.26541682580636
  N   -0.96052425864486      1.41235778258088      0.83134570006165
  H   -1.93017275642834      1.41649276831991      1.11805242414416
  H   -0.82338619670028      2.16487238544054      0.16778004107397
