13
Coordinates from ORCA-job run
  C   0.46397206840936     -0.81909939156384      0.04685210963007
  C   -0.67210947479716      0.19808125121889      0.31009506517530
  Cl  0.39062466933355     -1.49073745692477     -1.56428302146503
  H   -0.53570296462594      0.53763537798564      1.34276178571916
  H   0.45623255738639     -1.62667303530548      0.77836375122723
  N   1.75395342333005     -0.06173860712372      0.28688205694104
  O   1.96439634060131      0.17033784752393      1.47463691865375
  O   2.42488077560754      0.31223321696176     -0.66351767866134
  C   -1.94966584367587     -0.52292999628736      0.24357042034029
  N   -2.96091402717172     -1.11585327766936      0.18977436174271
  N   -0.70246819285363      1.35495675533474     -0.54810522570162
  H   -0.71447840686335      1.09447678747735     -1.52591776807904
  H   0.08027907531947      1.97031052837222     -0.37111277552252
