13
Coordinates from ORCA-job run
  C   0.81175672089127      0.09926170893509      0.17446724901884
  C   -0.72521085048431      0.02357498050107      0.17502775700385
  Cl  1.43255249162157      0.34668054885722      1.80563594734055
  H   -1.00378342711360     -0.84908959635321      0.77127919364809
  H   1.18494950359853      0.89636270273422     -0.46766778876917
  N   1.40248693372586     -1.17945422390101     -0.36408210842157
  O   0.84479932738346     -2.22290964925907     -0.04024576245828
  O   2.40072446984746     -1.06233591429910     -1.06589572006784
  C   -1.14726907619405     -0.21181316527836     -1.21288446954201
  N   -1.42953921765467     -0.36051679374561     -2.34258355437999
  N   -1.40931207235525      1.18606767157286      0.69537453418685
  H   -1.15208902762998      2.02629928234100      0.19244337188502
  H   -1.21006577563629      1.30887244789490      1.67913135055566
