13
Coordinates from ORCA-job run
  C   0.54672501158136     -0.75350360371727      0.14618919357419
  C   -0.69513368644195      0.16067430173224      0.27944599640007
  Cl  0.57687435561591     -1.61035238188872     -1.37601562578917
  H   -0.61550236793603      0.63055287174751      1.26594715698487
  H   0.60701379428835     -1.46751077281898      0.96712454229249
  N   1.74480034156040      0.15888440544784      0.30689451340667
  O   1.90553814469826      0.54722421971496      1.46112176271910
  O   2.39186884598932      0.49063434080681     -0.67524060796677
  C   -1.88811915227733     -0.69548108470726      0.28897955913125
  N   -2.82983067385526     -1.39567903496401      0.29833540346256
  N   -0.83042947076727      1.19999090658552     -0.70941725429929
  H   -0.11639601642097      1.90846420920549     -0.60401372952307
  H   -0.79940912603478      0.82610162285586     -1.64935091039289
