13
Coordinates from ORCA-job run
  C   0.64332085905001     -0.49832139465221      0.67391115719628
  C   -0.71028589787678      0.13186470953409      0.37261199210341
  Cl  0.50795468776309     -2.20218326412144      1.09165432240149
  H   -1.25699350670380      0.08193251370676      1.32071282333935
  H   1.11443243714794      0.03485126364972      1.49769379199677
  N   1.59529279655483     -0.35301151930418     -0.48892354666877
  O   1.10884279649245     -0.16852326078826     -1.60138294729127
  O   2.78518029028410     -0.43710335052510     -0.21581180782877
  C   -1.49674259625074     -0.63353028256330     -0.61235641387724
  N   -2.18942158503873     -1.18173230629248     -1.38601705735471
  N   -0.49752750775746      1.53110405045835      0.04635454192401
  H   -1.33357264122049      2.06767703822105      0.23743363145052
  H   -0.27248013244441      1.62797580267699     -0.93588048739106
