13
Coordinates from ORCA-job run
  C   0.83337137480960     -0.14311649084400      0.44650986385461
  C   -0.65791714130326      0.00299445184732      0.13200186363703
  Cl  1.08240849435563     -0.90570698036265      2.00619795261603
  H   -1.10175469981347     -0.98988995511416      0.23821044877327
  H   1.35462113083722      0.81313263585032      0.42898766232882
  N   1.47355832527336     -0.98889433638296     -0.62343039132406
  O   0.93160615790692     -2.06184557447008     -0.86529070612693
  O   2.47182985577785     -0.52576930638307     -1.16495615751275
  C   -0.80906640097462      0.42918395392897     -1.27400690606487
  N   -0.94777145222674      0.83658521314786     -2.36755678843515
  N   -1.26619265568700      0.90605486599973      1.08741170047424
  H   -1.10038759620526      1.87087545385285      0.82891005608956
  H   -2.26530539275022      0.75739606892988      1.12901140169021
