13
Coordinates from ORCA-job run
  C   0.55607186322315     -0.77289965683591      0.26728738942320
  C   -0.57575189415048      0.25584520117015      0.26228243336145
  Cl  0.43311679970573     -1.90051058685839     -1.06483479292088
  H   -0.40883464960992      0.88924119491302      1.13827255836549
  H   0.58497466563821     -1.32939874921083      1.20389139526752
  N   1.85203212594364      0.02292659288026      0.22373279601191
  O   2.01405569053676      0.71747889552399      1.22197440708391
  O   2.59177469057243     -0.06852687083472     -0.73876028253662
  C   -1.86747225580267     -0.43533968643765      0.43782118742400
  N   -2.91753196960907     -0.95094866914361      0.54489831887022
  N   -0.46575149606921      1.08393564727757     -0.91933179345207
  H   -0.75397885382852      0.57723933411622     -1.74730125961240
  H   -1.04270471655005      1.90995735343992     -0.82993235728572
