13
Coordinates from ORCA-job run
  C   0.55571833735393     -0.49084082523212      0.66003830829658
  C   -0.81629514888559      0.11419350681762      0.32787676452279
  Cl  0.47177786584449     -2.20562464997184      1.04242131219945
  H   -1.38348227280345      0.06514611859596      1.26541378812382
  H   0.99786102402310      0.02821402451805      1.51010793898700
  N   1.52620444482715     -0.27711744753873     -0.47166316029712
  O   2.65810476549520      0.07299852540194     -0.15211210148205
  O   1.10776036311736     -0.45865721094902     -1.60983721938654
  C   -1.55798027901820     -0.68775997234299     -0.65312892994096
  N   -2.15611613621509     -1.34274948780670     -1.42096922938986
  N   -0.76928549391328      1.49624847097964     -0.09875737794628
  H   -0.32971939742775      2.09052298546368      0.59179215000928
  H   -0.30554807239788      1.59542596206449     -0.99218224369612
