13
Coordinates from ORCA-job run
  C   0.82624795045843      0.07365130403058      0.22570397654357
  C   -0.71261444768681      0.07617006951669      0.14960592054760
  Cl  1.36538700072724      0.34884947292473      1.87869461297393
  H   -1.05865240402402     -0.72922363312259      0.80446533426547
  H   1.27561897912634      0.82324134659358     -0.42411958613678
  N   1.34116108525308     -1.25929034135748     -0.24869241333583
  O   0.88832575598812     -2.24961551929023      0.31436819156288
  O   2.14467101455192     -1.23581914366014     -1.17560877949755
  C   -1.09410025745587     -0.25820240520899     -1.22971104683139
  N   -1.38748849813388     -0.49069847605092     -2.34236858305249
  N   -1.35823888846189      1.30728681887478      0.54256607571101
  H   -1.04043906152647      2.08930218340575     -0.01650929612126
  H   -1.19087822881620      1.50334832334422      1.52060559337085
