13
Coordinates from ORCA-job run
  C   0.82245951980392      0.01834312646897      0.23699238960602
  C   -0.71665619841360      0.02144390626409      0.16472632424981
  Cl  1.36516955167406     -0.18013312073249      1.89994704796884
  H   -1.05011707493930     -0.94273171759003      0.56005899601270
  H   1.25889991490477      0.92819148824420     -0.17262483570757
  N   1.35452684686383     -1.11750515349785     -0.59636759675669
  O   0.91313375974868     -2.23258127251547     -0.34187386521451
  O   2.15919896878235     -0.82102942782356     -1.47366439340015
  C   -1.09420936702312      0.09232792259535     -1.25393273917361
  N   -1.35646059982499      0.17722904289070     -2.39502004064355
  N   -1.37656601063730      1.07909930869695      0.89439346605979
  H   -1.21241942765675      0.98541100706447      1.88802553274329
  H   -1.06695988328257      1.99293488993467      0.58733971425565
