13
Coordinates from ORCA-job run
  C   0.60468316884084     -0.55823046608494      0.66336055578998
  C   -0.71696061506204      0.12450123718011      0.30666734492876
  Cl  0.38877516449405     -2.25861974388996      1.04882341895500
  H   -1.34444718844441      0.05748137280659      1.20725230326384
  H   1.06950373911437     -0.05945085113350      1.51218381402911
  N   1.57987321739972     -0.39560010767973     -0.47142222713767
  O   1.23783908461216     -0.83105083479744     -1.56189402985744
  O   2.62863310619046      0.17722130483244     -0.19769574194545
  C   -1.44738620525123     -0.57500279829056     -0.75460570014183
  N   -2.11513773765452     -1.11527632692492     -1.55437938778731
  N   -0.40402959995490      1.49104880376063     -0.09358934338459
  H   -0.44374237758001      2.11641777994105      0.70015037069684
  H   -1.03860375670451      1.82656063028023     -0.80485137740925
