13
Coordinates from ORCA-job run
  C   0.94407102656028     -0.02451192587579      0.13842735188969
  C   -0.55845572148243      0.21611136611293      0.30498262234054
  Cl  1.80299784499127      0.24278503474399      1.64419214687361
  H   -0.88855745541981     -0.40815883299622      1.13887702420591
  H   1.37928954306058      0.60412881552863     -0.63736004090460
  N   1.16220063203040     -1.44789537671540     -0.30534152811899
  O   0.60386629085287     -2.31578753437168      0.35666463096050
  O   1.87074957408965     -1.61203486207772     -1.29293670674393
  C   -1.25098737019792     -0.24046337793027     -0.91735048283447
  N   -1.81157909589954     -0.53146104761164     -1.90827455540405
  N   -0.79153624225352      1.60920347794722      0.62649612028714
  H   -0.76384093719092      2.18184434572848     -0.20829640410932
  H   -1.69821808914090      1.72523991751747      1.05891982155796
