13
Coordinates from ORCA-job run
  C   0.91638570686782     -0.02505873389454      0.11028959613075
  C   -0.58933925766713      0.22985582009747      0.18390166860215
  Cl  1.68356492739846      0.35992372631092      1.64870184624685
  H   -0.99301851070408     -0.40872590441708      0.98062836464400
  H   1.37821276353296      0.56611744769192     -0.67727057619613
  N   1.16664308286094     -1.47250288327009     -0.21208755283281
  O   1.91250506091986     -1.69875250522640     -1.15933637044089
  O   0.59216055463423     -2.29781617602694      0.49009818522476
  C   -1.18944668216341     -0.19682125282238     -1.08506779453422
  N   -1.67247333559171     -0.52759019629186     -2.10259960280762
  N   -0.80232165233132      1.66062937552465      0.36454510335934
  H   -0.64972086638110      1.90616480596688      1.33496444394043
  H   -1.75415179137552      1.90557647635744      0.12323268866338
