13
Coordinates from ORCA-job run
  C   0.51959427193590     -0.78790534345443      0.29562090507893
  C   -0.57581282175972      0.27805399509818      0.23784978377408
  Cl  0.40733116642301     -1.92657512960661     -1.02810272229474
  H   -0.41902369465303      0.91625503564857      1.11222375588297
  H   0.49488184003531     -1.33388650582769      1.23863247267937
  N   1.84247964207374     -0.03634896347936      0.29155032067104
  O   1.99114580549776      0.66466151964510      1.28734281800640
  O   2.61337133841552     -0.16372009894194     -0.64195017777800
  C   -1.89571952715483     -0.36699349154111      0.37401613179045
  N   -2.96590561595637     -0.84552524639217      0.44917137717523
  N   -0.39511132634297      1.08755584279444     -0.94800386176336
  H   -0.94734870633586      1.93293422819894     -0.88898166657775
  H   -0.66988237217845      0.58049415785808     -1.78036913664462
