13
Coordinates from ORCA-job run
  C   0.58102694842146     -0.51226307747974      0.65127336087121
  C   -0.79498427895912      0.12999416864556      0.33647106425405
  Cl  0.40178296523382     -2.15890215673365      1.21363505909026
  H   -1.41217354275118     -0.06779636755962      1.21923917516127
  H   1.09947443053309      0.07682384451516      1.40675467086197
  N   1.44674612705964     -0.43596210507345     -0.58570245246468
  O   1.90822609985117      0.68758633995457     -0.78877346068231
  O   1.57193215185739     -1.41864426191890     -1.29879673941082
  C   -1.40822482691182     -0.58000998818692     -0.79524651086665
  N   -1.88718530477377     -1.13190694149180     -1.71358724358577
  N   -0.80387636254844      1.55230111175192      0.08908038149559
  H   -0.53542263009865      2.05965486521549      0.92276309223932
  H   -0.16732177691359      1.80012456836138     -0.65811039696343
