13
Coordinates from ORCA-job run
  C   0.51449513691350     -0.76991104730007      0.17667830064630
  C   -0.68960228793722      0.19915620976493      0.26470580235895
  Cl  0.53060813882715     -1.67067989182412     -1.32037428818319
  H   -0.60134782475662      0.69815779042582      1.23634592965548
  H   0.53271861455417     -1.46180782933560      1.01809081184370
  N   1.74667992017783      0.09575531138297      0.33003265170103
  O   2.39492894579747      0.40661096064941     -0.65878159421709
  O   1.93051654828333      0.47908506268055      1.48242072072080
  C   -1.91701543549685     -0.60662270222083      0.28769790164885
  N   -2.88746501422077     -1.26610972870836      0.30665656461195
  N   -0.77302059194480      1.20913147142296     -0.75964469464045
  H   -0.02604228552513      1.88598355018347     -0.67596685284167
  H   -0.75545386467206      0.80125084287886     -1.68586125330467
