13
Coordinates from ORCA-job run
  C   0.85192369553360     -0.11856688119985      0.33807134066920
  C   -0.62568381020952      0.18390085020859      0.08789346264500
  Cl  1.14827851518967     -0.36432803386263      2.05722192712068
  H   -1.20374477904028     -0.67301916289145      0.45823074751214
  H   1.48689138012823      0.68770180662606     -0.02200558701901
  N   1.24362718816076     -1.36339839168078     -0.40897853957710
  O   2.22963282859315     -1.27670911161980     -1.13370484621899
  O   0.53374559795994     -2.34948064571015     -0.24162375701825
  C   -0.83732235369067      0.27865258373401     -1.36081914362098
  N   -1.01054633413397      0.36391650747336     -2.51871905988597
  N   -0.94247564266946      1.46408644383294      0.70944645849800
  H   -1.80458807795944      1.83280113596858      0.32816246086861
  H   -1.06873820786203      1.33444289912113      1.70582453602666
