14

C	-0.38673	-0.131146	-1.443512
C	0.0	0.0	0.0
F	-1.749064	0.027638	-1.679439
H	1.109376	0.0	0.0
H	0.132141	0.677297	-1.961668
C	0.05072	-1.409856	-2.018422
N	0.383716	-2.392891	-2.565648
N	-0.505923	-1.0807	0.86127
O	-0.084132	-1.107925	2.014183
O	-1.280677	-1.907472	0.368173
N	-0.469876	1.312441	0.496516
O	-1.105418	1.381701	1.544551
O	-0.163198	2.274077	-0.207846
F	2.430823	0.0	0.0
