14

C	-0.560301	-0.006655	-1.413672
C	0.0	0.0	0.0
F	-0.460064	-1.301229	-1.899878
H	1.110002	0.0	0.0
H	-1.618078	0.26843	-1.426135
C	0.188979	0.883181	-2.310015
N	0.722322	1.558718	-3.107056
N	-0.599358	-1.165519	0.707066
O	-1.827727	-1.155175	0.832819
O	0.146183	-2.05909	1.089306
N	-0.455066	1.201212	0.710231
O	-0.414268	1.18549	1.937112
O	-0.782745	2.173588	0.021774
F	2.447495	0.0	0.0
