14

C	-0.364489	0.197459	-1.443931
C	0.0	0.0	0.0
F	-1.709174	0.475998	-1.651379
H	1.110196	0.0	0.0
H	0.206943	1.070342	-1.763552
C	0.023056	-0.937677	-2.289319
N	0.315865	-1.773165	-3.060764
N	-0.536481	-1.228493	0.602934
O	-1.303204	-1.925197	-0.071016
O	-0.149278	-1.498958	1.736049
N	-0.468097	1.184975	0.754061
O	-1.176111	1.04356	1.746499
O	-0.096032	2.266064	0.30201
F	2.432925	0.0	0.0
