14

C	-0.442374	0.246528	-1.412131
C	0.0	0.0	0.0
F	-1.817742	0.420347	-1.540742
H	1.103664	0.0	0.0
H	0.045186	1.161848	-1.749447
C	-0.054872	-0.870397	-2.28654
N	0.180259	-1.73451	-3.044572
N	-0.596799	-1.255799	0.517328
O	-1.768252	-1.225816	0.897961
O	0.112189	-2.259482	0.47351
N	-0.388306	1.123644	0.87383
O	-0.475313	2.235811	0.349298
O	-0.477534	0.90224	2.07727
F	2.442771	0.0	0.0
