17

C	0.0	0.0	0.0
C	-0.423103	0.220571	-1.449756
F	1.405661	0.0	0.0
H	-1.513512	0.307725	-1.445625
H	-0.008756	1.192443	-1.751118
N	-0.447188	1.046935	0.881524
H	-1.447649	0.899957	1.021484
H	-0.359766	1.936698	0.399291
C	-0.440952	-1.335537	0.560772
H	-0.135141	-1.387629	1.607874
H	-1.527297	-1.420819	0.490297
H	0.034878	-2.151382	0.014602
C	0.032306	-0.857929	-2.426565
H	-0.178786	-0.557233	-3.456695
H	1.106469	-1.037561	-2.33715
H	-0.494339	-1.797632	-2.248418
Br	-3.936627	0.0	0.0
