16

C	0.0	0.0	0.0
C	-0.520776	-0.512981	-1.398036
Cl	1.801132	0.0	0.0
H	0.373031	-0.546925	-2.026859
C	-0.394308	1.389092	0.266995
N	-0.593973	2.507229	0.568348
C	-0.412551	-0.838695	1.128995
N	-0.64923	-1.539193	2.042393
N	-1.392516	0.500043	-1.963284
H	-1.568162	0.262942	-2.933337
H	-2.294496	0.47314	-1.474071
C	-1.113343	-1.918273	-1.297772
H	-2.041578	-1.886004	-0.72377
H	-0.417581	-2.636382	-0.851243
H	-1.349512	-2.258019	-2.310418
Br	-4.080794	0.0	0.0
