16

C	0.0	0.0	0.0
C	-0.522156	0.468529	-1.414899
Cl	1.786445	0.0	0.0
H	0.372667	0.83464	-1.926256
C	-0.404354	0.92067	1.070827
N	-0.609422	1.618568	1.993594
C	-0.415452	-1.360043	0.361811
N	-0.659002	-2.475429	0.639139
N	-1.395249	1.612188	-1.233019
H	-1.561567	2.032585	-2.140963
H	-2.301061	1.290682	-0.873072
C	-1.103949	-0.698224	-2.21112
H	-1.352912	-0.336776	-3.213265
H	-2.025601	-1.04525	-1.739939
H	-0.396604	-1.528152	-2.311881
Br	-4.080372	0.0	0.0
