16

C	0.0	0.0	0.0
C	-0.435858	-0.198036	-1.498233
Cl	1.79557	0.0	0.0
H	0.467088	-0.478129	-2.050296
H	-0.233217	-0.942475	0.51155
N	-0.590148	1.141372	0.625843
H	-0.406156	1.081412	1.623587
H	-1.608127	0.921649	0.492895
C	-0.99693	1.083524	-2.098041
H	-1.978071	1.248144	-1.650632
H	-0.353758	1.943232	-1.897278
H	-1.107746	0.946512	-3.17843
N	-1.414938	-1.262571	-1.689071
H	-1.031938	-2.120686	-1.304713
H	-2.210515	-0.971461	-1.090369
F	-2.967974	0.0	0.0
