15
Coordinates from ORCA-job run
  C   -0.58316702226342     -0.41253321788968      0.00408812314011
  C   0.66407333684424      0.29862149346601     -0.58062319760101
  Br  -0.55107579306232     -2.31299191529990     -0.62859814079304
  H   0.62658230847388      0.27010712624240     -1.67150229274107
  N   -1.71348844803956      0.29961459727736     -0.49174702950912
  H   -1.80516961035085      0.23555678844234     -1.49948373229070
  H   -2.56555869105409     -0.04024587134098     -0.06202407746624
  N   -0.49918086127092     -0.46948662447302      1.42692962520782
  H   -1.16951904237838     -1.11812894498674      1.81656068442612
  H   -0.62987850110203      0.45547203876208      1.82328900722829
  N   1.95395594564730     -0.38790308201571     -0.19762354195517
  O   2.44011316359974     -1.11954803188017     -1.05395419955536
  O   2.40067932118252     -0.15459349679478      0.91739220975830
  C   0.70327437477818      1.67461820195218     -0.09720098626428
  N   0.72735951899570      2.78144093853861      0.29449754841534
