15
Coordinates from ORCA-job run
  C   -0.66041083151829     -0.43533090411660     -0.05545941928464
  C   0.75386291297472      0.01585484423851     -0.53741462513157
  Br  -1.43729378777312     -1.27375663721760     -1.74686495947301
  H   1.31746587571543     -0.86103547652958     -0.85807733140130
  N   -1.35071292562764      0.67390266292624      0.43948147518764
  H   -2.26524380266647      0.41136406089463      0.78226005795029
  H   -1.40242544822814      1.45873899571750     -0.19650742642969
  N   -0.70775868785320     -1.47027232910101      0.92014212784558
  H   -0.24972829655294     -1.17023463226790      1.77316495220089
  H   -0.29602420404155     -2.33120878250621      0.58684749943968
  N   1.48759201853450      0.57886082619754      0.66307574123665
  O   1.52813459080953      1.79379827661561      0.80159819394606
  O   1.94686902801488     -0.26456960296868      1.42955206100856
  C   0.70113015605856      1.02633117348550     -1.58313954320543
  N   0.63454340215372      1.84855752463205     -2.41965880388971
