14

C	-0.430038	0.04597	-1.466406
C	0.0	0.0	0.0
F	-0.1779	-1.194984	-2.041161
H	1.093877	0.0	0.0
H	-0.320083	0.921181	0.497316
C	-1.884744	0.284727	-1.597457
N	-3.032988	0.507778	-1.702038
C	0.370579	1.09161	-2.219166
H	0.126401	1.047492	-3.282251
H	1.43123	0.882281	-2.059763
H	0.144816	2.09033	-1.839069
C	-0.561098	-1.144876	0.703321
N	-1.049617	-2.047049	1.272976
Cl	3.343532	0.0	0.0
