14

C	-0.431379	0.054977	-1.466215
C	0.0	0.0	0.0
F	-0.201374	-1.189358	-2.043295
H	1.093766	0.0	0.0
H	-0.318077	0.91943	0.502002
C	-1.881632	0.319295	-1.594649
N	-3.025602	0.565377	-1.69622
C	0.386409	1.087938	-2.218131
H	0.137763	1.052684	-3.280484
H	0.182134	2.089716	-1.833828
H	1.443303	0.858013	-2.062491
C	-0.563324	-1.146933	0.6978
N	-1.047612	-2.054771	1.262399
Cl	3.3412	0.0	0.0
