14

C	-0.536662	-0.057568	-1.430807
C	0.0	0.0	0.0
F	-0.035587	1.020386	-2.143736
H	1.093349	0.0	0.0
H	-0.318036	-0.900398	0.536279
C	-0.060091	-1.300289	-2.073145
N	0.222279	-2.316579	-2.588182
C	-2.052163	0.005694	-1.520524
H	-2.506014	-0.83339	-0.98976
H	-2.394165	0.941353	-1.075012
H	-2.359534	-0.024562	-2.567219
C	-0.519369	1.171937	0.694808
N	-0.97932	2.105241	1.238768
Cl	3.309299	0.0	0.0
