14

C	-0.430879	0.02037	-1.467992
C	0.0	0.0	0.0
F	-0.012769	-1.184345	-2.026838
H	1.093881	0.0	0.0
H	-0.353891	-0.923025	0.466805
C	-1.904733	0.048933	-1.603536
N	-3.073739	0.063582	-1.717591
C	0.222923	1.158255	-2.225954
H	-0.01385	1.078026	-3.288506
H	-0.130978	2.119978	-1.848585
H	1.302245	1.083217	-2.07068
C	-0.519448	1.155726	0.716665
N	-0.938808	2.099099	1.276176
Cl	3.33322	0.0	0.0
