14

C	-0.547461	-0.042398	-1.426125
C	0.0	0.0	0.0
F	-0.055678	1.077206	-2.087014
H	1.093143	0.0	0.0
H	-0.323444	0.949362	0.440113
C	-0.086667	-1.24139	-2.154263
N	0.178102	-2.206923	-2.767626
C	-2.065344	0.025565	-1.485422
H	-2.396834	0.928327	-0.967108
H	-2.510798	-0.848328	-1.007886
H	-2.389669	0.072431	-2.526663
C	-0.530995	-1.102306	0.790508
N	-0.987409	-1.995858	1.40034
Cl	3.318155	0.0	0.0
