14

C	-0.547176	-0.037374	-1.426406
C	0.0	0.0	0.0
F	-0.055455	1.084874	-2.082883
H	1.093064	0.0	0.0
H	-0.323524	0.947745	0.443609
C	-0.085594	-1.233419	-2.158977
N	0.180283	-2.196406	-2.775803
C	-2.06502	0.030009	-1.486465
H	-2.397263	0.930271	-0.964234
H	-2.510521	-0.846194	-1.013217
H	-2.388573	0.081474	-2.527709
C	-0.531631	-1.104503	0.787112
N	-0.995926	-1.993286	1.398137
Cl	3.319513	0.0	0.0
