13

C	-0.258973	0.037864	-1.47443
C	0.0	0.0	0.0
Cl	-1.992395	-0.172415	-1.95315
H	1.094753	0.0	0.0
H	-0.358624	-0.947537	0.40484
C	0.226771	1.262838	-2.099501
N	0.565903	2.283703	-2.571265
N	0.471731	-1.160817	-2.106515
O	0.303431	-2.234749	-1.55192
O	1.105826	-0.956049	-3.130289
C	-0.583567	1.127192	0.682659
N	-1.046983	2.039972	1.261867
F	2.471173	0.0	0.0
