13

C	-0.400266	-0.05032	-1.456479
C	0.0	0.0	0.0
Cl	0.190542	1.353797	-2.341916
H	1.092819	0.0	0.0
H	-0.332589	-0.925825	0.479088
C	0.097432	-1.269473	-2.092165
N	0.463644	-2.251921	-2.62183
N	-1.949216	-0.106858	-1.567449
O	-2.562413	0.905941	-1.864302
O	-2.434123	-1.188507	-1.250724
C	-0.569053	1.14509	0.675968
N	-1.010137	2.069643	1.254006
F	2.479945	0.0	0.0
