13

C	-0.373875	-0.00895	-1.456497
C	0.0	0.0	0.0
Cl	-2.14993	-0.044588	-1.78691
H	1.093039	0.0	0.0
H	-0.310992	0.958663	0.424646
C	0.171862	1.164796	-2.131932
N	0.556377	2.145667	-2.653422
N	0.220087	-1.271035	-2.111534
O	-0.306037	-2.327334	-1.800506
O	1.175085	-1.112371	-2.857086
C	-0.57794	-1.08539	0.761364
N	-1.012275	-1.94806	1.430995
F	2.470372	0.0	0.0
