13

C	-0.488736	0.012556	-1.426087
C	0.0	0.0	0.0
Cl	0.350562	-1.2466	-2.357803
H	1.091367	0.0	0.0
H	-0.290818	-0.965279	0.429375
C	-1.929793	-0.191165	-1.571708
N	-3.084824	-0.403414	-1.613257
N	-0.167039	1.354374	-2.119492
O	-0.770498	1.565336	-3.167577
O	0.668222	2.069639	-1.591341
C	-0.601635	1.066922	0.772674
N	-1.089822	1.923826	1.413094
F	2.492485	0.0	0.0
