13

C	-0.464804	0.03261	-1.435895
C	0.0	0.0	0.0
Cl	0.327741	-1.244853	-2.38057
H	1.091149	0.0	0.0
H	-0.348294	0.904557	0.50719
C	-1.91524	-0.087684	-1.611013
N	-3.084879	-0.196457	-1.681605
N	-0.082987	1.391004	-2.08226
O	0.570312	2.176465	-1.414933
O	-0.490599	1.562534	-3.224734
C	-0.523877	-1.172676	0.665687
N	-0.919756	-2.127543	1.225992
F	2.494493	0.0	0.0
