13

C	0.0	0.0	0.0
C	-0.516355	-0.188136	-1.416941
F	1.383307	0.0	0.0
H	-1.604949	-0.305018	-1.306796
H	-0.347436	-0.808159	0.64433
H	-0.359452	0.950672	0.396134
C	0.046762	-1.40615	-2.001444
N	0.510883	-2.365829	-2.494624
C	-0.212169	1.021873	-2.30184
H	-0.564061	0.858082	-3.32225
H	-0.735786	1.891116	-1.896865
H	0.860676	1.227376	-2.328519
Cl	-3.511616	0.0	0.0
