13

C	0.0	0.0	0.0
C	-0.430682	-0.15802	-1.45574
F	1.383317	0.0	0.0
H	-1.52458	-0.229601	-1.455808
H	-0.359616	-0.824231	0.613948
H	-0.367385	0.944216	0.40143
C	0.147357	-1.393657	-1.99562
N	0.65351	-2.355437	-2.440724
C	0.040843	1.031652	-2.29952
H	-0.452382	1.940422	-1.945408
H	1.122295	1.158013	-2.21443
H	-0.210042	0.892632	-3.353586
Cl	-3.427279	0.0	0.0
