13

C	0.0	0.0	0.0
C	-0.517333	-0.186328	-1.416512
F	1.383114	0.0	0.0
H	-1.607329	-0.291642	-1.307441
H	-0.347371	-0.808219	0.644357
H	-0.358294	0.950936	0.396678
C	0.031406	-1.412808	-1.997139
N	0.482526	-2.379992	-2.487716
C	-0.197167	1.017012	-2.30493
H	-0.70881	1.894564	-1.903275
H	-0.551221	0.854218	-3.324135
H	0.877917	1.208468	-2.332301
Cl	-3.518333	0.0	0.0
