17

C	-0.451554	-0.005824	-1.452353
C	0.0	0.0	0.0
F	-1.854653	-0.183794	-1.531509
H	1.090442	0.0	0.0
C	-0.081451	1.241539	-2.223642
H	0.987688	1.415543	-2.089383
H	-0.332519	1.116497	-3.279039
H	-0.637694	2.089912	-1.823784
C	0.138648	-1.200704	-2.085223
N	0.55862	-2.159501	-2.618197
N	-0.493113	-1.092301	0.777969
H	-1.400947	-1.415763	0.477152
H	0.190853	-1.834159	0.772037
N	-0.503668	1.288168	0.592769
O	0.216819	2.282688	0.496398
O	-1.625511	1.293388	1.10568
F	2.555241	0.0	0.0
