17

C	-0.529994	0.091625	-1.437701
C	0.0	0.0	0.0
F	-0.146774	-1.098812	-2.055882
H	1.093118	0.0	0.0
C	-2.042592	0.169039	-1.521185
H	-2.446735	-0.655435	-0.930702
H	-2.40175	1.124957	-1.136429
H	-2.361328	0.061056	-2.560289
C	0.090849	1.166102	-2.235885
N	0.501491	1.954964	-3.002245
N	-0.454412	-1.221255	0.620947
H	-0.977757	-0.992346	1.45676
H	0.383967	-1.706844	0.918145
N	-0.428797	1.189461	0.760859
O	-0.446585	2.274013	0.171021
O	-0.707532	1.063498	1.958508
F	2.505712	0.0	0.0
