17

C	-0.497322	0.043109	-1.450804
C	0.0	0.0	0.0
F	-0.246646	-1.236497	-1.97647
H	1.090854	0.0	0.0
C	-1.990298	0.284554	-1.620627
H	-2.270669	0.076308	-2.655402
H	-2.547092	-0.385966	-0.960991
H	-2.238559	1.314826	-1.37645
C	0.266901	0.976244	-2.296893
N	0.790988	1.673912	-3.082302
N	-0.447301	-1.160965	0.714101
H	0.3809	-1.697249	0.939014
H	-1.055188	-1.741255	0.152301
N	-0.415204	1.248488	0.700861
O	-0.507779	1.236632	1.923048
O	-0.540296	2.268699	0.007273
F	2.518643	0.0	0.0
