16

C	0.0	0.0	0.0
C	-0.413133	0.039166	-1.471931
F	1.396622	0.0	0.0
H	-0.083137	-0.93313	-1.879455
C	-0.412918	1.213181	0.723634
N	-0.56525	2.181902	1.369269
C	-0.389261	-1.272349	0.732776
H	0.070053	-1.258726	1.724952
H	-1.473619	-1.306039	0.788491
H	0.01509	-2.123656	0.176218
N	0.278108	1.165943	-2.11222
H	1.253005	0.928081	-2.242526
H	-0.15272	1.309469	-3.016738
C	-1.860679	0.163571	-1.791514
N	-2.587358	0.308536	-2.719355
F	-2.58746	0.0	0.0
