16

C	0.0	0.0	0.0
C	-0.581247	0.007791	-1.407762
F	1.392441	0.0	0.0
H	-1.69072	0.00802	-1.136787
C	-0.398947	1.242601	0.695742
N	-0.563704	2.239009	1.294761
C	-0.468352	-1.212533	0.780713
H	-0.057612	-1.165978	1.792813
H	-1.5619	-1.153804	0.776757
H	-0.108782	-2.107275	0.27216
N	-0.190787	-1.202812	-2.126533
H	0.735644	-1.088606	-2.522402
H	-0.840625	-1.357845	-2.886728
C	-0.206395	1.227855	-2.133487
N	0.098342	2.149903	-2.798174
F	-2.825627	0.0	0.0
