16

C	0.0	0.0	0.0
C	-0.611029	0.113092	-1.390338
F	1.392393	0.0	0.0
H	-1.719314	0.130209	-1.08303
C	-0.389659	1.192678	0.785772
N	-0.575952	2.16526	1.416306
C	-0.469313	-1.262522	0.696294
H	-1.562468	-1.204064	0.700391
H	-0.114039	-2.119813	0.124667
H	-0.055801	-1.288474	1.707744
N	-0.308005	-1.067989	-2.194598
H	0.540572	-0.930654	-2.730126
H	-1.070846	-1.226481	-2.839374
C	-0.21374	1.356427	-2.055064
N	0.111481	2.307854	-2.666482
F	-2.852447	0.0	0.0
