16

C	0.0	0.0	0.0
C	-0.603998	0.267907	-1.372092
F	1.392429	0.0	0.0
H	-1.712216	0.240073	-1.075277
C	-0.393769	1.095874	0.913934
N	-0.567748	1.991674	1.652713
C	-0.468405	-1.333887	0.547856
H	-1.561706	-1.276976	0.557382
H	-0.111259	-2.120828	-0.116262
H	-0.055984	-1.473385	1.550537
N	-0.275364	-0.807178	-2.304799
H	0.600495	-0.614345	-2.775999
H	-1.004456	-0.868323	-3.003714
C	-0.215853	1.585803	-1.883322
N	0.104706	2.604193	-2.377983
F	-2.846022	0.0	0.0
