15

C	-0.471118	0.043419	-1.455069
C	0.0	0.0	0.0
Br	0.14426	1.679094	-2.330962
H	1.094832	0.0	0.0
H	-0.011376	-0.774317	-2.009445
C	-1.924904	-0.026081	-1.566881
N	-3.097954	-0.08957	-1.616419
N	-0.377454	-1.351599	0.548568
O	-0.484179	-1.461275	1.765873
O	-0.513191	-2.277311	-0.254896
C	-0.538921	1.09835	0.888388
H	-0.238463	2.063771	0.480372
H	-1.628383	1.060303	0.96873
H	-0.102033	0.997929	1.880018
Br	3.401351	0.0	0.0
