15

C	-0.463122	-0.003274	-1.457928
C	0.0	0.0	0.0
Br	0.131105	1.614673	-2.374881
H	1.093133	0.0	0.0
H	0.013944	-0.826481	-1.985301
C	-1.913776	-0.101281	-1.581929
N	-3.084916	-0.159098	-1.66099
N	-0.381631	-1.334327	0.583317
O	-0.529092	-2.279993	-0.193981
O	-0.474711	-1.416607	1.803616
C	-0.546455	1.119144	0.856089
H	-1.638549	1.09	0.911974
H	-0.229622	2.074408	0.438788
H	-0.135789	1.033324	1.859796
Br	3.403257	0.0	0.0
