15

C	-0.455242	-0.000258	-1.461705
C	0.0	0.0	0.0
Br	0.136847	1.618075	-2.375807
H	1.092871	0.0	0.0
H	0.029236	-0.827975	-1.97852
C	-1.905717	-0.106027	-1.585325
N	-3.075002	-0.204199	-1.651354
N	-0.394529	-1.348437	0.544795
O	-0.078764	-2.32608	-0.132593
O	-0.984069	-1.402141	1.623763
C	-0.548674	1.116553	0.852626
H	-0.16866	1.011448	1.867685
H	-1.64064	1.115944	0.882991
H	-0.191317	2.066692	0.455124
Br	3.440691	0.0	0.0
