15

C	-0.463526	-0.020002	-1.457503
C	0.0	0.0	0.0
Br	0.13396	1.585273	-2.394659
H	1.092822	0.0	0.0
H	0.010888	-0.85111	-1.975722
C	-1.914034	-0.117674	-1.579508
N	-3.083612	-0.19946	-1.659531
N	-0.380731	-1.327745	0.598579
O	-0.514851	-2.285068	-0.16663
O	-0.485194	-1.393212	1.81966
C	-0.546293	1.129014	0.842805
H	-0.231571	2.079162	0.412504
H	-1.638195	1.099177	0.901454
H	-0.133363	1.056835	1.846723
Br	3.403835	0.0	0.0
