15

C	-0.413373	0.029	-1.460392
C	0.0	0.0	0.0
Br	-2.374664	0.072133	-1.680902
H	1.094447	0.0	0.0
H	-0.071489	0.986036	-1.860286
C	0.109135	-1.022947	-2.324638
N	0.451498	-1.795984	-3.140666
N	-0.447693	-1.260298	0.665132
O	-0.723168	-1.20353	1.862658
O	-0.477284	-2.284627	-0.012475
C	-0.452796	1.216865	0.779837
H	0.024706	1.211208	1.757456
H	-1.535342	1.248203	0.910149
H	-0.122272	2.113469	0.250313
Br	3.365582	0.0	0.0
