15

C	-0.48983	0.030159	-1.439101
C	0.0	0.0	0.0
Cl	0.143088	1.41439	-2.328455
H	1.094069	0.0	0.0
H	-0.349428	-0.946312	0.425077
N	-0.028091	-1.283343	-2.114954
O	-0.668832	-2.267502	-1.758911
O	0.917645	-1.253977	-2.879467
C	-1.951021	0.044966	-1.525287
N	-3.124667	0.097905	-1.550112
C	-0.509139	1.17898	0.817842
H	-0.142092	2.121188	0.408817
H	-1.601163	1.214101	0.86978
H	-0.116289	1.090402	1.832099
Br	3.5816	0.0	0.0
