15

C	-0.437694	0.016369	-1.444323
C	0.0	0.0	0.0
Cl	-2.21467	0.26938	-1.603553
H	1.091018	0.0	0.0
H	-0.340849	0.93589	0.447633
N	0.204777	1.213079	-2.166244
O	0.095009	2.288162	-1.598452
O	0.740165	0.997874	-3.244831
C	-0.105536	-1.205966	-2.167919
N	0.097183	-2.220822	-2.72418
C	-0.507161	-1.215513	0.762019
H	-0.140068	-1.159275	1.788462
H	-1.598521	-1.271421	0.785062
H	-0.113725	-2.137439	0.328523
Br	3.510403	0.0	0.0
