15

C	0.0	0.0	0.0
C	-0.584335	-0.108055	-1.421294
Cl	1.750755	0.0	0.0
H	-1.605623	0.270813	-1.338347
H	-0.362872	-0.787802	0.654127
N	-0.408571	1.292614	0.666845
O	-0.488933	1.27629	1.889523
O	-0.576854	2.274639	-0.050028
N	-0.538994	-1.529756	-1.75535
H	-0.760873	-1.577518	-2.743738
H	-1.312171	-1.972546	-1.26063
N	0.089207	0.624025	-2.466876
H	1.07987	0.412966	-2.457357
H	-0.03523	1.612643	-2.299376
Br	-3.705859	0.0	0.0
