13

C	-0.460293	-0.025787	-1.450336
C	0.0	0.0	0.0
Cl	-0.087361	1.605589	-2.131386
H	1.090402	0.0	0.0
H	-0.352569	0.889475	0.516952
C	0.235346	-1.019129	-2.283324
N	0.723456	-1.7645	-3.051101
C	-1.909114	-0.22221	-1.572323
N	-3.076658	-0.326604	-1.661066
N	-0.437693	-1.168266	0.709596
O	-0.663428	-2.198685	0.045252
O	-0.422431	-1.116885	1.947811
H	2.472794	0.0	0.0
