13

C	-0.43978	0.002693	-1.443676
C	0.0	0.0	0.0
Cl	-2.257165	0.081475	-1.614851
H	1.093043	0.0	0.0
H	-0.344477	-0.892084	0.51936
C	0.123421	1.090137	-2.253312
N	0.554592	1.886381	-3.00285
C	-0.029886	-1.273453	-2.045481
N	0.268098	-2.291738	-2.549075
N	-0.44331	1.160185	0.724542
O	-0.561632	2.228167	0.103061
O	-0.551026	1.045402	1.953956
H	2.475762	0.0	0.0
