13

C	-0.501326	0.027843	-1.432925
C	0.0	0.0	0.0
Cl	0.423633	-1.077525	-2.523513
H	1.088767	0.0	0.0
H	-0.298536	0.897171	0.540895
C	-1.92767	-0.298611	-1.554021
N	-3.084908	-0.481003	-1.653894
C	-0.312843	1.391259	-1.94801
N	-0.186373	2.486175	-2.355645
N	-0.461962	-1.147789	0.736012
O	-0.402101	-1.067448	1.971373
O	-0.753505	-2.18012	0.108475
H	2.465449	0.0	0.0
