13

C	-0.442642	-0.003821	-1.442317
C	0.0	0.0	0.0
Cl	-2.256882	-0.076454	-1.614505
H	1.093036	0.0	0.0
H	-0.33969	0.8954	0.517264
C	-0.026689	1.270498	-2.045509
N	0.281999	2.283179	-2.554669
C	0.121101	-1.09272	-2.250953
N	0.601594	-1.887317	-2.970859
N	-0.443785	-1.153746	0.731831
O	-0.570897	-2.225631	0.118017
O	-0.542017	-1.032345	1.961601
H	2.472789	0.0	0.0
