18

C	0.0	0.0	0.0
C	-0.181923	0.207305	-1.551479
Cl	1.876346	0.0	0.0
H	0.419956	-0.579609	-2.026537
C	-0.417622	1.219065	0.800355
H	-1.50853	1.245698	0.713489
H	0.042429	2.12579	0.412236
H	-0.122386	1.062932	1.839925
N	-0.560837	-1.168782	0.534887
H	-1.596686	-0.895554	0.527615
H	-0.453785	-1.935786	-0.120017
N	0.162065	1.54868	-1.957025
H	1.145584	1.68797	-1.76467
H	-0.012725	1.661663	-2.94765
N	-1.551032	-0.115754	-2.124166
O	-1.797202	-1.313841	-2.220759
O	-2.223117	0.788546	-2.600104
F	-2.812351	0.0	0.0
