18

C	0.0	0.0	0.0
C	-0.346117	0.062605	-1.535811
Cl	1.799214	0.0	0.0
H	0.519039	0.453565	-2.073801
C	-0.44544	1.283066	0.688807
H	-0.068076	1.276849	1.71697
H	-1.537418	1.260873	0.68357
H	-0.07535	2.173112	0.17692
N	-0.571973	-1.187536	0.568157
H	-1.592255	-1.021393	0.439332
H	-0.391827	-1.172927	1.567964
N	-1.508914	0.787313	-1.837187
H	-1.731438	0.689365	-2.819858
H	-2.302403	0.475419	-1.2157
N	-0.363392	-1.405864	-2.051389
O	-1.450397	-1.940682	-2.241324
O	0.727376	-1.924922	-2.286229
F	-3.056545	0.0	0.0
