18

C	0.0	0.0	0.0
C	-0.256756	-0.069711	-1.549573
Cl	1.797677	0.0	0.0
H	0.286697	0.76001	-2.011709
C	-0.514636	1.335686	0.500968
H	-0.222048	1.452351	1.546649
H	-1.60589	1.289005	0.423499
H	-0.108111	2.164237	-0.083726
N	-0.575093	-1.039773	0.792349
H	-0.402748	-1.927459	0.334319
H	-1.590216	-0.853668	0.74771
N	-1.592983	-0.192328	-1.965408
H	-2.309638	-0.153766	-1.177884
H	-1.810857	0.48591	-2.679549
N	0.510633	-1.274567	-2.151773
O	0.342406	-2.390139	-1.663907
O	1.1827	-1.055625	-3.1602
F	-3.159882	0.0	0.0
