17

C	-0.425505	-0.158184	-1.475299
C	0.0	0.0	0.0
Cl	-2.188622	-0.393335	-1.615602
H	1.092939	0.0	0.0
N	-0.0847	1.125356	-2.315476
O	-0.956954	1.94934	-2.55064
O	1.082682	1.17418	-2.679923
N	0.253847	-1.284135	-1.980259
H	0.069151	-1.404189	-2.967972
H	1.253204	-1.160171	-1.822776
N	-0.405058	-1.063333	0.844797
H	0.286085	-1.796678	0.79949
H	-1.323549	-1.42094	0.627217
N	-0.504419	1.315369	0.528337
O	0.00997	2.323431	0.048485
O	-1.385683	1.301924	1.38175
Br	3.365423	0.0	0.0
