17

C	0.0	0.0	0.0
C	-0.368013	0.365249	-1.453638
F	1.401711	0.0	0.0
H	0.353221	-0.213266	-2.049286
H	-0.321198	0.782291	0.696271
C	-0.513944	-1.343485	0.445091
H	-0.208937	-2.12087	-0.262354
H	-1.604435	-1.307	0.498701
H	-0.115272	-1.594972	1.431447
C	-0.105974	1.847647	-1.693961
H	0.88782	2.135807	-1.339368
H	-0.19001	2.068973	-2.759536
H	-0.85621	2.446775	-1.166677
N	-1.691531	0.025608	-1.935839
H	-2.435076	0.363289	-1.323625
H	-1.810606	-0.979414	-1.945886
Cl	-4.320125	0.0	0.0
