17

C	0.0	0.0	0.0
C	-0.388938	0.117021	-1.483632
F	1.401852	0.0	0.0
H	0.259965	-0.617034	-1.984254
H	-0.320927	0.888615	0.556123
C	-0.507827	-1.249193	0.674475
H	-0.225579	-2.134725	0.096729
H	-1.595846	-1.2004	0.758032
H	-0.077296	-1.336437	1.675671
C	-0.033629	1.505175	-2.002939
H	0.998259	1.768957	-1.759848
H	-0.701976	2.245671	-1.553082
H	-0.175353	1.540263	-3.085069
N	-1.756146	-0.189305	-1.848222
H	-1.998103	-1.140837	-1.59971
H	-2.436818	0.369965	-1.337101
Cl	-4.444186	0.0	0.0
