17

C	0.0	0.0	0.0
C	-0.401076	-0.175765	-1.458749
F	1.407439	0.0	0.0
H	0.010149	0.704267	-1.984191
H	-0.305622	0.995456	0.339906
C	-0.517331	-1.064113	0.932912
H	-0.057768	-0.948753	1.917951
H	-1.60101	-0.964889	1.037402
H	-0.284125	-2.051552	0.534634
C	-1.903143	-0.213873	-1.655307
H	-2.338518	-1.119397	-1.236071
H	-2.139362	-0.184891	-2.724313
H	-2.427099	0.613323	-1.176782
N	0.197452	-1.422731	-1.951403
H	-0.134157	-1.590907	-2.894037
H	1.203919	-1.313415	-1.988411
Cl	-4.943868	0.0	0.0
