13

C	0.0	0.0	0.0
C	-0.487715	-0.432521	-1.393047
Br	1.932746	0.0	0.0
H	0.125345	0.10414	-2.12097
H	-0.35583	-0.613842	0.824816
H	-0.228624	-1.494903	-1.474908
N	-0.422572	1.408565	0.322634
O	-0.379345	2.224377	-0.593246
O	-0.747445	1.635354	1.483059
N	-1.868086	-0.229606	-1.717505
H	-2.548223	-0.578909	-1.044733
H	-2.079739	0.753336	-1.818932
Cl	-4.570702	0.0	0.0
