13

C	0.0	0.0	0.0
C	-0.599925	-0.082132	-1.393767
Br	1.926323	0.0	0.0
H	-1.501502	0.532633	-1.38209
H	-0.344457	-0.799307	0.649063
H	0.106253	0.319507	-2.123556
N	-0.358757	1.290622	0.694148
O	-0.411571	2.299976	-0.000698
O	-0.50009	1.242779	1.910432
N	-0.890472	-1.490374	-1.66395
H	-0.982635	-1.614929	-2.664733
H	-1.813838	-1.646373	-1.261818
Cl	-3.529215	0.0	0.0
