13

C	0.0	0.0	0.0
C	-0.548459	0.460767	-1.367143
Br	1.932458	0.0	0.0
H	0.231205	1.046813	-1.86793
H	-0.330979	-1.008174	0.2431
H	-0.71701	-0.452138	-1.950828
N	-0.408785	0.80836	1.149826
O	-0.428594	2.191817	0.86487
O	-0.000161	0.47458	2.289994
N	-1.723265	1.343315	-1.277176
H	-2.416037	1.071416	-1.97435
H	-1.14994	2.22965	0.175333
Cl	-3.643207	0.0	0.0
