13

C	0.0	0.0	0.0
C	-0.450419	0.199363	-1.436247
Br	1.93275	0.0	0.0
H	0.046593	1.085942	-1.836316
H	-0.391375	-0.909773	0.442634
H	-1.524244	0.373358	-1.388356
N	-0.400895	1.139862	0.892609
O	-0.537648	2.240005	0.366934
O	-0.492703	0.895805	2.089277
N	-0.13399	-1.016518	-2.188232
H	-0.976732	-1.366648	-2.619154
H	0.547528	-0.828266	-2.909154
Cl	-3.420698	0.0	0.0
