13

C	0.0	0.0	0.0
C	-0.559401	0.226857	-1.421456
Br	1.93229	0.0	0.0
H	0.224427	0.69814	-2.027128
H	-0.336584	-0.947182	0.417881
H	-0.759976	-0.770408	-1.830269
N	-0.389418	1.00567	0.996206
O	-0.380522	2.316546	0.46958
O	0.022353	0.871712	2.173195
N	-1.718526	1.13588	-1.4769
H	-2.399426	0.777055	-2.147495
H	-1.100349	2.244397	-0.220654
Cl	-3.616243	0.0	0.0
