13

C	0.0	0.0	0.0
C	-0.474615	0.196471	-1.425084
Br	1.933013	0.0	0.0
H	-1.552289	0.358194	-1.362378
H	-0.367857	-0.917688	0.448324
H	0.002089	1.092088	-1.831427
N	-0.396515	1.131715	0.905035
O	-0.522121	2.239211	0.392948
O	-0.498797	0.872769	2.098009
N	-0.155565	-1.014847	-2.180815
H	-0.995414	-1.366661	-2.616628
H	0.52969	-0.823809	-2.896904
Cl	-3.450333	0.0	0.0
