13

C	0.0	0.0	0.0
C	-0.601832	0.367897	-1.334481
Br	1.927337	0.0	0.0
H	-1.684599	0.39897	-1.14785
H	-0.342118	-0.978173	0.329536
H	-0.399367	-0.480519	-1.996328
N	-0.408312	0.938908	1.110621
O	-0.473946	0.455675	2.23442
O	-0.595513	2.117332	0.823839
N	-0.032022	1.57145	-1.939155
H	-0.36911	2.365299	-1.409168
H	-0.422636	1.652408	-2.870385
Cl	-3.720053	0.0	0.0
