13

C	0.0	0.0	0.0
C	-0.525527	0.10436	-1.428838
Br	1.930408	0.0	0.0
H	-1.562914	0.427896	-1.348927
H	-0.364209	-0.877705	0.526777
H	0.050939	0.860989	-1.965254
N	-0.380094	1.185362	0.847855
O	-0.514813	2.259505	0.27496
O	-0.46457	0.991389	2.054396
N	-0.499403	-1.159668	-2.143364
H	-1.224399	-1.754035	-1.755988
H	0.397002	-1.619983	-2.03317
Cl	-3.480124	0.0	0.0
