15

C	0.0	0.0	0.0
C	-0.536829	-0.181207	-1.411834
Br	1.941538	0.0	0.0
H	-0.188883	-1.113836	-1.839572
H	-1.63664	-0.127997	-1.262737
N	-0.56755	1.067895	0.658218
H	-1.611734	0.87342	0.518918
H	-0.316811	1.04128	1.639373
N	-0.307406	-1.38477	0.736247
O	-0.317402	-2.420432	0.082117
O	-0.470163	-1.306312	1.947177
N	-0.076774	0.896216	-2.318509
O	0.70074	0.574111	-3.224785
O	-0.513116	2.03191	-2.149651
F	-2.793482	0.0	0.0
