15

C	0.0	0.0	0.0
C	-0.533468	-0.039079	-1.416861
Br	2.016979	0.0	0.0
H	-0.16443	-0.905228	-1.949406
H	-1.633029	-0.046345	-1.25241
N	-0.565099	0.964479	0.792852
H	-1.611944	0.799893	0.61662
H	-0.334189	0.784778	1.763084
N	-0.256771	-1.464282	0.576986
O	-0.23927	-2.419578	-0.189313
O	-0.431222	-1.528571	1.785423
N	-0.158154	1.13827	-2.231922
O	0.342332	0.902242	-3.339064
O	-0.412339	2.26063	-1.807984
F	-2.792347	0.0	0.0
