15

C	0.0	0.0	0.0
C	-0.50555	0.017482	-1.431034
Br	2.016597	0.0	0.0
H	-1.605695	0.049273	-1.300383
H	-0.149668	-0.846476	-1.978819
N	-0.568963	0.952289	0.799025
H	-1.621012	0.775304	0.60812
H	-0.337872	0.771436	1.768987
N	-0.260577	-1.479083	0.530679
O	-0.426656	-1.577602	1.73889
O	-0.251986	-2.409189	-0.265637
N	-0.037723	1.213592	-2.170798
O	-0.478258	2.312913	-1.844083
O	0.747083	1.023	-3.106024
F	-2.776029	0.0	0.0
