15

C	0.0	0.0	0.0
C	-0.580365	0.347189	-1.359064
F	1.350818	0.0	0.0
H	-1.647789	0.551322	-1.109649
H	-0.408034	-0.948448	0.331159
N	-0.405231	0.992353	1.057862
O	-0.665265	2.13889	0.716726
O	-0.341668	0.583848	2.215413
N	-0.505277	-0.760691	-2.280361
H	-1.337198	-1.316664	-2.127498
H	0.313979	-1.330635	-2.103328
N	0.022388	1.550558	-2.027831
O	-0.632513	2.004122	-2.964239
O	1.096939	2.016288	-1.646095
F	-2.631822	0.0	0.0
