15

C	0.0	0.0	0.0
C	-0.439275	-0.047519	-1.476914
F	1.350349	0.0	0.0
H	0.486063	-0.083865	-2.06577
H	-0.39999	-0.814133	0.58326
N	-0.349798	1.255078	0.752856
O	-0.096073	2.330054	0.216987
O	-0.70733	1.110574	1.918439
N	-1.305144	0.95325	-1.935017
H	-2.124978	0.814034	-1.298243
H	-1.535862	0.768469	-2.901847
N	-0.986632	-1.493043	-1.702724
O	-0.43646	-2.413855	-1.100041
O	-1.841796	-1.639852	-2.566391
F	-2.487778	0.0	0.0
