15

C	0.0	0.0	0.0
C	-0.534443	0.354756	-1.402635
F	1.352403	0.0	0.0
H	-1.266466	1.142221	-1.306113
H	-0.394153	-0.943385	0.355335
N	-0.380324	1.024004	1.029751
O	-0.436995	2.196378	0.673569
O	-0.462594	0.623164	2.18685
N	-1.128562	-0.751857	-2.101252
H	-0.509801	-1.554244	-2.039654
H	-1.946834	-0.887254	-1.489642
N	0.592656	0.906398	-2.24064
O	1.378333	0.104862	-2.743496
O	0.649472	2.12814	-2.382644
F	-2.463658	0.0	0.0
