15

C	0.0	0.0	0.0
C	-0.405482	-0.096093	-1.487874
F	1.349371	0.0	0.0
H	0.534343	-0.085008	-2.050118
H	-0.399146	-0.80559	0.594626
N	-0.374101	1.255838	0.734921
O	-0.511398	1.116484	1.949739
O	-0.343328	2.330385	0.145452
N	-1.318693	0.825586	-2.011866
H	-2.127571	0.710025	-1.360486
H	-1.545786	0.551125	-2.959008
N	-0.840352	-1.585218	-1.689672
O	-0.251501	-2.449984	-1.04269
O	-1.654364	-1.814612	-2.576571
F	-2.459169	0.0	0.0
