15

C	0.0	0.0	0.0
C	-0.806427	0.095236	-1.252049
F	1.345275	0.0	0.0
H	-1.87939	0.409199	-0.810121
H	-0.393119	-0.839165	0.569854
N	-0.247623	1.254559	0.927414
O	-1.329159	1.383153	1.47567
O	0.705198	2.016202	1.074383
N	-1.007807	-1.231095	-1.807812
H	-1.983691	-1.431489	-1.606111
H	-0.856686	-1.190638	-2.810266
N	-0.197356	1.030182	-2.210385
O	0.20233	2.107443	-1.769753
O	-0.128812	0.714125	-3.404055
F	-2.978907	0.0	0.0
