17

C	0.0	0.0	0.0
C	-0.438934	0.302956	-1.425558
Br	1.954815	0.0	0.0
H	-0.031216	1.291846	-1.662774
H	0.053171	-0.412077	-2.086877
C	-0.56883	0.922049	1.047277
H	-1.653333	0.780894	1.088584
H	-0.147866	0.716706	2.029177
H	-0.3519	1.953742	0.763791
N	-0.347439	-1.451646	0.353737
O	-0.332778	-2.269984	-0.55898
O	-0.568915	-1.701459	1.533789
C	-1.947913	0.27972	-1.631862
H	-2.403602	-0.665158	-1.339963
H	-2.479205	1.046137	-1.071437
H	-2.163793	0.435644	-2.692424
Br	-5.045978	0.0	0.0
