16

C	-0.37743	-0.003777	-1.465723
C	0.0	0.0	0.0
F	-0.063859	1.18347	-2.035144
H	1.091889	0.0	0.0
H	0.16212	-0.807913	-1.97069
N	-1.840944	-0.274253	-1.757248
O	-2.523989	0.613206	-2.245717
O	-2.209218	-1.41888	-1.499088
C	-0.474768	-1.187644	0.817427
H	-0.018837	-1.113818	1.806751
H	-0.126382	-2.112217	0.355474
H	-1.560832	-1.220749	0.904124
N	-0.530029	1.241928	0.632121
O	-1.732167	1.464038	0.457916
O	0.223543	1.920568	1.317653
Cl	3.307508	0.0	0.0
