16

C	-0.508936	-0.076801	-1.428826
C	0.0	0.0	0.0
F	-0.400323	-1.343286	-1.909878
H	1.090859	0.0	0.0
H	-1.542769	0.257018	-1.52319
N	0.289793	0.842595	-2.327509
O	0.727554	0.396845	-3.376888
O	0.371275	1.995452	-1.921065
C	-0.520908	-1.154883	0.838303
H	-0.167036	-1.030855	1.863298
H	-1.613868	-1.198437	0.829213
H	-0.113373	-2.08706	0.449332
N	-0.501703	1.265254	0.626624
O	0.233286	1.828893	1.42755
O	-1.658411	1.60887	0.365306
Cl	3.304295	0.0	0.0
