16

C	-0.404811	-0.001119	-1.45743
C	0.0	0.0	0.0
F	0.073997	1.099544	-2.081752
H	1.091859	0.0	0.0
H	-0.031246	-0.901998	-1.948165
N	-1.906934	-0.022906	-1.680934
O	-2.452501	-1.093862	-1.425024
O	-2.451277	0.98645	-2.104683
C	-0.521048	-1.155576	0.831232
H	-1.606161	-1.13877	0.919242
H	-0.066659	-1.090233	1.822001
H	-0.209858	-2.10092	0.383657
N	-0.476011	1.285775	0.612359
O	0.355605	2.095603	1.00246
O	-1.700613	1.424323	0.699146
Cl	3.294734	0.0	0.0
