17
Coordinates from ORCA-job run
  C   -0.61660693573161     -0.01924333662732      0.29769111661516
  C   0.85167962331213     -0.39160041908637      0.62191655025074
  F   -1.24677391295246     -0.13261130241610      1.54237705909036
  H   0.85267120938204     -1.36362681393424      1.11839205980551
  C   -0.78575483192176      1.40550631017443     -0.17751724416707
  H   -1.84860871073602      1.59953693881208     -0.33287458005175
  H   -0.25374970136947      1.57621648658262     -1.11377480301775
  H   -0.41178708469427      2.10529469493353      0.57099101494932
  C   -1.24144612197144     -1.03913313780982     -0.63097348617456
  H   -2.31647674380235     -0.85482597501499     -0.66875023458039
  H   -1.07453688518763     -2.05491472398370     -0.26840501508044
  H   -0.84182076372721     -0.95814605661814     -1.64301781685619
  C   1.50867070921462      0.60421566561443      1.45786744729682
  N   2.02246081979854      1.39995518435751      2.15150452892798
  N   1.62675661470847     -0.57712997726396     -0.65567245843531
  O   1.74209350143086     -1.73336935268804     -1.05072056848789
  O   2.03322921424756      0.43387581496807     -1.21903357008452
