17
Coordinates from ORCA-job run
  C   -0.40367174677709      0.26674300185764     -0.25945620611764
  C   0.91472233483496     -0.12339471145385      0.44334655094580
  F   -0.05846892146591      0.99313039769105     -1.39462481761969
  H   0.69140163703120     -0.61260747989108      1.39382224947957
  C   -1.18259054425776     -0.95211305861037     -0.70952030467538
  H   -0.63621294112438     -1.49500223844226     -1.48155131503027
  H   -2.13270337205500     -0.62349253658797     -1.13367470751386
  H   -1.38019912948227     -1.63095078361292      0.12207081330616
  C   -1.20387650215993      1.17891263110031      0.64977298256891
  H   -0.62771752541127      2.06842296499091      0.91070080341590
  H   -2.10444885639160      1.49858498805874      0.12252602714799
  H   -1.50113576455745      0.66089028073956      1.56436041091690
  C   1.77563843385307      1.03389779726877      0.65197151592225
  N   2.43770766395951      1.97951212150680      0.86480946785089
  N   1.64507448728088     -1.15797007238857     -0.37578342471735
  O   1.45139970905378     -2.32550412018624     -0.04759757733448
  O   2.31308103766925     -0.75905918204050     -1.32117246854572
