17
Coordinates from ORCA-job run
  C   -0.59497563571987     -0.07401912418955      0.19588278046171
  C   0.89445628831861     -0.05033911243621      0.60476268807478
  F   -1.18507685826255     -1.00088540479827      1.05642263318224
  H   0.95894364162907      0.18504766260599      1.66929632416659
  C   -1.20966022819783      1.28211187599067      0.48200923519190
  H   -1.03715529808702      1.57272011677309      1.52060908970377
  H   -0.80231168929610      2.05042809298203     -0.17728668741385
  H   -2.28705159910562      1.21798430706958      0.31944939860199
  C   -0.82906648029622     -0.53764761112049     -1.22515794103395
  H   -1.90080588237118     -0.50219879659863     -1.42898735414488
  H   -0.48370926682715     -1.56111579871285     -1.36556216063723
  H   -0.31349797741247      0.10614688879453     -1.94000190009032
  C   1.65529893285430      0.90174743449819     -0.19072617387573
  N   2.23393640058271      1.70318255346833     -0.82460960590280
  N   1.49872289552490     -1.42705498864985      0.46707052359214
  O   1.87612777166494     -1.76221832599651     -0.65122631195665
  O   1.52582498500148     -2.10388976968004      1.48805546208029
