17
Coordinates from ORCA-job run
  C   -0.36558963730877      0.29648151860305     -0.28236752159996
  C   0.84956868689578     -0.18238037100568      0.54116981084102
  F   0.12641045230253      1.12047354758979     -1.28942156350932
  H   0.50341862919802     -0.75841628301477      1.40197091073368
  C   -1.08802162180456     -0.86031444028953     -0.94192213954192
  H   -1.97607398231085     -0.47677306261245     -1.44689515296006
  H   -1.39216668876876     -1.61130077911016     -0.21054452340302
  H   -0.45202964138989     -1.33659866169302     -1.68883027104908
  C   -1.27034805397682      1.13329780056561      0.60122721471993
  H   -0.72650358277717      1.98208595351608      1.01957326309105
  H   -1.68825884437222      0.53632787679187      1.41489050573066
  H   -2.09198031861457      1.51999491399826     -0.00413905866390
  C   1.68059940680736      0.93443585113781      0.97299251435913
  N   2.31367432259483      1.84279913194531      1.36271850168364
  N   1.67622390800169     -1.14269127580599     -0.27591456679863
  O   2.46518931620199     -0.66373305689235     -1.08051761586608
  O   1.43688764932138     -2.33368866372384     -0.09499030776715
