17
Coordinates from ORCA-job run
  C   -0.38573163306059      0.28625930162215     -0.26542205638382
  C   0.88754323280545     -0.16293989213873      0.48334423458317
  F   0.02951448689557      1.06796062238240     -1.33876878133585
  H   0.60690589313601     -0.70337683446555      1.38985302329392
  C   -1.15504734684554     -0.89419381845586     -0.82227453340144
  H   -1.40082455738357     -1.61600373879095     -0.04122320632817
  H   -2.07989564882620     -0.52963295536551     -1.27231115969240
  H   -0.57700367245879     -1.39978855011981     -1.59651330568140
  C   -1.22227947047168      1.16036017547443      0.64864370071984
  H   -2.08470881314559      1.52744581485328      0.08963766467028
  H   -1.58158631769673      0.59669280438339      1.51244962632076
  H   -0.64822930740400      2.02200136516998      0.99388890606525
  C   1.74921450709152      0.96714665682908      0.80657233550104
  N   2.41006043123484      1.88831674291825      1.11083730326371
  N   1.65038631213290     -1.15777285774692     -0.35475086713869
  O   1.42565577223029     -2.33993286347335     -0.10869811918296
  O   2.37602613176613     -0.71354197307628     -1.23526476527324
