17
Coordinates from ORCA-job run
  C   -0.57033534365610     -0.04341515531968      0.26631852183663
  C   0.95532819810753     -0.00557096376426      0.50501232007606
  F   -1.06808624563200     -0.86888404941324      1.27543922775814
  H   1.13934491645969      0.33456685666712      1.52646571574438
  C   -1.14066710594187      1.34511258320967      0.47960130235875
  H   -0.80016478840809      2.03870223463472     -0.29098454415129
  H   -0.85620134611290      1.73113786139168      1.46090611809232
  H   -2.22973226430307      1.28534308535420      0.43865523546579
  C   -0.96246465978763     -0.64285166137431     -1.06633361339438
  H   -0.52544403532994     -0.08291546068589     -1.89505281940391
  H   -0.64012401928493     -1.68091886035883     -1.13888864525269
  H   -2.05000239669041     -0.61089429598061     -1.15427598325404
  C   1.62932120216281      0.84899321105742     -0.46133701130876
  N   2.13879957943173      1.57351121243663     -1.23230019825896
  N   1.53179400171580     -1.39941090958354      0.44169949349004
  O   1.78356037310119     -1.84992667954255     -0.67126347395777
  O   1.66507393416821     -1.97257900872853      1.51633835415971
