17
Coordinates from ORCA-job run
  C   -0.62331799884335      0.01178351892629      0.28231211491166
  C   0.82085386474222     -0.41102521417045      0.65062337731513
  F   -1.28508834655373     -0.04372717729889      1.51447594284992
  H   0.77082901320061     -1.37198086870897      1.16578825487811
  C   -0.72303549896302      1.42943787277152     -0.23214697186554
  H   -0.33526112763465      2.13269419006927      0.50607397663355
  H   -1.77364522379920      1.66284993131168     -0.41447888311983
  H   -0.16594213840588      1.55350602672843     -1.16115935669585
  C   -1.26879374622584     -1.00568812857309     -0.63480517770158
  H   -0.84352312902981     -0.96712877295061     -1.63893279939557
  H   -2.33439623203086     -0.77950509562218     -0.70199400295834
  H   -1.15147312931877     -2.01773370475988     -0.24319489216382
  C   1.49409456067894      0.57672554464549      1.48305235267634
  N   2.01741480602731      1.37023813538938      2.17199887127145
  N   1.61972196704256     -0.65202663238327     -0.60261401235920
  O   2.08544504209157      0.33054183892242     -1.17075548201026
  O   1.69611731702189     -1.81896146429714     -0.97524331226618
