17
Coordinates from ORCA-job run
  C   -0.34825428120746      0.31471429206721     -0.28460433337268
  C   0.81968882212580     -0.21789408640768      0.57343647312345
  F   0.20250871135567      1.17508378078462     -1.22913996392774
  H   0.42604006344357     -0.82207276653627      1.39353539583912
  C   -1.05238486147038     -0.80059082915039     -1.02970404087424
  H   -1.91056259537777     -0.38223802145763     -1.55808919659973
  H   -0.38677021893691     -1.25111275982361     -1.76674867559850
  H   -1.39985502440705     -1.57981904710754     -0.34896910771676
  C   -1.28355010786611      1.12513677276862      0.59160621025514
  H   -1.74959436548188      0.49840640950691      1.35517625481823
  H   -2.06867992844813      1.55257363767591     -0.03441930479853
  H   -0.74910451862179      1.94485364105322      1.07496484269388
  C   1.64779581344914      0.86653021043787      1.08561030692515
  N   2.27798639085774      1.74916212574983      1.53476178567628
  N   1.66855597551737     -1.15931152250793     -0.24390099294516
  O   2.50087517448587     -0.66222367430801     -0.99163467010596
  O   1.40430495058232     -2.35219816274512     -0.12088098339195
