17
Coordinates from ORCA-job run
  C   -0.60604326286618     -0.06646357024374      0.16066981526290
  C   0.86085129892135     -0.13060745770224      0.64143869330736
  F   -1.27005248470825     -1.03415045167963      0.91597461270779
  H   0.87838296944371      0.01991818939703      1.72300940012449
  C   -1.18870079349654      1.28547567537190      0.52331106706159
  H   -2.25786979157980      1.27463249306589      0.30405664863581
  H   -1.06023704834594      1.48724121183319      1.58908384201440
  H   -0.72250584411581      2.08714303245433     -0.05199370105739
  C   -0.78269652273734     -0.40994443487073     -1.30211574277395
  H   -0.46714348155716     -1.43252148735761     -1.50546805096968
  H   -1.84051007431574     -0.31710455692316     -1.55472006570703
  H   -0.20809339537143      0.26554151947309     -1.93830478854001
  C   1.69203784303304      0.85152713990535     -0.03889421515086
  N   2.32682750757607      1.67837138332589     -0.57951656981235
  N   1.42405389482983     -1.51383167009369      0.42392090213368
  O   1.37529050027792     -2.26901819449650      1.38756350378252
  O   1.84640868501226     -1.77520882145937     -0.69801535101927
