17
Coordinates from ORCA-job run
  C   -0.38855317599215      0.28275599658082     -0.26635891540819
  C   0.89002230248239     -0.15602927121629      0.47940258797891
  F   0.01882909504444      1.05362677865897     -1.35057101813682
  H   0.61639008341772     -0.68693090443340      1.39363047659247
  C   -1.15988242713690     -0.90410995807169     -0.80601570430162
  H   -1.40481841979132     -1.61514927106547     -0.01490128135204
  H   -0.58455690543517     -1.42053223344671     -1.57511399667098
  H   -2.08531407286917     -0.54436633333890     -1.25867745054874
  C   -1.22002135095707      1.16573292852417      0.64389183945153
  H   -0.64548761563337      2.03403094224125      0.97138732562616
  H   -2.08958675276085      1.52224869263019      0.08907574343737
  H   -1.56817046946333      0.61273701451709      1.51914021437924
  C   1.75191392258984      0.97906538037605      0.78441661152273
  N   2.42291226884075      1.89656930157623      1.07712042846959
  N   1.64980701825938     -1.15876104392346     -0.35190400341461
  O   2.36782876453664     -0.72361971490805     -1.24303571095102
  O   1.42868773486817     -2.33826830470080     -0.09048714667400
