17
Coordinates from ORCA-job run
  C   -0.61510391885683     -0.01499195370792      0.29935022005379
  C   0.85313865906379     -0.38868759726378      0.62168791152889
  F   -1.23894982699007     -0.10565681139046      1.54907294274262
  H   0.85440434804744     -1.35879649413260      1.12200333931864
  C   -0.77892346157040      1.40303447704399     -0.19747883293167
  H   -0.25241674486107      1.55557633033815     -1.14005807750561
  H   -1.84163357909182      1.60079352323321     -0.34916009315743
  H   -0.39592673172903      2.11291130582466      0.53686153798138
  C   -1.25116698886979     -1.04565105572748     -0.60959403904718
  H   -2.32566783142212     -0.85701252065114     -0.64150269437141
  H   -1.08596922972812     -2.05674182458492     -0.23341522516438
  H   -0.85888568234086     -0.98162673855294     -1.62562385050918
  C   1.51126937279738      0.61069168001330      1.45252664474893
  N   2.02246138481939      1.41267431798026      2.14079489528910
  N   1.62623578726874     -0.57937578769322     -0.65638812815803
  O   1.72221910921607     -1.73535057466118     -1.05817707605128
  O   2.05391533424730      0.42720972393208     -1.21189947476720
