17
Coordinates from ORCA-job run
  C   -0.58123730263617     -0.05801964523901      0.23813911880193
  C   0.93427596574182     -0.08846576055426      0.53593607047917
  F   -1.13666876191349     -0.97924847334960      1.12722430421055
  H   1.08444778293786      0.12896783034456      1.59563042812738
  C   -1.12809647859665      1.31216853724787      0.58782873194313
  H   -0.74409662110746      2.07833880847958     -0.08781462934916
  H   -0.87139686994180      1.57876898590020      1.61548578999512
  H   -2.21596530853389      1.28569031365989      0.50334818142171
  C   -0.93426098088581     -0.49121118790963     -1.16779255457732
  H   -0.63381415854148     -1.52280802084974     -1.34701465080669
  H   -0.45176653839021      0.14676501478618     -1.91036470222390
  H   -2.01639498955416     -0.41898770367232     -1.29114412909134
  C   1.66518021803966      0.85134582491807     -0.30125323200527
  N   2.22112376386890      1.64421762069229     -0.96548465480048
  N   1.48100839546852     -1.48122048751471      0.33583396819935
  O   1.76452786709986     -1.81074722055518     -0.81147174789352
  O   1.56013401694448     -2.17455443638421      1.34291370756932
