17
Coordinates from ORCA-job run
  C   -0.60047911696933     -0.07425097113729      0.18317341465697
  C   0.88558165393638     -0.14620767084838      0.59828329678055
  F   -1.22903552240372     -1.06853863715560      0.93393084064378
  H   0.95029443853021     -0.02763873154012      1.68204132264535
  C   -1.17108545836685      1.26295893035450      0.61366896228074
  H   -0.73206132900807      2.08463709579229      0.04515435728839
  H   -0.99795426439887      1.43106825384626      1.67895149912603
  H   -2.24859556343415      1.25485292527592      0.43980152448660
  C   -0.83826931776938     -0.37091328212322     -1.28130549014469
  H   -0.52747747814291     -1.38461337851321     -1.53113736009215
  H   -0.29413488552825      0.32786701541342     -1.91920425524549
  H   -1.90633811965449     -0.27550732613593     -1.48523301575475
  C   1.68492992914068      0.85978183795281     -0.08570707156382
  N   2.32155426310908      1.69489326427064     -0.61126984275169
  N   1.44389373106423     -1.51976255476207      0.31457950418151
  O   1.43955318057057     -2.30349756764651      1.25634102193003
  O   1.81762385932487     -1.74512920304352     -0.83206870846736
