17
Coordinates from ORCA-job run
  C   -0.44760707019469     -0.20282103759666     -0.39518456382056
  C   0.84423306826254     -0.56417322277280      0.37071986900496
  F   -0.38389566770152     -0.95025148315093     -1.57215440720471
  H   0.87938087916512     -1.64792595877797      0.50114623829686
  C   -1.64622564989861     -0.68645752324861      0.39743126533240
  H   -1.76381896895415     -0.12289564109130      1.32452841639915
  H   -1.54957677266631     -1.74858801575712      0.63302550176931
  H   -2.54337826255025     -0.55129662354106     -0.20932879823374
  C   -0.54304573575848      1.25920567715399     -0.77262695568072
  H   0.26908899059095      1.54543701749524     -1.43985060454133
  H   -0.50999465447351      1.89823238970202      0.11159401192203
  H   -1.49030767274789      1.42183260091917     -1.29004923847096
  C   0.91790935995124      0.12111601322072      1.65269000601583
  N   0.93022736325473      0.66038099742360      2.69574912181572
  N   2.05905318307950     -0.22527739085468     -0.45878844593142
  O   2.44558704199590      0.93891466014820     -0.43402873182110
  O   2.53237056864542     -1.14543245927181     -1.11487268485175
