17
Coordinates from ORCA-job run
  C   -0.60059571841982     -0.07483497802868      0.17699844203753
  C   0.88025626937667     -0.13937223049538      0.61185273083306
  F   -1.23524599973701     -1.06543246132640      0.92769910707465
  H   0.93036320163876     -0.01418471188084      1.69564068067193
  C   -1.18111167467321      1.26360422951484      0.58985381963292
  H   -2.25612650023438      1.25073441066677      0.40147854089960
  H   -0.73697066820684      2.08253183488092      0.02145597811802
  H   -1.02298058720433      1.43978873547249      1.65616494994066
  C   -0.81871498175112     -0.38407512800957     -1.28788911569222
  H   -0.26934873252572      0.31183419056127     -1.92438775899450
  H   -0.50103968078354     -1.39856418412907     -1.52560041885518
  H   -1.88449945069222     -0.29464358392128     -1.50594721197975
  C   1.68430160149953      0.86434782642419     -0.06960981142297
  N   2.29798636027977      1.70806202216370     -0.60842175961205
  N   1.44652453659158     -1.51312890876093      0.34521216334335
  O   1.43169972379799     -2.29082299216321      1.29193554763985
  O   1.83750230104390     -1.74484407096883     -0.79443588363491
