14

C	-0.121372	-0.024893	-1.5229
C	0.0	0.0	0.0
F	-0.032329	1.338132	-1.969231
H	1.102391	0.0	0.0
H	-0.379239	-0.94575	0.395587
N	0.945639	-0.809716	-1.993244
H	1.078912	-0.707231	-2.989237
H	1.801264	-0.577818	-1.440653
C	-1.424722	-0.473488	-2.069633
N	-2.466517	-0.832935	-2.477205
N	-0.718446	1.125449	0.597556
H	-0.254336	1.963796	0.268239
H	-0.541135	1.08704	1.595376
F	2.765425	0.0	0.0
