14

C	-0.138701	0.191752	-1.505623
C	0.0	0.0	0.0
F	-1.409304	0.664151	-1.867211
H	1.092556	0.0	0.0
H	-0.459924	-0.929986	0.357723
N	0.854034	1.118442	-2.000608
H	1.731333	0.793007	-1.551985
H	0.636462	1.979953	-1.501729
C	0.015268	-1.111784	-2.197547
N	0.090289	-2.15064	-2.73836
N	-0.430877	1.224185	0.669615
H	-1.385778	1.153674	0.99457
H	0.176618	1.376639	1.463666
F	2.700633	0.0	0.0
