14

C	-0.137288	0.303109	-1.50944
C	0.0	0.0	0.0
F	-1.299607	1.078814	-1.784975
H	1.103655	0.0	0.0
H	-0.463298	-0.952172	0.264784
N	1.01786	1.022457	-1.904368
H	1.842462	0.712756	-1.337351
H	1.191494	0.975381	-2.89813
C	-0.37674	-0.935045	-2.297969
N	-0.562729	-1.895544	-2.949405
N	-0.468718	1.087425	0.850307
H	0.262613	1.786185	0.862006
H	-1.287752	1.514206	0.434213
F	2.744365	0.0	0.0
