14

C	-0.570218	0.025318	-1.406156
C	0.0	0.0	0.0
F	0.105628	-0.930715	-2.196521
H	1.096459	0.0	0.0
H	-0.387859	0.88066	0.52338
N	-1.96972	-0.253418	-1.394062
H	-2.279489	-0.480614	-2.331388
H	-2.05963	-1.069196	-0.790716
C	-0.343999	1.32745	-2.074387
N	-0.196199	2.352526	-2.626836
N	-0.468919	-1.248371	0.647712
H	0.366399	-1.813816	0.761255
H	-0.802685	-1.035511	1.579798
F	2.667656	0.0	0.0
