14

C	-0.576501	0.070454	-1.392019
C	0.0	0.0	0.0
F	-0.033527	-0.986276	-2.158115
H	1.091776	0.0	0.0
H	-0.347114	-0.959688	0.424995
N	-2.006994	-0.025279	-1.391747
H	-2.347508	-0.071496	-2.346154
H	-2.253699	-0.888183	-0.921952
C	-0.206504	1.321468	-2.086773
N	0.044503	2.317851	-2.651324
N	-0.423475	1.178238	0.752862
H	0.351228	1.444461	1.346425
H	-1.240158	1.005094	1.322628
F	2.665283	0.0	0.0
