14

C	0.0	0.0	0.0
C	-0.428294	-0.082136	-1.52662
Br	1.957015	0.0	0.0
H	0.501418	-0.196465	-2.090011
C	-0.405307	1.243783	0.649337
N	-0.540359	2.260802	1.224128
C	-0.389037	-1.168914	0.79136
N	-0.537036	-2.135738	1.444468
N	-1.026811	1.162902	-1.941773
H	-1.956785	1.186921	-1.516815
H	-1.131721	1.152005	-2.950244
C	-1.182529	-1.318797	-1.826409
N	-1.60413	-2.305631	-2.310813
Cl	-3.073378	0.0	0.0
