14

C	0.0	0.0	0.0
C	-0.526095	-0.080294	-1.474175
Br	1.957334	0.0	0.0
H	-1.601836	0.13994	-1.350224
C	-0.387337	1.249625	0.654262
N	-0.593998	2.270749	1.199045
C	-0.422083	-1.172698	0.76229
N	-0.592409	-2.166108	1.3681
N	-0.402212	-1.375851	-2.090583
H	-1.121212	-1.977167	-1.705478
H	0.508685	-1.785869	-1.925645
C	0.099996	0.964581	-2.285973
N	0.569115	1.811397	-2.952139
Cl	-3.262225	0.0	0.0
