16

C	0.0	0.0	0.0
C	-0.558291	-0.238091	-1.427377
Br	1.961985	0.0	0.0
H	-1.648929	-0.333964	-1.260237
C	-0.375814	1.34693	0.432219
N	-0.603493	2.448901	0.772211
C	-0.475236	-1.065415	0.979143
H	-0.117061	-2.044527	0.653846
H	-1.569891	-1.043321	0.986016
H	-0.091095	-0.859996	1.979844
C	-0.052888	-1.51367	-1.947821
N	0.350313	-2.534492	-2.36652
N	-0.343466	0.819836	-2.391477
H	-0.979041	1.579615	-2.178513
H	0.610367	1.159937	-2.343016
Br	-3.76545	0.0	0.0
