16

C	0.0	0.0	0.0
C	-0.385273	0.124352	-1.523795
Br	1.962646	0.0	0.0
H	0.152567	-0.700011	-2.009482
C	-0.404741	1.193075	0.739416
N	-0.678427	2.162694	1.345902
C	-0.584678	-1.257343	0.614483
H	-1.675538	-1.150034	0.634284
H	-0.220126	-1.392633	1.633385
H	-0.303962	-2.127695	0.015377
C	0.168029	1.378781	-2.069577
N	0.573101	2.385703	-2.517898
N	-1.769132	0.032315	-1.875208
H	-2.374658	0.66127	-1.350147
H	-2.144836	-0.889502	-1.689945
Br	-4.414584	0.0	0.0
