16

C	0.0	0.0	0.0
C	-0.419694	0.362101	-1.54356
Br	1.953856	0.0	0.0
H	0.266703	-0.330938	-2.056189
C	-0.373681	1.020778	0.963699
N	-0.399829	1.782119	1.859481
C	-0.248121	-1.460218	0.465676
H	0.139147	-2.118533	-0.313005
H	0.323505	-1.63354	1.38488
H	-1.300867	-1.673154	0.625428
C	0.092185	1.7329	-1.772329
N	0.408197	2.851733	-1.964969
N	-1.760762	0.443296	-2.470099
H	-2.258063	-0.427514	-2.358148
H	-1.009987	0.230564	-3.274042
Br	-2.925121	0.0	0.0
