17
Coordinates from ORCA-job run
  C   -0.47559461967773     -0.06255554021100      0.53201600112278
  C   0.61797229144806     -0.15481615645273     -0.54987085992231
  Cl  0.22685026147896     -0.16587482585687      2.14390789140570
  H   0.09139123037701     -0.09409766368672     -1.50851682106476
  N   -1.11785552969395      1.31844036267744      0.33361861540065
  O   -1.61813359726545      1.47209288044907     -0.77797393778113
  O   -1.08836560051976      2.14279477905083      1.23358241162102
  C   -1.56754300814414     -1.10218121009667      0.37353377062903
  H   -1.14426264550112     -2.09684175224319      0.51603769732093
  H   -2.34351762523003     -0.94291558246675      1.12423817790118
  H   -2.00740665122965     -1.02918296379510     -0.62161671594927
  C   1.25368018382310     -1.46938061113286     -0.47318718257144
  N   1.77540625067345     -2.52022415538392     -0.42262134852872
  C   1.65568735296152      0.96799696848175     -0.48093849912549
  H   2.38205379324504      0.84197327360870     -1.28513053340240
  H   2.18514305966781      0.95549450063452      0.47138120993530
  H   1.17449485358686      1.93927769642349     -0.60945987699108
