17
Coordinates from ORCA-job run
  C   -0.52055811790952     -0.14869159438275      0.64273607068447
  C   0.90910363669043     -0.31429899282746      0.10777248098156
  Cl  -0.56295654924016     -0.71432229566583      2.32944066001395
  H   1.10896722797757     -1.38710003739648      0.22163718483942
  N   -0.94395209245132      1.32174231378292      0.67528991587331
  O   -2.11863945074797      1.53572699442358      0.94553029893859
  O   -0.09242428244134      2.16848693251193      0.42343755079096
  C   -1.55235524847631     -0.90182622370575     -0.17142056359468
  H   -1.65970286223806     -0.45282488865755     -1.16057771463461
  H   -1.24400119642929     -1.94341319156618     -0.27723036849743
  H   -2.51623627391611     -0.86241385060256      0.33170951278713
  C   1.90263887125903      0.36927149474962      0.94054056664624
  N   2.75778223788462      0.86978965276578      1.56991498800553
  C   1.08837527191596      0.05258108784600     -1.37045133113834
  H   0.45137518885298     -0.56563243944973     -2.00377982715493
  H   2.12464653001303     -0.13261779305073     -1.65806704355987
  H   0.86993710925645      1.10454283122518     -1.54548238098130
