17
Coordinates from ORCA-job run
  C   -0.51934405633412     -0.20080780203393      0.56504266737057
  C   0.93774684939838     -0.01113171552814      0.11013405955960
  Cl  -0.66823488200359     -1.76433534209008      1.40248288921786
  H   1.56255744929353     -0.12298039628249      1.00021972653031
  N   -0.78838939143477      0.86433092768584      1.64094310298504
  O   0.08931565523776      1.01569013351784      2.48218119716329
  O   -1.85299601750829      1.46783130386995      1.58580702887561
  C   -1.54544696466494     -0.09865252778965     -0.53420870197602
  H   -2.54787763551137     -0.19192118703992     -0.12156317205416
  H   -1.46343745474662      0.86650857345568     -1.03798126035828
  H   -1.38580548585378     -0.90217917041939     -1.25325479241832
  C   1.09246668153361      1.36335838819574     -0.37383919343721
  N   1.19901882619156      2.45427984021214     -0.79587717506467
  C   1.38058693902672     -1.00305290176942     -0.96861763085618
  H   1.22480697220150     -2.02808048738683     -0.63191982972206
  H   2.44443547041196     -0.86405504169115     -1.16712349439725
  H   0.84059704476246     -0.84380259490619     -1.90242542141814
