17
Coordinates from ORCA-job run
  C   -0.46231730011843      0.05938784650079      0.54382810482712
  C   0.61532345304421     -0.26738161860413     -0.50784024137532
  Cl  0.27211175610755      0.41508497414853      2.10478278829970
  H   0.06984337274878     -0.48475815350161     -1.43264325290378
  N   -1.17579242430000      1.31020613429530      0.00925099692556
  O   -1.70230594633961      1.14328933195330     -1.08822247797931
  O   -1.17207135890632      2.34292302562286      0.66022235989646
  C   -1.50436237595341     -1.03113217726764      0.69647457327531
  H   -1.03047172114312     -1.93327818043247      1.08457025044124
  H   -2.27520638735103     -0.71204177121003      1.40020093411493
  H   -1.96276852471182     -1.24365052044192     -0.26997788581227
  C   1.31678220546598     -1.48657530032366     -0.10796817648757
  N   1.89127177414074     -2.46300433370692      0.20099622975396
  C   1.59693901076145      0.87773726731017     -0.76762677321883
  H   1.06595984061531      1.75752819154997     -1.13573254745776
  H   2.14046661786872      1.14252966218724      0.13896700743372
  H   2.31659800807099      0.57413562192021     -1.52928188973319
