17
Coordinates from ORCA-job run
  C   -0.46827051394639     -0.17223688040773      0.70197614853856
  C   0.93094505644564     -0.29702266821383      0.05990415182899
  Cl  -0.38870309967738     -0.87940530346843      2.32394497189379
  H   1.24167733231727     -1.32238684448112      0.28992303539884
  N   -0.86514103882119      1.30365627708589      0.83489086827535
  O   -0.57864948163483      1.99698431322613     -0.13697595387299
  O   -1.48968821239499      1.66175982135632      1.82033157258287
  C   -1.57289545628344     -0.83447841979333     -0.09774778685009
  H   -1.32714344054749     -1.88395862823168     -0.26865670537596
  H   -1.69795189551090     -0.32723745371135     -1.05548109225636
  H   -2.50785372187123     -0.78072123345277      0.46202066330007
  C   1.87238155279431      0.58902854042871      0.74913310894315
  N   2.64063288452758      1.30462903934483      1.27478847817739
  C   1.02358450106670     -0.11426388263309     -1.45966750975066
  H   0.38005136260851     -0.83072370170548     -1.97237641872077
  H   0.75467728456783      0.89563612624722     -1.75797697994462
  H   2.05234688636000     -0.31125910159029     -1.76803055216754
