17
Coordinates from ORCA-job run
  C   -0.53281143032105     -0.17066980224501      0.56186058473775
  C   0.93509842140187     -0.00691269779480      0.13273551674779
  Cl  -0.70637782173120     -1.68968477588589      1.47356678906318
  H   1.53859077730200     -0.07251089941040      1.04195564713440
  N   -0.82498493778880      0.94748275538011      1.57622933353527
  O   0.03464738578044      1.14357353881791      2.42678055132621
  O   -1.88843865620737      1.54527446710372      1.46756874686237
  C   -1.53225165722557     -0.12228330403787     -0.56526173591346
  H   -1.35539503022411     -0.95900185384121     -1.24101569859055
  H   -2.54436055344558     -0.19664184759704     -0.17298523592997
  H   -1.43780358413350      0.81773966685238     -1.11237848841444
  C   1.10425930219829      1.34052375687808     -0.41817837581774
  N   1.22194477757337      2.40862873788227     -0.89250099096221
  C   1.40092799515701     -1.05435108366465     -0.88199747025391
  H   2.47010835962975     -0.92912499611765     -1.05989603046027
  H   1.23210930492779     -2.06017237400018     -0.49711536612304
  H   0.88573734710666     -0.94186928831979     -1.83636777694137
