17
Coordinates from ORCA-job run
  C   -0.52850409249481     -0.09582664036720      0.47292457995904
  C   0.67979218383778     -0.11859286878926     -0.48325911813412
  Cl  -0.00569366558534     -0.25554258863121      2.14744858953463
  H   0.26087378631175     -0.02919816722054     -1.49148029935980
  N   -1.18069471052363      1.27860172226754      0.26198473588875
  O   -1.55328006538865      1.47319868361849     -0.89233772557394
  O   -1.28003811966828      2.05918020937776      1.19473626889778
  C   -1.57018094994531     -1.14938720423738      0.15130711527197
  H   -2.42652297480195     -1.04060026114039      0.81912580214392
  H   -1.90110827151020     -1.03954145217434     -0.88199729060177
  H   -1.13982147238028     -2.14080325677335      0.29580985779474
  C   1.33733716567396     -1.42111506414999     -0.38824037942069
  N   1.87280235108640     -2.46415847548021     -0.32467829576822
  C   1.67242466114567      1.02382283847037     -0.25514442241042
  H   1.18406546573783      1.98765931630709     -0.41114561312729
  H   2.08441687740874      0.99092474969520      0.75336742252402
  H   2.49313183109632      0.94137845922743     -0.96942122761865
