17
Coordinates from ORCA-job run
  C   -0.53164734050519     -0.12550303943570      0.63843296075301
  C   0.90762849872598     -0.30683306719118      0.13569620562101
  Cl  -0.60278106056444     -0.62660841064639      2.34460179381675
  H   1.10845147383921     -1.37375789355327      0.29442193077542
  N   -0.95933966301349      1.34424722551097      0.60770650801169
  O   -0.10594765944047      2.18338454742617      0.33732596358897
  O   -2.13862716271178      1.56447087439336      0.85080539193242
  C   -1.54719708098027     -0.91200134691957     -0.16450236634504
  H   -1.63767451928221     -0.50136688500052     -1.17183093915577
  H   -2.51986521686063     -0.85624967067234      0.31977829562382
  H   -1.23450729615416     -1.95593936509544     -0.22471059977276
  C   1.88464277627201      0.41138150839779      0.95894119326750
  N   2.72709261271227      0.93689764206930      1.58501225020031
  C   1.11205755475586      0.00318110735618     -1.35222430400901
  H   0.48767938597438     -0.64089383202939     -1.97211862163566
  H   2.15349273735454     -0.19030167887219     -1.61438229461245
  H   0.89454195987840      1.04689228426227     -1.57195336806014
