16
Coordinates from ORCA-job run
  C   -0.54313093866414      0.47674915993555     -0.12944737926986
  C   0.97660781042051      0.36169832937454      0.02942647801802
  Br  -0.85762357489696      2.16844042574960     -1.04570435286889
  H   1.36193390559079      1.24264702069604      0.54657945638372
  C   -1.21552544452825     -0.64733449058516     -0.87836851998065
  H   -0.76938012919534     -0.73819631901767     -1.86984233791106
  H   -1.09802188486908     -1.58175213696942     -0.33045193307842
  H   -2.27696916694242     -0.43458810001492     -0.98698621865727
  N   -1.14117580148316      0.65937674745281      1.26616385982229
  O   -2.28378979430991      0.25987630732033      1.43131166474409
  O   -0.43696718193722      1.22992002644759      2.09034997304129
  C   1.63818783360758      0.18987381113565     -1.25673185137665
  N   2.15361632226762      0.03925228407026     -2.30154863745346
  N   1.39092669834338     -0.80675186375373      0.92549757546157
  O   2.59681278948633     -0.93956610988475      1.06783398297849
  O   0.50549855711029     -1.47764509195671      1.43991824014676
