16
Coordinates from ORCA-job run
  C   -0.50801516188813      0.42051650705589     -0.21090904541483
  C   0.90523105845453     -0.16715844282832     -0.34020928068270
  Br  -0.49213743667728      2.16071372511154     -1.04673657253394
  H   1.16182814453898     -0.17717626143954     -1.40210835813755
  C   -1.53310288155612     -0.48025367162292     -0.87679939955815
  H   -1.29781029683928     -0.59271049474804     -1.93624330420445
  H   -1.53597691348527     -1.45833205681701     -0.39323812054957
  H   -2.52409704031566     -0.03224766178202     -0.78742985132942
  N   -0.90448043309772      0.54400829367983      1.27078323909234
  O   -1.21137074135876      1.63104040337925      1.72581215894909
  O   -0.91160854460864     -0.53315415262615      1.85506916838473
  C   1.05655089187366     -1.51358441245200      0.20156624898770
  N   1.22372359498146     -2.62104025873921      0.55646130071894
  N   1.94200991169513      0.73011700644730      0.30634350099893
  O   2.88899437263376      1.05588342082484     -0.39743001094571
  O   1.73926147564936      1.03337805655661      1.47506832622456
