16
Coordinates from ORCA-job run
  C   -0.47868910122895      0.52783648024661     -0.17860595349364
  C   1.01685523888119      0.21351330151017     -0.06565630655348
  Br  -0.60908347380564      2.09745754406802     -1.32729606873718
  H   1.55276739114150      1.09359150580823      0.29540480907497
  C   -1.34709012504607     -0.58019966380055     -0.72097039143377
  H   -1.32836204298545     -1.43330577558839     -0.04350125636986
  H   -0.98023387594134     -0.87734776632224     -1.70457507891881
  H   -2.37291822061057     -0.23074459822011     -0.81758222843401
  N   -0.95589630184435      0.99557139697217      1.19718690446619
  O   -0.13405558247992      1.59011126046951      1.88431891789721
  O   -2.12322195838738      0.77405789930962      1.48032205322152
  C   1.56755686980392     -0.23833304064889     -1.33600424106186
  N   1.99873298522468     -0.61122834519212     -2.36312462673784
  N   1.31729343406096     -0.86094597366094      0.98077678558815
  O   0.37999416543690     -1.30758605215038      1.62953989786846
  O   2.49835059778045     -1.15244817280072      1.09076678362396
