16
Coordinates from ORCA-job run
  C   -0.46786223259176      0.33195147478134      0.20941665666951
  C   0.85436324757208     -0.44696320635983      0.05903749200787
  Br  -0.12874223060863      2.08790498180795      0.91705539992570
  H   0.62917859045753     -1.42715958456101     -0.36411681158020
  C   -1.29861522339689      0.40843460196417     -1.05899040655381
  H   -0.80044686548927      1.01772387232540     -1.81020375451269
  H   -1.45416620347334     -0.59654674304750     -1.45774468791117
  H   -2.26228684083025      0.86083824847575     -0.81842379995764
  N   -1.30910509371653     -0.48481620594001      1.21330477397832
  O   -2.01826303526099      0.10881602867061      2.00633510890270
  O   -1.24457075740566     -1.70045583855029      1.04921843983439
  C   1.55343241486387     -0.59671871287667      1.32678193765834
  N   2.09156175596832     -0.75422703797086      2.35882448106658
  N   1.74581251282450      0.23653821455470     -0.95693322011753
  O   1.43931224980283      0.02986477140057     -2.12762613522243
  O   2.67039771128417      0.92381513532571     -0.54593547418794
