16
Coordinates from ORCA-job run
  C   -0.49327307395813      0.43326403613461     -0.22021058214041
  C   0.91162715502875     -0.18037136658526     -0.31524072959216
  Br  -0.41940331432071      2.18307360384608     -1.03249539163955
  H   1.19956936850095     -0.18302540009585     -1.36911284708468
  C   -1.51518096258382     -0.43894446102792     -0.92784116938632
  H   -1.55076635653290     -1.42303659739883     -0.45799444718169
  H   -1.25102293386576     -0.54175974062918     -1.98143368042976
  H   -2.49972122386294      0.02689550664895     -0.86111596484085
  N   -0.93103687969681      0.54584431270579      1.25052548579770
  O   -0.97993762537479     -0.53871118430718      1.81898417233843
  O   -1.23167724617875      1.63268433614035      1.71026345094179
  C   1.02084082505277     -1.53588486213218      0.21396851970722
  N   1.16003449654364     -2.65071235813071      0.55770078745902
  N   1.94562925579768      0.68881007520188      0.37272207423739
  O   2.91860215584287      1.00546993230708     -0.29905356983273
  O   1.71671635960796      0.97740416732237      1.54033389164659
