15

C	-0.485424	-0.069967	-1.453164
C	0.0	0.0	0.0
Cl	-0.174218	1.494967	-2.276466
H	1.095036	0.0	0.0
H	-1.572242	-0.198846	-1.46564
C	0.215863	-1.189318	-2.194373
H	-0.028025	-2.13675	-1.712468
H	1.295502	-1.036029	-2.14388
H	-0.103537	-1.217954	-3.238553
N	-0.421379	-1.2257	0.687107
H	-1.309128	-1.084821	1.15488
H	0.276134	-1.451822	1.387067
C	-0.496623	1.200015	0.68824
N	-0.945967	2.087663	1.314038
Br	3.517778	0.0	0.0
