15

C	-0.505482	0.018744	-1.447001
C	0.0	0.0	0.0
Cl	0.052271	-1.478162	-2.27183
H	1.100779	0.0	0.0
H	0.002555	0.835123	-1.96396
C	-2.013132	0.123929	-1.570551
H	-2.352821	1.073574	-1.149678
H	-2.316121	0.077938	-2.618247
H	-2.483993	-0.690786	-1.021545
N	-0.555915	-1.149479	0.736452
H	-0.25302	-1.056435	1.700959
H	-0.066619	-1.965694	0.37977
C	-0.450451	1.237356	0.645778
N	-0.827824	2.226594	1.154665
Br	3.514932	0.0	0.0
