15

C	-0.43989	-0.096049	-1.47094
C	0.0	0.0	0.0
Cl	-0.130761	1.45281	-2.323742
H	1.096111	0.0	0.0
H	-1.525872	-0.239398	-1.515524
C	0.302905	-1.2103	-2.18469
H	0.029415	-1.238704	-3.241152
H	1.379217	-1.046041	-2.086478
H	0.052318	-2.17629	-1.735844
N	-0.395911	-1.177008	0.774277
H	-1.24977	-1.589398	0.421056
H	0.351022	-1.85647	0.734102
C	-0.547455	1.198953	0.643911
N	-1.03938	2.132031	1.159704
Br	3.503104	0.0	0.0
