15

C	-0.309018	0.03699	-1.497436
C	0.0	0.0	0.0
Cl	-2.09215	-0.100217	-1.794738
H	1.097913	0.0	0.0
H	0.121807	-0.870406	-1.927086
C	0.247628	1.269269	-2.176175
H	0.098408	1.218845	-3.256465
H	1.318696	1.317384	-1.958244
H	-0.236099	2.170673	-1.79564
N	-0.435348	-1.188793	0.716144
H	0.26703	-1.906387	0.591965
H	-1.322863	-1.517215	0.354863
C	-0.506341	1.207765	0.660648
N	-0.914256	2.186176	1.166313
Br	3.465922	0.0	0.0
