15

C	-0.499964	-0.107295	-1.445423
C	0.0	0.0	0.0
Cl	-0.32357	1.464132	-2.294942
H	1.095036	0.0	0.0
H	-1.573377	-0.318106	-1.433662
C	0.26964	-1.179676	-2.189451
H	0.125132	-2.131985	-1.675795
H	1.334281	-0.935698	-2.180587
H	-0.083037	-1.264024	-3.219932
N	-0.400377	-1.226043	0.705979
H	0.35164	-1.486365	1.333154
H	-1.236068	-1.069633	1.254858
C	-0.505109	1.198319	0.6806
N	-0.966065	2.089044	1.293499
Br	3.497975	0.0	0.0
