15

C	-0.528449	-0.083701	-1.436065
C	0.0	0.0	0.0
Cl	-0.329117	1.48993	-2.278707
H	1.100243	0.0	0.0
H	-1.605263	-0.269196	-1.401218
C	0.1976	-1.170035	-2.199337
H	1.267405	-0.955777	-2.209912
H	0.033874	-2.122454	-1.692096
H	-0.175966	-1.238648	-3.223297
N	-0.393375	-1.239559	0.698934
H	0.433626	-1.594869	1.165474
H	-1.08643	-1.048755	1.411324
C	-0.490095	1.187132	0.705462
N	-0.917613	2.093795	1.318924
Br	3.481626	0.0	0.0
