15

C	-0.355932	-0.020948	-1.480292
C	0.0	0.0	0.0
Cl	-2.137024	-0.006054	-1.742057
H	1.103728	0.0	0.0
H	-0.00993	-0.978984	-1.877469
C	0.301187	1.122234	-2.226377
H	1.377599	1.087382	-2.036363
H	-0.091468	2.080112	-1.880094
H	0.114614	1.037862	-3.298487
N	-0.532824	-1.175351	0.70706
H	-0.252836	-1.087183	1.679423
H	-0.00875	-1.972284	0.352615
C	-0.486619	1.222128	0.638442
N	-0.870334	2.20721	1.149701
Br	3.508002	0.0	0.0
