15

C	-0.442129	0.062469	-1.479781
C	0.0	0.0	0.0
Cl	0.054004	-1.456476	-2.293226
H	1.095382	0.0	0.0
H	0.137981	0.853243	-1.959653
C	-1.92911	0.274966	-1.69421
H	-2.239404	1.22532	-1.255166
H	-2.162859	0.287788	-2.760336
H	-2.510521	-0.52981	-1.238571
N	-0.446642	-1.141827	0.779078
H	-1.394227	-1.41027	0.536809
H	0.173798	-1.91703	0.578543
C	-0.45682	1.242212	0.639468
N	-0.866321	2.244447	1.095068
Br	3.488033	0.0	0.0
