15

C	-0.49804	-0.116015	-1.445343
C	0.0	0.0	0.0
Cl	-0.323712	1.451438	-2.303674
H	1.095099	0.0	0.0
H	-1.570386	-0.328962	-1.434474
C	0.275424	-1.189447	-2.181753
H	-0.076351	-1.282354	-3.212351
H	1.338493	-0.940789	-2.172796
H	0.135562	-2.139144	-1.662933
N	-0.400001	-1.222036	0.713634
H	-1.238222	-1.063947	1.258307
H	0.349751	-1.47404	1.346311
C	-0.505419	1.202661	0.673189
N	-0.968099	2.095215	1.282143
Br	3.495041	0.0	0.0
