15

C	-0.353515	-0.028243	-1.481877
C	0.0	0.0	0.0
Cl	-2.132841	-0.029005	-1.751684
H	1.103786	0.0	0.0
H	0.002156	-0.985385	-1.873643
C	0.29685	1.117035	-2.2315
H	0.120138	1.021992	-3.304597
H	1.372248	1.09599	-2.032203
H	-0.110291	2.073493	-1.89583
N	-0.533348	-1.172721	0.710711
H	0.011422	-1.967401	0.383743
H	-0.284193	-1.068425	1.689912
C	-0.488412	1.224209	0.632881
N	-0.873748	2.208812	1.143459
Br	3.500432	0.0	0.0
