15

C	-0.368721	-0.043637	-1.473456
C	0.0	0.0	0.0
Cl	-2.165016	-0.099674	-1.677881
H	1.096714	0.0	0.0
H	-0.006823	-1.003216	-1.843343
C	0.220006	1.113807	-2.249915
H	-0.197947	2.062497	-1.908455
H	0.017152	1.00637	-3.31669
H	1.300615	1.120827	-2.080793
N	-0.440182	-1.200344	0.695997
H	0.141582	-1.331536	1.515506
H	-1.404118	-1.104908	0.99023
C	-0.465379	1.248795	0.626726
N	-0.838689	2.22286	1.167905
Br	3.475863	0.0	0.0
