15

C	-0.309049	0.019957	-1.49762
C	0.0	0.0	0.0
Cl	-2.092967	-0.117708	-1.792368
H	1.097939	0.0	0.0
H	0.119718	-0.893713	-1.916109
C	0.248738	1.242225	-2.192167
H	-0.233702	2.149406	-1.822936
H	0.099209	1.178291	-3.271682
H	1.320075	1.291277	-1.974854
N	-0.436592	-1.178814	0.730342
H	-1.324027	-1.509795	0.371597
H	0.264944	-1.90051	0.616541
C	-0.504769	1.216624	0.645896
N	-0.911246	2.201366	1.140166
Br	3.466171	0.0	0.0
