14

C	-0.312792	0.024073	-1.478905
C	0.0	0.0	0.0
F	-0.279916	-1.26784	-1.989175
H	1.09447	0.0	0.0
H	-0.33028	0.93366	0.455536
N	-1.753901	0.449572	-1.787012
O	-2.507867	0.702919	-0.85365
O	-2.04766	0.505929	-2.977152
N	0.528827	0.919921	-2.136564
H	1.492114	0.79751	-1.826661
H	0.439622	0.839412	-3.140116
C	-0.57522	-1.135497	0.699177
N	-1.047291	-2.036967	1.283155
Cl	3.29867	0.0	0.0
