14

C	-0.304168	-0.104646	-1.478416
C	0.0	0.0	0.0
F	-0.247543	-1.430736	-1.874305
H	1.091869	0.0	0.0
H	-0.333002	0.968591	0.370256
N	-1.745739	0.290406	-1.831914
O	-2.445698	0.796869	-0.959715
O	-2.077604	0.09621	-2.99777
N	0.532958	0.745111	-2.209361
H	0.479491	0.538542	-3.197886
H	1.493631	0.676296	-1.865899
C	-0.587114	-1.071235	0.784528
N	-1.077259	-1.919722	1.430579
Cl	3.296014	0.0	0.0
