14

C	-0.403241	-0.176147	-1.463138
C	0.0	0.0	0.0
F	-1.650849	-0.719224	-1.548246
H	1.091819	0.0	0.0
H	-0.30635	-0.918692	0.511483
N	-0.475485	1.197726	-2.128752
O	-1.58391	1.698774	-2.281683
O	0.604978	1.694578	-2.424414
N	0.495522	-0.96235	-2.23849
H	0.483303	-1.904684	-1.862655
H	1.438597	-0.600579	-2.09548
C	-0.595492	1.141483	0.67418
N	-1.088774	2.053337	1.22548
Cl	3.291745	0.0	0.0
