14

C	-0.519341	0.038357	-1.418077
C	0.0	0.0	0.0
F	0.031053	1.14598	-2.0313
H	1.091008	0.0	0.0
H	-0.29565	0.953311	0.454048
N	-0.032581	-1.142008	-2.252711
O	0.532346	-2.065828	-1.687863
O	-0.300267	-1.064967	-3.448727
N	-1.926078	0.002718	-1.525569
H	-2.349002	0.69916	-0.926521
H	-2.200036	0.147482	-2.489676
C	-0.560142	-1.088465	0.788234
N	-1.007857	-1.942296	1.45715
Cl	3.308813	0.0	0.0
