14

C	-0.389013	0.090219	-1.455701
C	0.0	0.0	0.0
F	-0.545877	-1.188442	-1.997017
H	1.092953	0.0	0.0
H	-0.300023	0.928265	0.490082
N	-1.793654	0.676191	-1.668492
O	-2.076554	0.971736	-2.826355
O	-2.538246	0.786494	-0.700228
N	0.502201	0.919496	-2.125233
H	0.307541	1.003183	-3.113679
H	1.472955	0.714555	-1.903763
C	-0.567492	-1.125728	0.721793
N	-1.008341	-2.013939	1.349438
Cl	3.299785	0.0	0.0
