14

C	-0.328369	-0.127187	-1.472389
C	0.0	0.0	0.0
F	-1.653456	-0.43367	-1.713008
H	1.093904	0.0	0.0
H	-0.381618	0.933959	0.40768
N	-0.260374	1.300436	-2.132954
O	-0.648285	2.26296	-1.480093
O	0.102832	1.334891	-3.305677
N	0.504658	-1.043686	-2.098463
H	0.473823	-0.951377	-3.104795
H	1.459294	-0.965695	-1.750701
C	-0.519149	-1.137234	0.744012
N	-0.937431	-2.046644	1.356482
Cl	3.2832	0.0	0.0
