14
Coordinates from ORCA-job run
  C   -0.38326307812011     -0.15345714928725     -0.29785669371638
  C   1.11331215353844     -0.07911264897951     -0.62003590210599
  Br  -1.27535222830405     -0.18795855999135     -2.13928830123112
  H   1.42146937918202     -0.97521556710630     -1.16673228616311
  H   1.31032599180303      0.77715158025253     -1.26844208667822
  C   -0.89755223633960      1.08864347048944      0.40197086861626
  H   -1.97867455837568      1.02685733458198      0.54089591125213
  H   -0.41811151148295      1.16593426059164      1.38116409944567
  H   -0.68117141575864      1.98285324399007     -0.18265677639200
  N   -0.65847992909297     -1.30984779847848      0.45694239152030
  H   -0.37356110089738     -2.16257936799814     -0.00775613356388
  H   -1.63333621355135     -1.37683678166865      0.71962439127549
  C   1.90724634124270      0.04239403701979      0.60307954485124
  N   2.54614840615652      0.16117394658424      1.58009097288962
