14
Coordinates from ORCA-job run
  C   -0.29496180691131      0.01032621567467     -0.27089387982417
  C   1.16859001892664      0.26383500648649      0.10487135618241
  Br  -0.52504744830709      0.45231675420194     -2.17380877469553
  H   1.41876987858979      1.31338390970465     -0.06843695123163
  H   1.28238218569857      0.07550658878997      1.18024366217001
  C   -1.20896789935758      0.93466877125273      0.52629811579520
  H   -1.10205276808614      0.70830949529557      1.59301671319882
  H   -2.24991639447303      0.77143785835005      0.24163146085585
  H   -0.96818077040451      1.98703566389751      0.36227121406345
  N   -0.56895551963612     -1.40079937194338     -0.13165672150964
  H   -1.52056531947977     -1.60931675224620     -0.41075791807109
  H   -0.44887617850359     -1.67736131115824      0.83816172103888
  C   2.11117658949482     -0.58495094801520     -0.61881802904020
  N   2.90660543244933     -1.24439188029055     -1.17412196893237
