14
Coordinates from ORCA-job run
  C   -0.37077282044040      0.06944512475598     -0.24948100002154
  C   1.12856052342211      0.26882015161333      0.06473554956015
  Br  -0.62054115339843      0.58665188856533     -2.13620754947846
  H   1.44367753409052      1.28790245140466     -0.17347819894123
  H   1.26983686762106      0.11526599252538      1.14164347579427
  C   -1.20958178053560      0.99101727000125      0.61705416544429
  H   -0.91017879456473      2.03233586742914      0.49222781605824
  H   -1.08382009458228      0.71445744717136      1.67016166548654
  H   -2.26073089084840      0.88471560140659      0.35086541676918
  N   -0.84607933723648     -1.28099947234586     -0.11577935922301
  H   -0.83539374642182     -1.55983566253563      0.85933780809768
  H   -0.28526391529994     -1.93013621698403     -0.65615257792543
  C   1.96881795054167     -0.68686314532484     -0.65006703017229
  N   2.61046965765273     -1.49177729768266     -1.21386018144837
