14
Coordinates from ORCA-job run
  C   -0.41583476296604     -0.15636816214693     -0.28749139964259
  C   1.07475559303390     -0.49544380481534     -0.07555467315927
  Br  -0.64721319642581      0.19031341554845     -2.21404837451444
  H   1.20238864635833     -0.78438583179299      0.97467754057445
  H   1.34410371309130     -1.35751966162871     -0.69220029117128
  C   -0.82842189931562      1.08157981806312      0.48508086790138
  H   -1.88639325258412      1.27908589518936      0.31412033826611
  H   -0.24468310945960      1.95139151630572      0.18473811633823
  H   -0.66925656722658      0.90960619350823      1.55616773985733
  N   -1.29348658869256     -1.24786315899479      0.05093209900875
  H   -1.00987534850373     -2.10942736936430     -0.40071753969272
  H   -1.30893561629497     -1.38400385579552      1.05601343511215
  C   1.98223124582916      0.61025277517037     -0.36929693424821
  N   2.70162114315633      1.51278223075333     -0.58242092462989
