14
Coordinates from ORCA-job run
  C   -0.35500358864835     -0.10675736611578     -0.34864916620592
  C   1.16704229978913     -0.04397720967990     -0.51770787668796
  Br  -1.06321468001924      0.09453692218513     -2.25907713919494
  H   1.44429370908035      0.87397797527739     -1.04019339919382
  H   1.50820881831587     -0.88124243514272     -1.13350701483977
  C   -0.90970908914592      1.06490338306661      0.43662304995982
  H   -0.52452110441152      1.01938977372865      1.45860550698246
  H   -0.62169065953350      2.01170564859014     -0.02056065056813
  H   -2.00020142545432      1.01998294021037      0.46646265673702
  N   -0.72638471371533     -1.33063522155424      0.23851309130319
  H   -0.41599348231435     -2.13555207944092     -0.29030401726819
  H   -1.72195533759084     -1.39567662905135      0.40464106494142
  C   1.83940709992070     -0.08783523152000      0.78161273895691
  N   2.38072215372733     -0.10282047055338      1.82254115507790
