15

C	0.0	0.0	0.0
C	-0.221131	0.001657	-1.58029
Br	1.962679	0.0	0.0
H	0.498173	-0.728696	-1.963114
H	-0.309206	0.958918	0.413689
N	-0.623699	-1.038387	0.717574
H	-0.520911	-1.918546	0.223861
H	-1.64518	-0.762255	0.679416
C	0.187013	1.299058	-2.126256
N	0.476134	2.347141	-2.573036
C	-1.581501	-0.386303	-2.168181
H	-1.924865	-1.325287	-1.736371
H	-2.358262	0.331848	-1.928156
H	-1.44594	-0.502663	-3.252491
H	-3.119764	0.0	0.0
