14

C	-0.326197	-0.036677	-1.488082
C	0.0	0.0	0.0
Cl	0.114358	1.494161	-2.304527
H	1.095555	0.0	0.0
H	0.316676	-0.804197	-1.92638
C	-1.727214	-0.339628	-1.788691
N	-2.849225	-0.620569	-1.997976
C	-0.37854	-1.323901	0.664621
H	0.173873	-2.128835	0.171573
H	-0.043791	-1.298141	1.703441
H	-1.45111	-1.545295	0.639754
C	-0.60708	1.130876	0.667536
N	-1.112474	2.028299	1.236629
F	2.532563	0.0	0.0
