14

C	-0.491707	-0.000583	-1.44769
C	0.0	0.0	0.0
Cl	0.16572	-1.406401	-2.353992
H	1.095746	0.0	0.0
H	-1.581168	-0.106688	-1.505104
C	-0.123446	1.221771	-2.162946
N	0.109935	2.205691	-2.760169
C	-0.423984	-1.257938	0.755222
H	-0.11726	-1.157772	1.797919
H	-1.504804	-1.445885	0.720595
H	0.108627	-2.114036	0.340606
C	-0.530163	1.186274	0.64577
N	-0.979667	2.13538	1.177833
F	2.526554	0.0	0.0
