14

C	-0.492884	-0.006684	-1.447476
C	0.0	0.0	0.0
Cl	0.163136	-1.416575	-2.348228
H	1.095749	0.0	0.0
H	-1.582586	-0.112245	-1.503653
C	-0.124192	1.212372	-2.167946
N	0.110849	2.192885	-2.770401
C	-0.422207	-1.254679	0.76178
H	0.109541	-2.112422	0.349398
H	-1.503017	-1.442847	0.730867
H	-0.112315	-1.149645	1.803131
C	-0.530476	1.188804	0.640917
N	-0.980596	2.139532	1.169755
F	2.526244	0.0	0.0
