14

C	-0.315128	-0.073448	-1.489287
C	0.0	0.0	0.0
Cl	0.11513	1.441914	-2.337502
H	1.095573	0.0	0.0
H	0.339297	-0.843494	-1.904692
C	-1.71054	-0.398647	-1.795046
N	-2.826677	-0.697394	-2.011101
C	-0.377317	-1.309432	0.693033
H	-1.447757	-1.540357	0.657742
H	-0.059452	-1.255302	1.736038
H	0.189419	-2.121251	0.229267
C	-0.611349	1.145013	0.638376
N	-1.11938	2.053211	1.188007
F	2.531951	0.0	0.0
