14

C	-0.258638	-0.009854	-1.489834
C	0.0	0.0	0.0
Cl	-2.021204	0.03862	-1.960283
H	1.097609	0.0	0.0
H	0.186826	0.882481	-1.932703
C	0.329992	-1.187537	-2.12748
N	0.754651	-2.133936	-2.67744
C	-0.488823	-1.239649	0.734337
H	-0.193112	-1.171012	1.783069
H	0.004616	-2.118901	0.313372
H	-1.574312	-1.371354	0.679397
C	-0.499774	1.226514	0.585336
N	-0.89433	2.215842	1.085436
F	2.512638	0.0	0.0
