17

C	0.0	0.0	0.0
C	-0.412559	-0.104829	-1.476982
F	1.409228	0.0	0.0
H	-1.504517	-0.140422	-1.511184
N	-0.409269	1.234142	0.594749
H	-1.422973	1.17839	0.707239
H	-0.210173	1.98762	-0.054969
N	-0.439393	-1.146577	0.717886
H	-0.332448	-0.935915	1.704969
H	-1.435731	-1.271713	0.538736
N	0.065597	-1.441145	-2.033155
O	-0.675014	-2.408996	-1.902416
O	1.168366	-1.461875	-2.584908
N	0.120299	0.997642	-2.209313
H	-0.280601	1.033935	-3.136908
H	1.122751	0.879015	-2.288239
Br	-3.714204	0.0	0.0
