17

C	0.0	0.0	0.0
C	-0.476984	-0.065779	-1.451676
F	1.40691	0.0	0.0
H	-1.572077	-0.076056	-1.430821
N	-0.446603	1.244448	0.52133
H	-0.173441	1.346985	1.489332
H	-0.098377	2.005911	-0.044012
N	-0.447597	-1.145323	0.717281
H	-0.197312	-1.036326	1.694323
H	-1.470026	-1.135887	0.657872
N	-0.041379	-1.404478	-2.037557
O	1.077143	-1.450371	-2.5569
O	-0.825262	-2.343686	-1.967726
N	0.053079	1.032535	-2.194633
H	-0.443585	1.134343	-3.068946
H	1.031473	0.853145	-2.384787
Br	-3.873061	0.0	0.0
