17

C	0.0	0.0	0.0
C	-0.477848	-0.083977	-1.451634
F	1.40702	0.0	0.0
H	-1.573137	-0.087077	-1.431508
N	-0.453581	1.245238	0.509206
H	-0.14225	2.002242	-0.084064
H	-0.154435	1.374527	1.466281
N	-0.437454	-1.144652	0.725468
H	-1.460805	-1.128689	0.698198
H	-0.151857	-1.048025	1.693735
N	-0.05341	-1.431005	-2.02078
O	1.078223	-1.501158	-2.507229
O	-0.859736	-2.352483	-1.975659
N	0.059897	1.001832	-2.208883
H	-0.424826	1.085265	-3.091963
H	1.041672	0.822022	-2.380428
Br	-3.895174	0.0	0.0
