18

C	-0.490332	0.032305	-1.44571
C	0.0	0.0	0.0
Br	0.050756	-1.689815	-2.278173
H	1.094751	0.0	0.0
H	-0.336824	-0.929703	0.470787
C	-2.007376	0.097141	-1.567876
H	-2.370242	1.05733	-1.186031
H	-2.47654	-0.706705	-0.993485
H	-2.317984	0.003351	-2.611086
C	0.194161	1.133585	-2.243734
H	1.278032	1.067739	-2.120345
H	-0.06071	1.064955	-3.304453
H	-0.141732	2.108871	-1.874523
C	-0.469082	1.194613	0.833632
H	-0.01855	1.124377	1.826978
H	-0.134649	2.141151	0.403018
H	-1.555549	1.231659	0.958642
Br	3.763126	0.0	0.0
