15

C	0.0	0.0	0.0
C	-0.189296	0.042774	-1.554511
Br	2.018425	0.0	0.0
H	0.700195	0.50185	-1.996479
C	-0.237095	1.281918	0.645895
N	-0.407266	2.274686	1.256891
N	-0.132694	-1.261473	0.734113
H	0.648028	-1.373448	1.37616
H	-1.019855	-1.275576	1.217316
N	-1.306912	0.84026	-2.046723
H	-2.16626	0.411562	-1.730026
H	-1.268236	0.830712	-3.060452
C	-0.208995	-1.357718	-2.033622
N	-0.259936	-2.417046	-2.539608
H	-1.610794	0.0	0.0
