15

C	0.0	0.0	0.0
C	-0.546215	0.120757	-1.429757
Br	1.946392	0.0	0.0
H	-1.638889	0.263383	-1.204273
C	-0.323466	1.246056	0.737388
N	-0.515606	2.219373	1.369532
N	-0.597999	-1.169474	0.560985
H	-1.640419	-0.93045	0.475041
H	-0.372607	-1.222843	1.550157
N	-0.267699	-1.10327	-2.184509
H	-0.381857	-1.859488	-1.512893
H	-1.013302	-1.208228	-2.866668
C	-0.02641	1.291071	-2.13336
N	0.335434	2.226705	-2.746247
H	-2.919234	0.0	0.0
