15

C	0.0	0.0	0.0
C	-0.456611	-0.039628	-1.496606
Br	1.957968	0.0	0.0
H	0.391009	-0.416318	-2.08255
C	-0.407713	1.233173	0.67814
N	-0.519371	2.253675	1.255112
N	-0.354723	-1.152367	0.80523
H	-1.383581	-1.119486	0.781419
H	-0.04314	-1.985429	0.313112
N	-0.754964	1.298583	-1.971556
H	-1.642912	1.553121	-1.535807
H	-0.897679	1.255604	-2.975642
C	-1.554667	-1.014284	-1.701997
N	-2.122199	-1.870259	-2.294681
H	-2.478346	0.0	0.0
