15

C	0.0	0.0	0.0
C	-0.366819	-0.261531	-1.522307
Br	1.956918	0.0	0.0
H	0.416616	0.237586	-2.100954
C	-0.318796	1.418091	0.2838
N	-0.531452	2.549281	0.526693
N	-0.624236	-0.942767	0.858694
H	-0.45461	-0.687453	1.828583
H	-1.650453	-0.806403	0.678838
N	-1.641298	0.207511	-1.996244
H	-2.38271	0.031935	-1.261473
H	-1.585564	1.217912	-2.08139
C	-0.207396	-1.705568	-1.779039
N	-0.055198	-2.836633	-2.054086
H	-3.181376	0.0	0.0
