15

C	0.0	0.0	0.0
C	-0.301909	-0.015426	-1.524783
Br	2.044988	0.0	0.0
H	-1.400841	-0.044315	-1.513805
C	-0.73429	1.123749	0.603611
N	-0.755441	2.273547	0.926191
N	-0.308399	-1.29264	0.551052
H	0.17631	-1.401202	1.433121
H	0.033882	-1.987434	-0.10471
N	0.213243	-1.21516	-2.168786
H	1.19571	-1.102365	-2.390163
H	-0.302152	-1.374886	-3.024923
C	0.132924	1.225035	-2.180973
N	0.476561	2.145906	-2.826438
H	-2.247352	0.0	0.0
