15

C	0.0	0.0	0.0
C	-0.34267	-0.273474	-1.542739
Br	1.948972	0.0	0.0
H	0.422698	0.244308	-2.129561
C	-0.359115	1.40622	0.249946
N	-0.569896	2.55328	0.393764
N	-0.623069	-0.832755	0.96249
H	-1.646144	-0.618936	0.870595
H	-0.483267	-1.805153	0.700978
N	-1.641005	0.132254	-2.000718
H	-1.620368	1.139945	-2.12164
H	-2.363868	-0.033573	-1.240043
C	-0.144197	-1.717614	-1.757659
N	-0.014366	-2.873202	-1.926754
H	-3.184206	0.0	0.0
