15

C	0.0	0.0	0.0
C	-0.498659	-0.001415	-1.448525
Br	2.047497	0.0	0.0
H	-1.609542	0.075152	-1.224085
C	-0.3133	1.291515	0.62912
N	-0.483319	2.3405	1.131792
N	-0.534565	-1.064588	0.756996
H	-0.443472	-1.890111	0.166808
H	-1.566892	-0.81865	0.744997
N	-0.223889	-1.285944	-2.070207
H	-0.919744	-1.470742	-2.781564
H	0.694021	-1.280909	-2.499146
C	-0.054581	1.147438	-2.236867
N	0.285431	2.032149	-2.934427
H	-2.876946	0.0	0.0
