12
Coordinates from ORCA-job run
  C   -0.42545894271662      0.13423830751011     -0.40289335511180
  C   1.00242930926497      0.04885905613002      0.15097458882465
  H   -0.65870551386514      1.17952583746340     -0.62421397498729
  H   1.07603823631736      0.59769830331261      1.09506348075235
  H   -0.47155034643695     -0.40797907351635     -1.35150663987062
  H   1.26408672176981     -0.99202908934263      0.36552991994850
  C   -1.43823373408474     -0.43678147323521      0.58336401458336
  H   -1.41804215763419      0.11024981667551      1.52950579814975
  H   -2.45241617311631     -0.37352952714038      0.18391987541208
  H   -1.22947426361203     -1.48806545944247      0.79798718136008
  C   1.99012057508500      0.59302581481523     -0.78062075244391
  N   2.76020628902885      1.03578748677016     -1.54711013661714
