12
Coordinates from ORCA-job run
  C   -0.52245451889046      0.62360730084405     -0.06396330420121
  C   0.97327451419378      0.58923431337072      0.27897577607634
  H   -0.99422935340252      1.37568732474085      0.57600574301612
  H   1.11496104989051      0.29311111616274      1.32326340120383
  H   -0.64204395108258      0.96395623103959     -1.09668009505031
  H   1.42156385009473      1.58003813990669      0.16136655708658
  C   -1.19791821703183     -0.72948435195363      0.12651837622756
  H   -0.76248887670359     -1.48387499361089     -0.53239305043152
  H   -1.09073542288169     -1.07851220017054      1.15715996452460
  H   -2.26520484955077     -0.66616465542283     -0.09549779168350
  C   1.70435477188575     -0.35307961479969     -0.56934441609893
  N   2.26192100347868     -1.11551861010706     -1.26541116066957
