12
Coordinates from ORCA-job run
  C   -0.51968515644774      0.62125170679671      0.09459389725955
  C   0.95014735178451      0.59015113912749     -0.34641828924244
  H   -1.03569674329109      1.36809446638548     -0.51676825396952
  H   1.40018418171538      1.58401892637322     -0.26747477364834
  H   -0.57186643225314      0.96704263821023      1.13108835330798
  H   1.02444498064600      0.28466171721176     -1.39498081297665
  C   -1.20140249435069     -0.73498309812941     -0.04385667072589
  H   -0.71578742718309     -1.48664758926003      0.58207455635310
  H   -2.24965246254705     -0.67591406055143      0.25593917146001
  H   -1.16887846399946     -1.08490020438067     -1.07908615564831
  C   1.74047881613851     -0.34048229256499      0.46081709626806
  N   2.34671384978786     -1.09329334921837      1.12607188156246
