14

C	-0.415049	0.007245	-1.444112
C	0.0	0.0	0.0
F	-1.809034	-0.138426	-1.584888
H	1.091547	0.0	0.0
H	-0.13617	0.942759	-1.924534
C	0.202326	-1.128563	-2.145426
N	0.633995	-2.035544	-2.751723
N	-0.450549	-1.127137	0.740668
H	0.322673	-1.75844	0.888371
H	-1.242319	-1.599139	0.329431
N	-0.45751	1.294026	0.618565
O	-0.791584	1.308721	1.797953
O	-0.398793	2.302776	-0.093645
F	2.516238	0.0	0.0
