14

C	-0.4185	-0.019925	-1.443158
C	0.0	0.0	0.0
F	-1.812059	-0.175278	-1.578045
H	1.093537	0.0	0.0
H	-0.145497	0.908276	-1.941022
C	0.20301	-1.165	-2.125467
N	0.63269	-2.082651	-2.717146
N	-0.448555	-1.114319	0.761542
H	-1.236626	-1.59864	0.358351
H	0.326777	-1.738212	0.927354
N	-0.455065	1.303058	0.598869
O	-0.761328	1.339442	1.785481
O	-0.421229	2.297534	-0.134718
F	2.515336	0.0	0.0
