14

C	-0.524733	-0.01693	-1.432079
C	0.0	0.0	0.0
F	-0.129236	-1.199426	-2.038843
H	1.090053	0.0	0.0
H	-1.621808	-0.003321	-1.441602
C	-0.035486	1.112672	-2.237911
N	0.332807	1.988294	-2.927009
N	-0.456657	-1.119014	0.767552
H	-1.302015	-1.547012	0.411372
H	0.29877	-1.790124	0.791604
N	-0.585466	1.25214	0.594581
O	-1.814231	1.261201	0.750299
O	0.154262	2.191037	0.872286
F	2.553747	0.0	0.0
