14

C	-0.409211	-0.043055	-1.444675
C	0.0	0.0	0.0
F	-1.806259	-0.164009	-1.584556
H	1.091569	0.0	0.0
H	-0.109442	0.866345	-1.962094
C	0.184893	-1.2189	-2.095722
N	0.604106	-2.155965	-2.66273
N	-0.457197	-1.093793	0.780794
H	-1.244516	-1.586041	0.38697
H	0.313005	-1.713117	0.975403
N	-0.453874	1.322274	0.558901
O	-0.882877	1.380116	1.705286
O	-0.297385	2.307214	-0.169547
F	2.516673	0.0	0.0
