14

C	-0.482788	-0.086234	-1.415796
C	0.0	0.0	0.0
F	-1.887612	-0.108517	-1.479235
H	1.092666	0.0	0.0
H	-0.148491	0.779845	-1.98566
C	0.010162	-1.318742	-2.043901
N	0.381919	-2.283695	-2.597411
N	-0.459734	-1.088252	0.793063
H	-1.382842	-0.923922	1.17285
H	0.190927	-1.231262	1.552593
N	-0.406118	1.345574	0.535653
O	-0.286875	2.323672	-0.202889
O	-0.790831	1.410839	1.705692
F	2.511309	0.0	0.0
