14

C	-0.40886	-0.052638	-1.445338
C	0.0	0.0	0.0
F	-1.802312	-0.19924	-1.586081
H	1.091548	0.0	0.0
H	-0.123484	0.860723	-1.963618
C	0.20817	-1.218104	-2.09499
N	0.646494	-2.147385	-2.661542
N	-0.45085	-1.096935	0.785751
H	0.324428	-1.72131	0.954245
H	-1.240228	-1.585707	0.391539
N	-0.462625	1.31723	0.55998
O	-0.839169	1.37688	1.725386
O	-0.368321	2.298606	-0.185858
F	2.515978	0.0	0.0
