20
Coordinates from ORCA-job run
  C   -0.79275110085082      0.20185635719688      0.30809345814770
  C   0.74281666241071      0.32231100189853      0.36476749176478
  Cl  -1.41558778742678      0.51359974582641      1.98888702105064
  H   0.94733547494821      1.27865926802990      0.86250477288164
  C   -1.28318302003625     -1.18104596973663     -0.09397306687550
  H   -0.90150094976700     -1.44333604167551     -1.08490524060076
  H   -0.96541457039070     -1.94300892787632      0.61773640521594
  H   -2.37432914498271     -1.19199828883439     -0.13526099731216
  C   -1.41503713390599      1.27180644615840     -0.57819552792235
  H   -1.03248865415915      2.26247195134970     -0.32076516595967
  H   -2.49939729411826      1.28011691388611     -0.45336536206358
  H   -1.19535036116182      1.06999384488093     -1.62930820846771
  C   1.37177514804115      0.37959897606064     -1.03016555106399
  H   1.13266736259495     -0.51176869542917     -1.61726024343851
  H   2.46004379603484      0.42187822568137     -0.93513288036259
  H   1.05941295228905      1.25886239518819     -1.59540253455036
  C   1.40417323129750     -0.78759558655683      1.18053021891250
  H   2.45658010166929     -0.54448608301823      1.34884242495486
  H   0.93038658570113     -0.91561842466991      2.15473521454081
  H   1.37084870181264     -1.74229710836008      0.64863777114831
