20
Coordinates from ORCA-job run
  C   -0.74874947790322      0.13608554508529      0.16230715886500
  C   0.72779353413367     -0.14446829407381     -0.18241777598743
  Cl  -0.85175444324195      0.94563163401783      1.78431707371371
  H   0.68246569186229     -0.62906377313315     -1.16952978957113
  C   -1.56168225842390     -1.14847827755940      0.26107734649849
  H   -2.61386163486531     -0.91435404270620      0.43472663308920
  H   -1.48010312307566     -1.70755752028901     -0.67696987979174
  H   -1.22114637869895     -1.78271324884847      1.07857160291299
  C   -1.39528861085542      1.08205387181338     -0.84161073071868
  H   -2.45580994269814      1.20448509738033     -0.61279602526732
  H   -0.93385920405632      2.06863183177719     -0.82534181399739
  H   -1.30301073924140      0.66581743117092     -1.85026838889888
  C   1.40515613870104     -1.11913493389735      0.78068314613796
  H   2.44368543781674     -1.27315278764667      0.47692371498865
  H   1.40888687347519     -0.72172233559892      1.79813942492604
  H   0.92219190477203     -2.09729726418400      0.79473418697064
  C   1.57228408987296      1.12135836159452     -0.32687911802949
  H   1.58869661841039      1.68715760844285      0.60734195843427
  H   2.60199435330499      0.84956979999901     -0.57256480953834
  H   1.21111117071097      1.77715129665564     -1.12044391473656
