13
Coordinates from ORCA-job run
  C   0.35173749963169      1.14762457313418      0.72761140772454
  C   0.07080258726710      0.15519939949567     -0.38687059780063
  H   1.34206471771180      1.59393539166461      0.61469775221060
  H   0.16894102795176      0.62594639478830     -1.36568959973036
  H   0.29717862615147      0.65207381303142      1.69760205076827
  H   -0.39044227609481      1.94816284625514      0.69813881987239
  C   -1.27159674548030     -0.54089844573245     -0.24690683118284
  H   -2.07339300940239      0.19780174678130     -0.30998382720507
  H   -1.41765852461344     -1.27449415797568     -1.04261543169285
  H   -1.33479757807900     -1.04829158894284      0.71641958744503
  N   1.15008746583678     -0.89053762610460     -0.37316902764483
  O   1.24956866784954     -1.57259227428465      0.64441811876973
  O   1.85750754126980     -0.99393007211040     -1.37365242153398
