13
Coordinates from ORCA-job run
  C   0.34040374531995      1.14278487344954      0.74083286891537
  C   0.07419121194505      0.15887161883379     -0.38487128245089
  H   -0.40528387738270      1.94005876717125      0.71184649333477
  H   0.18071307824228      0.63804105911276     -1.35871444364946
  H   1.32964124253494      1.59453476969610      0.64092890643652
  H   0.27917173158693      0.63783662461636      1.70557047389068
  C   -1.26718053394065     -0.54266678479123     -0.26461623647862
  H   -2.07073885044903      0.19376593142881     -0.33185903234534
  H   -1.40186607533351     -1.27126192288399     -1.06692532454027
  H   -1.34000291690499     -1.05709332209500      0.69428557348187
  N   1.15693481388114     -0.88326327392140     -0.36873358929592
  O   1.87556161164652     -0.97524819656594     -1.36231655254759
  O   1.24745481885408     -1.57436014405106      0.64357214524889
