12

C	-0.340692	-0.050733	-1.458344
C	0.0	0.0	0.0
F	0.03458	-1.250109	-1.983411
H	1.092949	0.0	0.0
H	0.1161	0.759321	-2.025858
H	-0.381555	-0.903435	0.481987
N	-1.83378	0.063589	-1.703193
O	-2.250828	1.15901	-2.079738
O	-2.52181	-0.924007	-1.464953
C	-0.526825	1.185448	0.640021
N	-0.93007	2.148762	1.180536
F	2.522486	0.0	0.0
