12

C	-0.373146	-0.049961	-1.449973
C	0.0	0.0	0.0
F	0.021937	-1.233771	-1.995556
H	1.09298	0.0	0.0
H	0.040407	0.776734	-2.026386
H	-0.371166	-0.905373	0.487996
N	-1.875847	0.020549	-1.651585
O	-2.528087	-0.98643	-1.392959
O	-2.335455	1.102185	-2.016319
C	-0.526215	1.180119	0.652284
N	-0.930182	2.138495	1.200933
F	2.522583	0.0	0.0
