12

C	-0.449229	-0.049314	-1.440201
C	0.0	0.0	0.0
F	-0.371568	1.188249	-2.004552
H	1.092858	0.0	0.0
H	-1.455328	-0.443166	-1.614377
H	-0.327605	0.96283	0.40362
N	0.450611	-0.979296	-2.232287
O	1.090198	-0.530068	-3.170102
O	0.404297	-2.147934	-1.868023
C	-0.571802	-1.066164	0.794439
N	-1.042747	-1.913089	1.460504
F	2.521419	0.0	0.0
