12

C	-0.502159	0.068344	-1.420473
C	0.0	0.0	0.0
F	-0.176284	1.270165	-1.966648
H	1.092888	0.0	0.0
H	-1.578597	-0.086493	-1.546448
H	-0.295232	0.946202	0.467778
N	0.126691	-1.01376	-2.269535
O	0.978144	-0.694771	-3.085552
O	-0.314471	-2.143302	-2.071112
C	-0.582128	-1.095344	0.742136
N	-1.031573	-1.974776	1.378636
F	2.521355	0.0	0.0
