14
Coordinates from ORCA-job run
  C   0.21665697858765      0.62899859045056     -0.34352682786395
  C   -0.90771947948531     -0.37088067795741     -0.62142830872883
  Br  0.56439771909086      1.48666032608202     -2.08456369811284
  H   -0.63596898504809     -1.02892752209283     -1.44429509854512
  H   -1.84776669100676      0.14006728209420     -0.83608070533716
  C   1.49329752583632     -0.05092353194433      0.13595214489287
  H   2.30177370406991      0.67604302072080      0.21181936189137
  H   1.78514758235820     -0.83306709719913     -0.56773788800444
  H   1.32644056761297     -0.48968868271929      1.12244470392255
  C   -0.19245043162757      1.69360028773283      0.56795160594782
  N   -0.48264785456265      2.56991018722699      1.29545762664915
  N   -1.14550570944277     -1.25491635404631      0.56285363978207
  O   -1.19825616498706     -2.46310904550601      0.35045926357472
  O   -1.27839876139571     -0.70276678284210      1.65169417993179
