14
Coordinates from ORCA-job run
  C   0.25359098685751      0.45984105537622     -0.12755795210027
  C   -0.47770648067543     -0.87190052114755      0.00496217028384
  Br  -0.31141384512849      1.31800416785996     -1.79955444876299
  H   -0.17942881969599     -1.54496088869943     -0.79691241906369
  H   -0.26134113163800     -1.31389073485717      0.98177646197678
  C   1.75896580357566      0.19895010542162     -0.19666671428559
  H   1.98874482555669     -0.44450408457634     -1.04752405167256
  H   2.08849917753453     -0.28558776157821      0.72684918209677
  H   2.29802504851185      1.13944460632310     -0.30948425983184
  C   -0.02810285075860      1.37735693310577      0.97335267852472
  N   -0.14043535329174      2.11677935794271      1.88012168648194
  N   -1.96299793719128     -0.74293179699251     -0.08102991747202
  O   -2.53645920305257     -1.48179685304783     -0.87579616429994
  O   -2.48994022060414      0.07519641486966      0.66546374812486
