14
Coordinates from ORCA-job run
  C   0.28210015187022      0.52346932354801     -0.44515984640421
  C   -0.73549023000257     -0.59505783494170     -0.69223087371599
  Br  0.92446887117624      1.03274407835079     -2.23430134812316
  H   -1.58140180227005     -0.23282792921209     -1.27406235316232
  H   -0.24516278972203     -1.43676695986445     -1.17875319941237
  C   1.46935631925449      0.07739344753062      0.40064341250623
  H   2.20466770253043      0.87982805971678      0.46210244965081
  H   1.13589233833985     -0.17266062877074      1.40990081114242
  H   1.93464741710717     -0.80273186999690     -0.04568659793177
  C   -0.35629933081417      1.70021269649968      0.13805531780861
  N   -0.84107167167419      2.64597491147465      0.64044402899350
  N   -1.27029391407808     -1.09006535860135      0.61222150787029
  O   -0.67991104174529     -2.03588262933005      1.13223494378065
  O   -2.24050201997203     -0.49462930640325      1.07559174699732
