14
Coordinates from ORCA-job run
  C   0.29876344109998      0.44109026600221     -0.25380757883381
  C   -0.48693877807434     -0.86561067855457     -0.12197372345563
  Br  0.07419962310536      1.23397186563407     -2.03334406587109
  H   -0.37419516085944     -1.46580660653194     -1.02664121192332
  H   -0.13219650656350     -1.41674764927509      0.74903430824407
  C   1.78717195946449      0.14674386873154     -0.05926521208204
  H   2.37067722574488      1.05825510171691     -0.18696089928941
  H   2.11869804808835     -0.58655197748914     -0.79701930399862
  H   1.95776058926179     -0.24610161329128      0.94663041695558
  C   -0.15856126154058      1.41001734369968      0.73865965370862
  N   -0.51346127221266      2.15508284878695      1.57589682896260
  N   -1.95188166938587     -0.66427865353832      0.10150358437182
  O   -2.54930102123160      0.05348484221038     -0.69255820770146
  O   -2.44173521689686     -1.25354895810140      1.06184541091270
