14
Coordinates from ORCA-job run
  C   0.18548706231803      0.63234559570399     -0.08050816146075
  C   -1.01979136997734     -0.22137701279000      0.33697026733373
  Br  -0.11496958953565      1.31502629654182     -1.89708559196371
  H   -0.84761091176347     -0.61596217697710      1.34085641905597
  H   -1.93786507012808      0.36141638143074      0.29715741695658
  C   1.53154822089636     -0.08466665970092     -0.03111156640413
  H   1.55542660348565     -0.90506541168241     -0.74518920399445
  H   1.69310046717452     -0.48621519596913      0.97282108315062
  H   2.32812532966254      0.62177624375327     -0.26550790860995
  C   0.19778768448040      1.78425134559264      0.81976680977387
  N   0.21248711995367      2.67773376283375      1.58371419624017
  N   -1.21449016508209     -1.39820851798773     -0.55795970838176
  O   -2.18090646778972     -1.37575603662654     -1.31434928067344
  O   -0.38932891369481     -2.30529861412238     -0.46157477102276
