13
Coordinates from ORCA-job run
  C   0.74734878470250     -0.20813198775457     -0.58364459045202
  C   -0.68597397271468      0.00109894013134     -0.10435955776560
  Cl  0.90269968149230     -0.02576693759444     -2.32758446367808
  H   -1.02626376581808      0.96804829581182     -0.49068098747253
  H   1.13452553290227     -1.17794251693677     -0.27798618468342
  N   1.62282752363682      0.82009108608823      0.08668107078388
  O   2.76600603239059      0.46971884938139      0.34861277563843
  O   1.12849705123005      1.92474435034151      0.29083126571293
  N   -0.66830025767402     -0.06483141580966      1.35359261159283
  H   -1.42798873090319     -0.62486918700514      1.71418553299311
  H   -0.72703247584008      0.86624197453719      1.74243199419649
  C   -1.53625117113373     -1.04823628829906     -0.66990688278754
  N   -2.23009423227075     -1.90116516289184     -1.08117258407848
