13
Coordinates from ORCA-job run
  C   0.66667891351847      0.56620759508396     -0.40676115028107
  C   -0.57243466345029     -0.28925594710951     -0.14320844072853
  Cl  0.67793238867253      2.02511502762508      0.55616834483013
  H   -0.46845701958341     -1.17129894079377     -0.78154244811645
  H   0.69537954050036      0.82742458054939     -1.46344018456669
  N   1.89189734020300     -0.29491371414337     -0.15020322627484
  O   2.62600879569986     -0.04888203817634      0.79279772526453
  O   2.00122547413876     -1.21756618617026     -0.95333670193910
  N   -1.74933194793679      0.44309280738567     -0.56807444414229
  H   -2.54455154040901     -0.18104509686414     -0.62113706110768
  H   -1.96854009977545      1.17643201831343      0.09555539939328
  C   -0.59089665326760     -0.74138982684501      1.26237923964403
  N   -0.66691052831043     -1.09292027885513      2.38080294802467
