13
Coordinates from ORCA-job run
  C   0.62800860279158      0.59711711027072     -0.16317125512532
  C   -0.64669756362284     -0.27561434944434     -0.18074904268174
  Cl  0.70439945210591      1.62624594158386      1.24716095452709
  H   -0.57808485080106     -0.88494624302045     -1.08786927185689
  H   0.66500801728220      1.21384543135776     -1.06110962655551
  N   1.82815782298630     -0.32613662641355     -0.26417102091133
  O   2.56298117671016     -0.48228111608886      0.69712392058811
  O   1.90666790591960     -0.88089168668308     -1.35782734105023
  N   -1.89476860435956      0.44872030630930     -0.21115534697371
  H   -1.97358758404787      1.07728424377785      0.57831345203481
  H   -1.98681565060908      0.97457159785394     -1.07102323730618
  C   -0.62146835512667     -1.18412844182706      0.97355908433537
  N   -0.59380036922868     -1.90278616767610      1.90091873097553
