13
Coordinates from ORCA-job run
  C   0.80748097484745     -0.31868048400040     -0.43665431658451
  C   -0.65695386800463      0.04812466271723     -0.21476083719969
  Cl  1.25181968311599     -0.30378737446361     -2.13986350763020
  H   -0.83819948826406      1.00376528523782     -0.71834811933556
  H   1.04842012816881     -1.28579171683913     -0.00026446644485
  N   1.65795987860627      0.69072913739543      0.29169662959488
  O   1.25384117835062      1.84962829431041      0.30870648967771
  O   2.69775268892613      0.27052040839559      0.78211994035495
  N   -0.87162948865890      0.11051285576275      1.22720990410674
  H   -1.71076328469801     -0.37748638938915      1.50696391278004
  H   -0.92967677206353      1.07346708064341      1.52848713070319
  C   -1.50600272333728     -0.96981844190328     -0.83686333750981
  N   -2.20604890698887     -1.79118331786706     -1.29842942251287
