13
Coordinates from ORCA-job run
  C   0.67595203651510      0.20211900918263     -0.78625842690918
  C   -0.72949633720939     -0.14862948100753     -0.27814456371662
  Cl  0.66832767186903      1.78732333725643     -1.54383811255735
  H   -1.40609472667217      0.02869247345694     -1.12845719303328
  H   1.03998628282669     -0.53071309521230     -1.50425507679587
  N   1.63465103118593      0.15238856394908      0.38733515812009
  O   2.01260086060911      1.19071130877007      0.90091716510871
  O   1.91050342497645     -0.99319672940142      0.72767290313001
  N   -1.01665580691361      0.64074127850873      0.90723194985299
  H   -1.09523473921454      1.62091790537968      0.66296210027570
  H   -1.88635309962693      0.34232831437077      1.32976100167100
  C   -0.82669168855918     -1.57681721776639      0.04663346618577
  N   -0.98249490978649     -2.71686566748670      0.27843962866803
