13
Coordinates from ORCA-job run
  C   0.68921738428098      0.54016483461750     -0.40353198162700
  C   -0.59681416592990     -0.24061272283425     -0.13413236096785
  Cl  0.84269081578789      1.93757783711578      0.63522936823428
  H   -0.58073493790513     -1.09060664015511     -0.82230689539310
  H   0.69664067449067      0.85804715671168     -1.44493655601614
  N   1.85867291327433     -0.41741857934648     -0.24620104570023
  O   2.64429188059639     -0.27733077132648      0.67675372485882
  O   1.87049042146419     -1.29786901761932     -1.10247420965690
  N   -1.73369593355805      0.59424938451750     -0.46990897006138
  H   -2.57368456637378      0.03109006085792     -0.51762496129278
  H   -1.87158857677509      1.30545210538887      0.23842985144387
  C   -0.59375351282700     -0.76836057114117      1.24508586793009
  N   -0.65173239652549     -1.17538307678643      2.34561816824833
