13
Coordinates from ORCA-job run
  C   0.76105526056312     -0.25827582674732     -0.45402159875804
  C   -0.74539433525102     -0.04146472216726     -0.22860874064128
  Cl  1.16842002742308     -0.32318738183971     -2.16145354513040
  H   -1.03300268447898      0.82265192396952     -0.83486801421436
  H   1.13255391036755     -1.15566152640283      0.03911818357491
  N   1.47315564404020      0.89657463907902      0.19724205312062
  O   2.29185869244502      0.61492459105262      1.06709199521139
  O   1.13991796755984      2.02077348283932     -0.16105966657084
  N   -1.12301718147622      0.21641238782708      1.14173692755380
  H   -0.79413033562638     -0.49835630748185      1.77766630780443
  H   -0.81274036530628      1.12849819014813      1.44759975516274
  C   -1.45425761216659     -1.22618285474393     -0.72867305517901
  N   -2.00341898809335     -2.19470659553279     -1.09977060193394
