13
Coordinates from ORCA-job run
  C   0.65115106020035      0.57479740027389     -0.15261760705089
  C   -0.65761180403933     -0.24578540371200     -0.18276458502584
  Cl  0.77847858903086      1.56413888087351      1.28216812217305
  H   -0.61772959672861     -0.83584052094428     -1.10417572074386
  H   0.70656456842713      1.21192120385612     -1.03539844092581
  N   1.81231071536698     -0.39300469373676     -0.28660197232545
  O   1.86138922282208     -0.92119140010337     -1.39517664280801
  O   2.54696611647615     -0.60315013422616      0.66457450649483
  N   -1.87593238581190      0.52856306455038     -0.18920476488357
  H   -1.94734816031801      1.08251608494870     -1.03325663863338
  H   -1.92704958281838      1.13676954431097      0.61801976242188
  C   -0.66492088982086     -1.18007200151124      0.95081284654951
  N   -0.66526785278646     -1.91766202457975      1.86362113475755
