13
Coordinates from ORCA-job run
  C   0.82720688073786     -0.29195977051698     -0.41875863577438
  C   -0.64466531542628      0.04884826541207     -0.20260514665158
  Cl  1.22909112788013     -0.42654259296774     -2.12399055931913
  H   -0.82276147400470      0.99595109320130     -0.71911773579839
  H   1.12551165036109     -1.20475699009716      0.09468866602431
  N   1.63334317428775      0.81797987193780      0.20673214903512
  O   1.37174897140001      1.95689267509116     -0.15578897819120
  O   2.47614415197376      0.47757258575562      1.02779399819835
  N   -0.84946627758508      0.24390005068912      1.22080437091474
  H   -1.64278381700719      0.84705737117833      1.39183958997723
  H   -1.00742302075756     -0.63686165179741      1.69449600709389
  C   -1.49497654042540     -0.99127433264826     -0.80550889703709
  N   -2.20096951143440     -1.83780657523787     -1.21158482847188
