13
Coordinates from ORCA-job run
  C   0.69315357891258      0.12405358470666     -0.77709528675949
  C   -0.76213403270200     -0.00996796028727     -0.32204168080041
  Cl  1.01607968344081      1.69432901783878     -1.49399443933400
  H   -1.34561697989499      0.04644950034283     -1.24797397284604
  H   0.93710274695009     -0.64226240895856     -1.51297039511181
  N   1.66871122565956     -0.10454052872214      0.35492488925133
  O   1.27282896633463      0.09589906450567      1.50023272765130
  O   2.79085017232403     -0.46540371505030      0.02501117263671
  N   -1.20281071086366      1.06214114688281      0.53748058234989
  H   -2.21201182934829      1.06924034833796      0.59677905721204
  H   -0.81066587394121      0.95971837957257      1.46305997805591
  C   -0.94070509227464     -1.37666638579827      0.21749581012740
  N   -1.10478185459692     -2.45299004337077      0.65909155756717
