13
Coordinates from ORCA-job run
  C   0.62019350899956      0.60709014213437     -0.15344206026103
  C   -0.66461929840443     -0.25024389074862     -0.14646437591512
  Cl  0.84873034499656      1.46846321189319      1.34971881255518
  H   -0.69143223122087     -0.75441303938209     -1.11806110315537
  H   0.58085300492767      1.32155660959993     -0.97576539376819
  N   1.78978014100719     -0.30504495337934     -0.47452632082595
  O   2.61092546801439     -0.57376357802066      0.38686573125888
  O   1.75388808562204     -0.73117465071652     -1.62660462108039
  N   -1.89771771237379      0.48141374725146      0.02143688293003
  H   -1.89188130777169      1.01805452010827      0.87956466557434
  H   -2.06015050338895      1.10085940610647     -0.76221231625460
  C   -0.54880536602367     -1.28234676671635      0.89241554616483
  N   -0.44976413438401     -2.10045075813008      1.72807455277740
