13
Coordinates from ORCA-job run
  C   0.63009616366767      0.37578524278652     -0.68365991733981
  C   -0.78665451543631     -0.16672906740641     -0.36609914570746
  Cl  0.58082844754987      2.10721465013096     -0.97754093489974
  H   -1.35773279005180     -0.03083772739972     -1.29173532226145
  H   1.05895509176405     -0.11918949960236     -1.55328514966370
  N   1.56073885240542      0.06598857771050      0.45714844221104
  O   1.32667365773320      0.60653457759261      1.53372610866868
  O   2.44780585735979     -0.74858525270976      0.22173079668529
  N   -1.52928540715658      0.44396584331997      0.70722817517647
  H   -1.76001198694762      1.40057332300794      0.47259636816427
  H   -0.98878006638425      0.44498842303155      1.56339766307044
  C   -0.65845510925331     -1.61364025353399     -0.13509535953476
  N   -0.52317819525012     -2.76506883692781      0.04958827543073
