13
Coordinates from ORCA-job run
  C   0.80542580853897     -0.27835190775443     -0.46621949513852
  C   -0.65376750234356      0.05522920713814     -0.16856385850991
  Cl  1.12460620940037     -0.36076410785626     -2.19212588298492
  H   -0.85470474393933      1.01917930389622     -0.64409697320235
  H   1.12732522244567     -1.20609969773025      0.00445137869463
  N   1.64281243708478      0.81205769726365      0.15273031433036
  O   1.36222724622856      1.96182860316184     -0.15745210516464
  O   2.52732246292331      0.44636813215665      0.91715981831867
  N   -0.78963468857325      0.20277776621630      1.26851728449178
  H   -0.92550985206295     -0.69325938024435      1.71986120539853
  H   -1.57274642001949      0.79989361253938      1.49770799223633
  C   -1.53382683486746     -0.96382721770997     -0.76485924839723
  N   -2.26052934481563     -1.79503201107694     -1.16611043007272
