13
Coordinates from ORCA-job run
  C   0.70883331708595      0.12159137035837     -0.76300742256427
  C   -0.75570686668970     -0.01244321674277     -0.33806073761787
  Cl  1.04461493946467      1.68903933618109     -1.47996972914133
  H   -1.31926945200690      0.03896477811266     -1.27652143779158
  H   0.96922902615266     -0.64795898301491     -1.48973575114800
  N   1.66049649749719     -0.10042879257803      0.39042100117120
  O   1.24141948654970      0.10898849274398      1.52581513910648
  O   2.78849237135416     -0.46584724351669      0.08638188563712
  N   -1.21561241456399      1.06277643615189      0.50702879841894
  H   -2.22577590990086      1.06820094842132      0.54669911043089
  H   -0.84149969525293      0.96628247886477      1.44063860376620
  C   -0.94287991507203     -1.37719929469452      0.20368573801263
  N   -1.11334138461793     -2.45196631028714      0.64662480171960
