13
Coordinates from ORCA-job run
  C   0.76474928964654     -0.25976641040183     -0.44601816387302
  C   -0.74210902814071     -0.02512321376062     -0.24215971580453
  Cl  1.20117547102230     -0.29579103626726     -2.14718307188801
  H   -1.00676547573975      0.85535803054446     -0.83517116161199
  H   1.11412712014720     -1.17263992787790      0.03471340786787
  N   1.48211211529580      0.87053219476288      0.24116242579893
  O   2.28155569465113      0.55893072197194      1.11856914894494
  O   1.17165980985918      2.00665345643768     -0.09934348369501
  N   -1.13998693910118      0.20930533807783      1.12643804067214
  H   -0.82036766345951      1.10868605524580      1.45879623640195
  H   -0.83661449116675     -0.52543544964299      1.75191552728631
  C   -1.45912837241535     -1.18846559761129     -0.77938029803828
  N   -2.01240753059889     -2.14224416147870     -1.18133889206130
