13
Coordinates from ORCA-job run
  C   0.69207025570316      0.18335482085847     -0.77680568521298
  C   -0.72210874888933     -0.16183628584365     -0.28951044807324
  Cl  0.69182009945674      1.74491094196174     -1.58172900760577
  H   -1.38068086642280     -0.01449922361789     -1.15951578838748
  H   1.07642066090522     -0.56830407078396     -1.46412091580605
  N   1.62462048203041      0.17535146288462      0.41866959610183
  O   1.90015187724188     -0.95749774272977      0.79930902610118
  O   1.98452345151919      1.23114656133884      0.90900297983208
  N   -1.04049492882280      0.66040584328047      0.86506989440702
  H   -1.91708601260901      0.36821883004439      1.27743426925249
  H   -1.12001523527704      1.63232723388544      0.59035139937847
  C   -0.81748945973981     -1.58037116460631      0.07530025252249
  N   -0.97173157509579     -2.71420720667238      0.33654442748996
