13
Coordinates from ORCA-job run
  C   0.75206766588109     -0.10937683318665     -0.60628275987545
  C   -0.67131541282250      0.04747286907883     -0.07816839711436
  Cl  0.85716154488708      0.22643576857537     -2.32768971174379
  H   -0.96877580728724      1.07788477502494     -0.29086374192261
  H   1.16688765681403     -1.09603023365647     -0.40566804351962
  N   1.61417204701656      0.86550633704035      0.15502173834524
  O   2.59649831353218      0.39533186208344      0.71564098256845
  O   1.25444020215898      2.03490780504531      0.15055713699054
  N   -0.63313854809041     -0.14301366179216      1.36001233920822
  H   -1.40633862822580      0.33051656143160      1.80755243955014
  H   -0.67375996288779     -1.12509105673173      1.60287751736913
  C   -1.57637885515592     -0.86866400306058     -0.79203786724702
  N   -2.31252021582026     -1.63688018985224     -1.28995163260886
