13
Coordinates from ORCA-job run
  C   0.65673414801026      0.18759379524848     -0.73423734086768
  C   -0.80891710926172     -0.11941651209461     -0.33434137190104
  Cl  0.81468912806786      1.84808814024447     -1.28571319713227
  H   -1.37868969190780     -0.05253671828067     -1.26830527778905
  H   1.00241491874277     -0.48149056063800     -1.52029929085789
  N   1.56642481508712     -0.06247489855607      0.43755906059349
  O   1.42646764132810      0.65986299732472      1.41969026781324
  O   2.33827814648376     -1.01008888563492      0.32676852200277
  N   -1.44640619594059      0.73252858198191      0.63728532852139
  H   -1.56137015637295      1.66542320022348      0.26310258881760
  H   -0.89251736222546      0.79128096803161      1.48277025666867
  C   -0.85626763875055     -1.52036918748688      0.11140684454652
  N   -0.86084064326079     -2.63940092036351      0.46631360958424
