13
Coordinates from ORCA-job run
  C   0.66967048704539      0.56872701085567     -0.39821154240838
  C   -0.58931091431410     -0.25714265282608     -0.13509706834920
  Cl  0.78346437697483      1.95394727527127      0.66195692146968
  H   -0.55013888921772     -1.09474930002009     -0.83742040407373
  H   0.66105091741300      0.90330425446951     -1.43435864911625
  N   1.86992038091464     -0.35302783924806     -0.26163341006363
  O   2.65559138910211     -0.20198514575303      0.65954163405148
  O   1.90519889809287     -1.21947331831204     -1.13153757584477
  N   -1.75418037600615      0.54636286955970     -0.45081730789464
  H   -1.91257500503361      1.23870953498495      0.27160826565830
  H   -2.57540588819487     -0.04303325025583     -0.50688520844285
  C   -0.56149168763220     -0.80734525494410      1.23501834061849
  N   -0.59979368914419     -1.23429418378188      2.32883600439550
