13
Coordinates from ORCA-job run
  C   0.84362961785297     -0.42048893337405     -0.23503117559252
  C   -0.61995106581549      0.00991961989977     -0.27304268903364
  Cl  1.39033935874313     -1.03788811996202     -1.78657970620746
  H   -0.69605985601941      0.78218334541842     -1.04337940554979
  H   1.04281991470589     -1.16141933817641      0.53784208878651
  N   1.65128322287148      0.79615000304091      0.14030277542083
  O   2.39527895947947      0.67431320638276      1.10569309526116
  O   1.48826923416083      1.79558440120743     -0.54633187857300
  N   -0.94121068785893      0.59804175534252      1.01429205402444
  H   -1.71675954301017      1.24199236165060      0.93305514818896
  H   -1.18399056653456     -0.11274333299914      1.69345638648333
  C   -1.46985707028258     -1.13032135604551     -0.65443682096170
  N   -2.18379151829261     -2.03432361238529     -0.88483987224709
