13
Coordinates from ORCA-job run
  C   0.65199927448230      0.53593743244393     -0.25161008478357
  C   -0.65214326248180     -0.28426708112749     -0.14211871970235
  Cl  0.73887607697671      1.80364338476408      0.94812785290041
  H   -0.58652259253955     -1.05316484091331     -0.91888185548275
  H   0.72704472939082      0.97548570920470     -1.24636550032887
  N   1.82097784153441     -0.42706243824784     -0.15300931961170
  O   2.53115513991675     -0.42790359940181      0.83887393149415
  O   1.90097809032888     -1.17376629128966     -1.12568443003037
  N   -1.87219066858316      0.46138456287815     -0.34115306178047
  H   -1.94265005812110      1.23064904429922      0.31287597380655
  H   -1.92758048879472      0.81732702224814     -1.28696770829778
  C   -0.68552172015515     -0.96276742197168      1.16045330567814
  N   -0.70442236195439     -1.49649548288643      2.20545961613863
