13
Coordinates from ORCA-job run
  C   0.65498978327210      0.17225654898736     -0.73981865516011
  C   -0.80867504900641     -0.13214542897151     -0.33039681095248
  Cl  0.80309580706975      1.81877152681740     -1.33462782059447
  H   -1.37967199562950     -0.09097899103152     -1.26500637440603
  H   1.00330758247336     -0.51509463598467     -1.50877045077220
  N   1.56716113852725     -0.04223022822584      0.43682353534495
  O   2.34451035038410     -0.98782513777533      0.34990605221012
  O   1.42427048431217      0.70465774396636      1.39997977301024
  N   -1.44907179130925      0.74010946621913      0.62057281844984
  H   -0.89518494317236      0.82215020942060      1.46441901742287
  H   -1.57021552412459      1.66264251025477      0.22388191492813
  C   -0.84823698724581     -1.52181565568417      0.14997159601298
  N   -0.84727885555082     -2.63149792799258      0.53306540450618
