13
Coordinates from ORCA-job run
  C   0.85269290265317     -0.32043307142899     -0.31944632936991
  C   -0.65537654340543     -0.06059180797071     -0.11011842042774
  Cl  1.24118383467780     -0.99796289962918     -1.88214186934995
  H   -0.90804251963588      0.86881170679187     -0.64582614742447
  H   1.20208488890513     -0.98715790415915      0.47035017095826
  N   1.60128469896576      0.99638002307840     -0.11140200195745
  O   1.26354061771163      1.61237415162060      0.89763610054854
  O   2.46265824071334      1.33538716985297     -0.90384274153075
  N   -0.95547873815051     -0.04843030785970      1.31696478606185
  H   -1.95808286041308     -0.07635620815236      1.45759129099820
  H   -0.58542812134461      0.79758237598498      1.72938627236470
  C   -1.43734849142217     -1.14036398334366     -0.72258540774599
  N   -2.12268790925516     -1.97823924478506     -1.17556570312527
