13
Coordinates from ORCA-job run
  C   0.78932065594950     -0.18426423077266     -0.53623803172288
  C   -0.66364174314957      0.04576736102157     -0.12952058841841
  Cl  1.01769799858691     -0.04366296293751     -2.27288018418885
  H   -0.92735410520862      1.04882447324879     -0.47567761912996
  H   1.17099650358881     -1.14706268251309     -0.19985121898139
  N   1.61589819677585      0.85985056902844      0.17068986453593
  O   2.54914047485223      0.44424234817753      0.84646358210348
  O   1.27875106346953      2.02520980628655      0.01237061855051
  N   -0.72763475745703      0.01656867858278      1.31972997962810
  H   -1.51954781438622      0.54675830690733      1.65731227144603
  H   -0.80329169947295     -0.93152437118176      1.66661019006516
  C   -1.53381202602987     -0.93510882847425     -0.79977210842350
  N   -2.24752274751861     -1.74659846737375     -1.26023675546424
