13
Coordinates from ORCA-job run
  C   0.71481550033434      0.52692034673785     -0.37684088207941
  C   -0.60292219499174     -0.21342715748158     -0.14997053209710
  Cl  0.90539012657836      1.88316790763299      0.70991491655700
  H   -0.60939715682295     -1.04013211371450     -0.86623291117348
  H   0.74818675417551      0.87923738398106     -1.40655626167981
  N   1.84533185411151     -0.47838049925324     -0.23639438196592
  O   2.62019882124284     -0.40045201338239      0.70300944070228
  O   1.83792395980945     -1.32871437423201     -1.12272470743748
  N   -1.70334715913419      0.67456974652458     -0.47100809378508
  H   -2.56276306360704      0.14525810390190     -0.54945938845763
  H   -1.82493641502716      1.36522389077239      0.26031421649384
  C   -0.63901800091975     -0.78659466256545      1.21049643376164
  N   -0.72846302574918     -1.22567655892160      2.29645215116114
