13
Coordinates from ORCA-job run
  C   0.64988459764808      0.14224344728107     -0.75015492003874
  C   -0.81582214079570     -0.11801170651491     -0.31807616668844
  Cl  0.83201844294319      1.77350405516334     -1.37675045559672
  H   -1.39713489169995     -0.08035126607707     -1.24652522468461
  H   0.97139910073250     -0.56740857534730     -1.51048867274807
  N   1.57063658250361     -0.07398980006415      0.41953640738698
  O   1.45771669934697      0.69323479658985      1.37061398755834
  O   2.32317294956175     -1.04012801509461      0.34051037895946
  N   -1.42337292646593      0.78777238797076      0.62358426432118
  H   -1.52678537324944      1.70518523496050      0.20987422611687
  H   -0.85597301343690      0.87352218996921      1.45769556766331
  C   -0.88317122716092     -1.49714530771711      0.18887908239431
  N   -0.90356879992725     -2.59942744111958      0.59230152535614
