13
Coordinates from ORCA-job run
  C   0.74730367076190     -0.15102654075811     -0.51921192652069
  C   -0.75368769744735     -0.03774014400009     -0.20219313282350
  Cl  1.07677703781765      0.06614855234976     -2.23103034076075
  H   -1.10208385467220      0.89581621718919     -0.65391437795992
  H   1.17392466578907     -1.09698252717662     -0.18809049747249
  N   1.44661280941056      0.91910839967065      0.27469503381362
  O   2.31608995191723      0.54251085400468      1.05472689573710
  O   1.05491332051442      2.06944361237274      0.11172515549078
  N   -1.07621136420992     -0.01184392663325      1.20600405723679
  H   -0.69186365294793     -0.80207396897815      1.70751923845913
  H   -0.78409663255877      0.85383523840273      1.63853166598361
  C   -1.44085666847309     -1.16138174110336     -0.85137021519749
  N   -1.96782158590158     -2.08581402534016     -1.34639155598619
