13
Coordinates from ORCA-job run
  C   0.69899553422495      0.44258172854296     -0.49567542319806
  C   -0.60394786373016     -0.24388900233621     -0.08657251248153
  Cl  0.89957744453856      1.99467314189393      0.28316321712950
  H   -0.61721142435902     -1.20087671885817     -0.61598372160655
  H   0.70311861163741      0.57475750658115     -1.57645949374493
  N   1.84459657946718     -0.50468991940684     -0.18132414973357
  O   2.64314918224021     -0.22821285022286      0.69871964129835
  O   1.82464802140854     -1.52038930774010     -0.87167589981603
  N   -1.72244855695794      0.55044106468068     -0.55601913901546
  H   -1.83460493723037      1.37728742547324      0.01852887824634
  H   -2.57702431916907      0.01051068996822     -0.50001779819773
  C   -0.59999081091969     -0.52269732147710      1.36362291588082
  N   -0.65685746115061     -0.72949643709891      2.51869348523884
