13
Coordinates from ORCA-job run
  C   0.70142795001312      0.53360819570398      0.00743602740397
  C   -0.69259332666873     -0.10275597297540     -0.18835756777591
  Cl  1.04002419971819      0.87971779371417      1.68656167613665
  H   -0.78430313157798     -0.29423002099967     -1.26246405310284
  H   0.76906090938084      1.45499395581782     -0.57142810204880
  N   1.73110927965655     -0.39823339161582     -0.60485752933997
  O   1.64187756065857     -0.46189665245375     -1.82886885116458
  O   2.49991367928068     -1.01689555894431      0.11258853318789
  N   -1.80975882250032      0.71169518099029      0.22625524032496
  H   -1.73132842483817      0.97449811636228      1.20043138396279
  H   -1.88151121219532      1.54478265369249     -0.34355890957290
  C   -0.73118744369011     -1.39796494763137      0.50382213229773
  N   -0.75373121723732     -2.42931935166069      1.06344001969101
