13
Coordinates from ORCA-job run
  C   0.67353339818106      0.49697851296731     -0.27622933968976
  C   -0.67325707105498     -0.24334866860559     -0.11862215239342
  Cl  0.88248750289617      1.75144698486072      0.92169993324940
  H   -0.68370485260189     -1.01144280259506     -0.89900046539743
  H   0.73818021130726      0.93516214054254     -1.27230306165789
  N   1.78368579127617     -0.53636143837304     -0.22422448940487
  O   1.78115334028268     -1.28189440750355     -1.20107757821448
  O   2.52991302594628     -0.58516406274755      0.73976281978391
  N   -1.85273373134350      0.57548723225773     -0.26805973995636
  H   -1.91985533420073      0.94537343426850     -1.20788691207251
  H   -1.85529199531622      1.33946508314080      0.39586049203625
  C   -0.69692316240180     -0.92426622328754      1.18306970922996
  N   -0.70818712297048     -1.46043578492526      2.22701078448719
