13
Coordinates from ORCA-job run
  C   0.65369258557240      0.17527591422203     -0.73967334465419
  C   -0.81227423679891     -0.11516945554176     -0.32920090152954
  Cl  0.82335653094731      1.82930972732226     -1.30786337755528
  H   -1.38621770378241     -0.05136971814050     -1.26083569082462
  H   0.98845126202704     -0.50369799792853     -1.52200268221295
  N   1.56869252985189     -0.07151994760321      0.42863471760005
  O   2.33430632760626     -1.02445067196842      0.32051686081389
  O   1.43841547773177      0.65884096148936      1.40613713304072
  N   -1.43768732031359      0.75067835850267      0.63813355699029
  H   -1.54183127094416      1.68250207001965      0.25789308663038
  H   -0.88078383747636      0.80871237760895      1.48168340773243
  C   -0.86912421257186     -1.51138552400770      0.12976030592938
  N   -0.88099613184939     -2.62672609397480      0.49581692803942
