13
Coordinates from ORCA-job run
  C   0.63836315336031     -0.02964518465443      0.34668430169297
  C   -0.87408393924362     -0.31458455776958      0.19658263405547
  Br  1.32763900638766     -0.93037859770029      1.91031943948166
  H   -1.35773362568393      0.01702313437582      1.12203942600240
  C   1.38385971330620     -0.41523381101419     -0.83622197492077
  N   1.95224481978498     -0.75861554027674     -1.80775150447058
  N   0.80915225932521      1.48806522030864      0.58999676181266
  O   -0.06584137587743      2.01082377763968      1.26381670228964
  O   1.81207477601798      2.00286535482446      0.12466165315448
  C   -1.10682238991966     -1.74585055074995     -0.00112463737985
  N   -1.30192681434457     -2.89338197691529     -0.15802150768583
  C   -1.40607463959876      0.46559118329568     -0.92570615066036
  N   -1.81185094351436      1.10432154863621     -1.82427514337191
