13
Coordinates from ORCA-job run
  C   0.67938806022583      0.02627011136804      0.25703780439303
  C   -0.80096040188532     -0.42020313289035      0.29043227655436
  Br  1.66803919737848     -0.86415045602477      1.65759756352632
  H   -1.18386625287177     -0.19260949311085      1.29133199817655
  C   1.29165771846914     -0.21852345309324     -1.03499588394342
  N   1.75805413311761     -0.45449028877268     -2.08926342874664
  N   0.72065360850135      1.53987031896032      0.56842241939953
  O   1.58708257555938      2.18682748223598      0.00413883485030
  O   -0.10022704617221      1.92757320263026      1.38616422794206
  C   -0.90670542512984     -1.85676914705039      0.03147400524104
  N   -0.99940311545325     -3.00967205632222     -0.17274299696524
  C   -1.56228174013338      0.35038471938837     -0.69848631995068
  N   -2.15243131160604      0.98449219268154     -1.49211050047719
