13
Coordinates from ORCA-job run
  C   0.76587003715184     -0.06466237885893      0.03749540588985
  C   -0.61578694097061     -0.73864892679908     -0.13778658851066
  Br  1.89478123589008     -1.13820022181428      1.17973289792784
  H   -0.42298743480127     -1.67533660484553     -0.67806829508415
  C   1.40186609903417      0.12387467136859     -1.25585320763086
  N   1.88358141909950      0.24445089037135     -2.32252867366930
  N   0.61725463332473      1.32327847410205      0.70141557169580
  O   -0.44851605002066      1.54256510063617      1.25709554595157
  O   1.59355510782225      2.04905653283572      0.62163109624593
  C   -1.47831392680621      0.10119123118571     -0.97541145893615
  N   -2.14953482950311      0.75928548735197     -1.67964339200414
  C   -1.25872385069068     -1.08317602875567      1.13255138997339
  N   -1.78304549953001     -1.44367822677805      2.11936970815087
