13
Coordinates from ORCA-job run
  C   0.71830901013145     -0.04148268108694     -0.10085347453575
  C   -0.70327612669809     -0.63818938896860      0.01869465005922
  Br  1.96648042051376     -1.41400239514606     -0.63992793595597
  H   -0.64659704251333     -1.46587480008970      0.73421552842737
  C   0.76222479299170      1.07835324411318     -1.02184845027571
  N   0.76040647949205      1.96664799461443     -1.79365474098813
  N   1.14949107205242      0.43186624739578      1.30660494878094
  O   0.76791826221263     -0.26824394826208      2.23235235467096
  O   1.85560795640942      1.42509504969844      1.35263417349071
  C   -1.15917927092968     -1.13420079008063     -1.28062265001489
  N   -1.52913392233110     -1.53909883637025     -2.31923287300730
  C   -1.61582700343662      0.38370998024887      0.54231492939547
  N   -2.32542462789459      1.21642032393351      0.97032353995308
