13
Coordinates from ORCA-job run
  C   0.71917174281752     -0.04613406069666     -0.09559244018924
  C   -0.70215094544047     -0.63803048713948      0.04978553614625
  Br  1.97252557366503     -1.44419976427529     -0.54977136376557
  H   -0.64737781712399     -1.42489386887997      0.81012415001951
  C   0.76687183099394      1.02053796169480     -1.07725257225777
  N   0.77625000258712      1.87306031025926     -1.88833925581766
  N   1.13980067695491      0.50601548421493      1.28648820259569
  O   0.76067744049074     -0.14802005475995      2.24643078169293
  O   1.83466863020981      1.50831131951534      1.28372230500532
  C   -1.15108739714750     -1.20642881442402     -1.22193234177899
  N   -1.51463589958888     -1.67539673112266     -2.23555361513781
  C   -1.61880077571944      0.40976301981168      0.51144145060413
  N   -2.33491306269878      1.26441568580207      0.88144916288324
