13
Coordinates from ORCA-job run
  C   0.70893599246167     -0.08763840119689      0.13559271449631
  C   -0.79300587803332     -0.38596330320045      0.35180061728370
  Br  1.78091534143727     -1.31147265001297      1.17745298429335
  H   -0.98506882121955     -0.30913162229514      1.42767235310711
  C   1.07952558234734     -0.15044268644256     -1.26541234811678
  N   1.34249980107776     -0.23345715516421     -2.40939706703747
  N   0.98853116662654      1.33232508324227      0.67963547500046
  O   0.36117173187399      1.64014669682445      1.68188313248768
  O   1.82930375465701      1.98600307034444      0.08526697399591
  C   -1.11841157075541     -1.73355153768777     -0.11710625225109
  N   -1.38639422676436     -2.81516082127670     -0.48835313551493
  C   -1.59370295635942      0.62358369205822     -0.34889047366036
  N   -2.21529991734944      1.44675963480731     -0.91114497408393
