13
Coordinates from ORCA-job run
  C   0.76082097604785     -0.11062683476767      0.04745502684398
  C   -0.65173942364763     -0.69412978282060     -0.19478852230791
  Br  1.80333220263464     -1.31548282435833      1.14021795330791
  H   -0.49889578618894     -1.60407174651374     -0.79064582343001
  C   1.43367523463079      0.12072984164986     -1.22001730265381
  N   1.94251267604282      0.27844442079149     -2.26913107902361
  N   0.67531393069349      1.23939749277980      0.79435730934566
  O   -0.38913140339197      1.48588329758418      1.34118905771940
  O   1.69294701769940      1.91078070249157      0.77993038738451
  C   -1.44907046869631      0.24320371740239     -0.99299702061468
  N   -2.06800433099641      0.97935670658985     -1.66729421085904
  C   -1.33989109661944     -1.07941568718465      1.03946577428648
  N   -1.91186952820829     -1.45606930364414      1.99325845000107
