13
Coordinates from ORCA-job run
  C   0.68049301991625      0.03476782049590      0.25461397024255
  C   -0.78085696575632     -0.47116724056166      0.26363898676764
  Br  1.71477806949638     -0.91331844557641      1.58240803700292
  H   -1.16402940287767     -0.33143058818818      1.28045745031687
  C   1.29154110971978     -0.09245983461815     -1.05482308466461
  N   1.75722992056225     -0.23469615900093     -2.12609821259964
  N   0.66467324049080      1.52299567038090      0.67351223414209
  O   -0.16324373514640      1.81773084937173      1.52232054260761
  O   1.49898432231972      2.24303258963176      0.15103842122291
  C   -0.83253360457640     -1.88875993582146     -0.09669568294732
  N   -0.88313745391869     -3.02707117236437     -0.38160662451911
  C   -1.57985255966408      0.33732747244696     -0.66319595905665
  N   -2.20204596056563      1.00204897380392     -1.40557007851527
