13
Coordinates from ORCA-job run
  C   0.69482270920667     -0.08999926028318      0.02989117613746
  C   -0.83384872173640     -0.09965772861964     -0.24518667095073
  Br  1.30059454293292     -1.76082856920636      0.73562340713108
  H   -1.08466435402494      0.89440513662529     -0.63723216493631
  C   1.42083461936515      0.25118779987467     -1.18209277572880
  N   1.98664474477188      0.52794969818004     -2.17594696243120
  N   0.91584024493491      1.07699742001519      1.04660373059665
  O   0.53694106940173      2.15608048238417      0.61074735648321
  O   1.40267691106843      0.82870378447645      2.13108220883422
  C   -1.57246187352351     -0.31229215186167      1.00172207090364
  N   -2.15992087775632     -0.46287094646832      2.00771157891411
  C   -1.16910791850277     -1.10842425721351     -1.24992961955988
  N   -1.44035109613777     -1.90125140790310     -2.07299333539343
