14

C	-0.386588	-0.023519	-1.465099
C	0.0	0.0	0.0
Br	-2.388148	-0.005564	-1.713753
H	1.095988	0.0	0.0
H	-0.335391	0.917904	0.489082
C	0.070723	1.20373	-2.112929
N	0.433834	2.194408	-2.631233
C	0.186025	-1.247219	-2.158016
H	-0.235777	-2.150465	-1.714306
H	-0.02915	-1.232977	-3.227492
H	1.26886	-1.229337	-1.978809
C	-0.493239	-1.160549	0.715455
N	-0.876464	-2.117169	1.281787
H	2.667175	0.0	0.0
