14

C	-0.539593	-0.022324	-1.429375
C	0.0	0.0	0.0
Br	0.154326	1.578493	-2.358296
H	1.092803	0.0	0.0
H	-0.324927	0.929478	0.480723
C	-0.062342	-1.190158	-2.170577
N	0.208112	-2.150141	-2.792461
C	-2.064968	0.031266	-1.506186
H	-2.420914	0.923443	-0.988168
H	-2.402205	0.063501	-2.544468
H	-2.481326	-0.854492	-1.019212
C	-0.511626	-1.135305	0.748694
N	-0.923691	-2.056807	1.353056
H	2.694866	0.0	0.0
