14

C	-0.536128	-0.022749	-1.430246
C	0.0	0.0	0.0
Br	0.185701	1.518842	-2.430808
H	1.092701	0.0	0.0
H	-0.301473	-0.934169	0.491062
C	-0.064348	-1.235175	-2.103209
N	0.204174	-2.247427	-2.638061
C	-2.05889	0.046926	-1.522439
H	-2.408139	0.970708	-1.059035
H	-2.388628	0.020092	-2.562974
H	-2.488606	-0.80481	-0.986278
C	-0.52904	1.123491	0.751149
N	-0.945146	2.039387	1.360533
H	2.684545	0.0	0.0
