14

C	-0.378349	-0.051797	-1.466549
C	0.0	0.0	0.0
Br	-2.348063	-0.412302	-1.710286
H	1.095824	0.0	0.0
H	-0.302312	-0.937094	0.476894
C	-0.145614	1.229734	-2.127337
N	0.061537	2.258603	-2.658685
C	0.413195	-1.158718	-2.141453
H	0.239451	-1.181027	-3.218893
H	1.472622	-0.96521	-1.912144
H	0.132867	-2.121743	-1.708868
C	-0.554231	1.124176	0.726809
N	-0.981412	2.036745	1.332453
H	2.69299	0.0	0.0
