14

C	-0.356761	-0.043714	-1.475433
C	0.0	0.0	0.0
Br	-2.343633	-0.158249	-1.779328
H	1.095854	0.0	0.0
H	-0.354247	0.916348	0.477921
C	0.03817	1.214992	-2.107193
N	0.33538	2.233048	-2.614759
C	0.322625	-1.224524	-2.148072
H	1.392511	-1.134661	-1.912986
H	-0.058452	-2.15622	-1.725708
H	0.156799	-1.218894	-3.226336
C	-0.484613	-1.164678	0.714513
N	-0.857858	-2.123733	1.283055
H	2.679767	0.0	0.0
