19

C	-0.534718	0.012584	-1.376431
C	0.0	0.0	0.0
Br	-2.507136	0.063975	-1.471855
H	1.091805	0.0	0.0
N	-0.015296	1.198162	-2.233289
O	0.984422	1.766042	-1.811899
O	-0.596741	1.429062	-3.288163
N	-0.068115	-1.19816	-2.227375
O	0.97274	-1.727117	-1.861194
O	-0.721797	-1.486823	-3.223759
C	-0.415745	-1.251681	0.768037
H	-1.481851	-1.258522	1.022101
H	-0.170958	-2.167685	0.229474
H	0.168483	-1.266383	1.690963
C	-0.405728	1.243234	0.788094
H	-0.179132	2.165011	0.251741
H	0.198789	1.252863	1.697806
H	-1.466269	1.241133	1.064024
F	2.554816	0.0	0.0
