19

C	-0.370483	0.000661	-1.43851
C	0.0	0.0	0.0
Br	-2.277709	0.369491	-1.823615
H	1.094832	0.0	0.0
N	0.392509	1.019162	-2.301804
O	0.307575	0.853569	-3.513903
O	1.006493	1.904309	-1.730224
N	0.000298	-1.345682	-2.06321
O	1.193446	-1.475373	-2.296609
O	-0.869508	-2.196175	-2.194036
C	-0.458134	-1.279257	0.690729
H	-1.539157	-1.445324	0.607089
H	-0.199753	-1.197738	1.749584
H	0.067085	-2.154237	0.302934
C	-0.491257	1.227088	0.756916
H	0.046475	1.262977	1.708191
H	-0.271567	2.151236	0.225243
H	-1.567442	1.178482	0.96008
F	2.558567	0.0	0.0
