19

C	-0.38298	-0.008064	-1.450014
C	0.0	0.0	0.0
Br	0.43927	1.433518	-2.44701
H	1.094223	0.0	0.0
N	0.015428	-1.278342	-2.214691
O	-0.564088	-1.466256	-3.279374
O	0.91343	-1.96076	-1.746097
N	-1.902908	0.059221	-1.615803
O	-2.486161	-0.996686	-1.377204
O	-2.438384	1.141315	-1.823202
C	-0.478481	-1.222789	0.781041
H	-1.558962	-1.218143	0.964019
H	0.03981	-1.203451	1.743333
H	-0.209264	-2.157371	0.292704
C	-0.473163	1.275478	0.687814
H	-1.567522	1.343982	0.749948
H	-0.074847	1.271611	1.705446
H	-0.0968	2.170592	0.192265
F	2.564034	0.0	0.0
