19

C	-0.393221	-0.003842	-1.430068
C	0.0	0.0	0.0
Br	-2.298894	-0.39424	-1.795162
H	1.09484	0.0	0.0
N	-0.045044	1.350798	-2.052597
O	1.143504	1.498136	-2.300218
O	-0.927096	2.192375	-2.16244
N	0.360816	-1.020914	-2.301994
O	0.940769	-1.933604	-1.736743
O	0.29051	-0.839649	-3.512463
C	-0.490381	-1.214675	0.776731
H	-0.314041	-2.145335	0.240408
H	-1.556289	-1.141797	1.025349
H	0.086888	-1.259205	1.704339
C	-0.42878	1.288639	0.693901
H	0.118018	2.148709	0.302391
H	-1.506216	1.483954	0.623257
H	-0.159547	1.198305	1.749325
F	2.547748	0.0	0.0
