19

C	-0.339088	-0.001447	-1.458896
C	0.0	0.0	0.0
Br	0.632841	1.357391	-2.432083
H	1.09618	0.0	0.0
N	0.014079	-1.374651	-2.052739
O	1.189816	-1.605227	-2.277016
O	-0.925288	-2.164635	-2.16124
N	-1.830904	0.153323	-1.854304
O	-2.652303	0.075825	-0.945575
O	-2.096257	0.300831	-3.040443
C	-0.430616	-1.271188	0.726843
H	-0.084788	-1.181828	1.7601
H	-1.512211	-1.435914	0.728192
H	0.068859	-2.149814	0.31235
C	-0.460666	1.259409	0.721597
H	0.066682	1.297538	1.678678
H	-1.539029	1.275421	0.908715
H	-0.18144	2.160325	0.171344
F	2.575125	0.0	0.0
