17

C	-0.226427	0.038816	-1.489558
C	0.0	0.0	0.0
Cl	-1.921193	0.01959	-2.116586
H	1.092965	0.0	0.0
C	0.40069	1.248275	-2.020385
N	0.812275	2.262701	-2.447194
N	0.460449	-1.164615	-2.162521
O	0.367614	-2.23119	-1.577543
O	0.98661	-0.965278	-3.249614
N	-0.560445	-1.204524	0.667117
O	0.180563	-1.81199	1.434514
O	-1.752738	-1.468457	0.489038
C	-0.537508	1.217926	0.722041
H	-1.619432	1.331603	0.60432
H	-0.024756	2.110439	0.361417
H	-0.298247	1.113055	1.783404
F	2.49826	0.0	0.0
