17

C	-0.562469	-0.013155	-1.402017
C	0.0	0.0	0.0
Cl	-2.348686	-0.157259	-1.435661
H	1.093117	0.0	0.0
C	-0.209646	1.223034	-2.097776
N	0.007798	2.229435	-2.665161
N	0.046537	-1.147023	-2.292201
O	1.239384	-0.99876	-2.497709
O	-0.683313	-2.022521	-2.718702
N	-0.406035	-1.231836	0.697168
O	-0.322145	-2.287739	0.064327
O	-0.744	-1.160747	1.881808
C	-0.397085	1.235392	0.778745
H	-1.476918	1.335179	0.922658
H	0.088615	1.186977	1.752286
H	-0.006071	2.113206	0.262222
F	2.46431	0.0	0.0
