17

C	-0.533379	0.048765	-1.413102
C	0.0	0.0	0.0
Cl	-2.315124	-0.131818	-1.493668
H	1.093282	0.0	0.0
C	-0.193913	1.326979	-2.03508
N	0.010068	2.362981	-2.551251
N	0.11711	-1.025797	-2.34504
O	-0.573245	-1.933748	-2.771698
O	1.295193	-0.808388	-2.573036
N	-0.413526	-1.270969	0.623913
O	-0.886095	-1.253326	1.763998
O	-0.208049	-2.299866	-0.024721
C	-0.428482	1.1918	0.826017
H	-1.512351	1.285974	0.931595
H	0.014415	1.090186	1.815482
H	-0.015438	2.094915	0.374138
F	2.470499	0.0	0.0
