17

C	-0.359338	-0.204798	-1.456037
C	0.0	0.0	0.0
Cl	-0.215946	1.329044	-2.363873
H	1.107833	0.0	0.0
C	0.495848	-1.181449	-2.129316
N	1.166443	-1.927582	-2.739585
N	-1.830776	-0.636678	-1.677539
O	-2.64528	-0.17289	-0.891198
O	-2.07591	-1.344133	-2.643258
N	-0.416391	-1.196093	0.734295
O	-0.455106	-1.148928	1.962553
O	-0.654019	-2.220656	0.079001
C	-0.419561	1.270257	0.701669
H	-1.50289	1.408366	0.744314
H	-0.017482	1.220712	1.712552
H	0.04894	2.121868	0.209276
F	2.460696	0.0	0.0
