17

C	-0.44578	0.133174	-1.42521
C	0.0	0.0	0.0
Cl	-2.220265	0.329479	-1.640519
H	1.102413	0.0	0.0
C	0.191726	1.301103	-2.033336
N	0.662993	2.244917	-2.55073
N	0.022631	-1.057191	-2.322071
O	0.969741	-1.69817	-1.909307
O	-0.544745	-1.177935	-3.399209
N	-0.530023	-1.221234	0.614261
O	-1.066661	-2.073013	-0.104147
O	-0.384159	-1.344478	1.831539
C	-0.334812	1.213565	0.849358
H	-1.411626	1.373663	0.967681
H	0.122039	2.096487	0.399417
H	0.125843	1.070419	1.825067
F	2.460843	0.0	0.0
