11
Coordinates from ORCA-job run
  C   -0.65503190657701      0.23759859287683     -0.13077554703630
  C   0.81892752311088     -0.14082643695814      0.08715041376022
  Cl  -0.98839355627050      1.71660696132671      0.81912041938458
  H   1.00901840019668     -1.09608337311335     -0.41284961143320
  H   -0.81585291461925      0.50026712879219     -1.17773492894405
  H   0.99902029855269     -0.27808975989168      1.15729444911554
  N   -1.59918806310052     -0.77942141659885      0.23310854933287
  H   -1.57135325084329     -1.54823993640254     -0.42452350056425
  H   -1.42992660629773     -1.12359216813667      1.16991108400647
  C   1.74876374311993      0.85644485448647     -0.43695827129519
  N   2.48301633272812      1.65433555361901     -0.88474305632668
