11
Coordinates from ORCA-job run
  C   -0.74218819869268      0.16862177605804     -0.23265463230302
  C   0.69246066557161      0.39920186587348     -0.69822125787537
  Cl  -1.19172747888965      1.55502799975147      0.88825884358847
  H   0.90770648174336     -0.31337487713799     -1.49951915801387
  H   -1.41666348396373      0.28600359663977     -1.08053365005134
  H   0.80537816882747      1.41224228055862     -1.08762259012429
  N   -0.89752525167738     -1.11868582600675      0.32737067914641
  H   -1.86152890941908     -1.31340772168301      0.56162376916707
  H   -0.32464566807092     -1.24214609121437      1.15395441057868
  C   1.64411040852221      0.18596082549271      0.38987229360631
  N   2.38462326604880     -0.01844382833196      1.27647129228093
