11
Coordinates from ORCA-job run
  C   -0.68270850774840      0.07847821442691     -0.23960281666768
  C   0.71286389207082      0.68816136972442     -0.14250059880705
  Cl  -1.86263160306128      1.46424718035609      0.04670703475240
  H   0.87706094360543      1.06181150798876      0.87293624535666
  H   -0.89167557258567     -0.24215810527947     -1.25950055835086
  H   0.79406077048588      1.54283090333409     -0.81694280582877
  N   -0.83054134726025     -1.01083111276319      0.64281349083554
  H   -1.71569451603583     -1.48430493220082      0.52602223372711
  H   -0.71957419237840     -0.73712807385003      1.61067256951055
  C   1.74339865713560     -0.29356731060522     -0.47640633047238
  N   2.57644147577210     -1.06753964113154     -0.76419846405553
