11
Coordinates from ORCA-job run
  C   -0.78374113720354      0.21057311413657     -0.19206244695922
  C   0.66749464785649      0.71613692387365     -0.11327907502650
  Cl  -1.82967144611569      1.59212919886723      0.27091616574270
  H   0.81565559677979      1.57451275751289     -0.77341109759650
  H   -1.02905335104775     -0.02646683864865     -1.22854946078586
  H   0.88147717711982      1.04238359483415      0.90879928562854
  N   -1.10042446613232     -0.92529682300035      0.61725370375124
  H   -0.70063092614307     -1.76917077992196      0.22711695815232
  H   -0.78404427010927     -0.80616747099614      1.57135255515370
  C   1.58588466250071     -0.35765074241699     -0.48576991622896
  N   2.27605351249484     -1.25298293424040     -0.80136667183145
