11
Coordinates from ORCA-job run
  C   -0.80815225526280      0.26984803743851     -0.14139428232473
  C   0.62913553289500      0.37541682798947     -0.68251744804601
  Cl  -1.10298765601372      1.68790637589401      0.91170066429086
  H   0.79918586745412      1.35310689632860     -1.13954982444644
  H   -1.49635626708555      0.36502034787575     -0.98358383413366
  H   0.76650263341863     -0.38864306324425     -1.45530056917771
  N   -1.13057537557965     -0.92573412597375      0.57784688997158
  H   -0.47392448989652     -1.09339018596401      1.33087703226316
  H   -1.15274197435235     -1.72525560635416     -0.04222658669090
  C   1.60913108809299      0.14841776401063      0.37579444329769
  N   2.36278289632984     -0.06869326800082      1.24835351499615
