11
Coordinates from ORCA-job run
  C   -0.73230144074574      0.24697725808916     -0.05252522871913
  C   0.65761352858212      0.39383948296559     -0.66233139453642
  Cl  -1.00344843870569      1.54708897944117      1.14170111565074
  H   0.77372383674203     -0.34618486023183     -1.46253309534597
  H   -1.47095823837712      0.43316908050993     -0.84216231404087
  H   0.75547440417738      1.38333452578522     -1.11487486818825
  N   -0.84752599236331     -1.02276215898761      0.61523894979425
  H   -0.70800342176096     -1.77772115381171     -0.04667255001400
  H   -1.76264096779588     -1.12481821552334      1.03572387100186
  C   1.72629856492426      0.20386966700498      0.31639141517092
  N   2.61176816532291      0.06320739475845      1.07204409922687
