11
Coordinates from ORCA-job run
  C   -0.57877018974103      0.11704485126228      0.18430739319147
  C   0.89013320499781     -0.07057248679813     -0.18468210289978
  Cl  -0.69128322000082      0.92811086450351      1.76890051113069
  H   0.95647525834197     -0.68482107149596     -1.08907229413569
  H   -1.05776379567640      0.80481100891974     -0.52224760897654
  H   1.38257793751691     -0.61270579575586      0.62521674422611
  N   -1.19388923266074     -1.18697146616263      0.29027866299443
  H   -1.24522643701923     -1.61036063937359     -0.63005522025304
  H   -2.13762048398364     -1.09875959497020      0.64714323345853
  C   1.57111367430811      1.19700169021024     -0.43291254753385
  N   2.10325328391705      2.21822263966062     -0.65587677120236
