11
Coordinates from ORCA-job run
  C   -0.81428288636186      0.24276867298538     -0.15848282068091
  C   0.63288329678746      0.41945233768578     -0.65255966422362
  Cl  -1.19547516787663      1.61625222124012      0.92510705708550
  H   0.82282864280562     -0.31584356630917     -1.44197214057751
  H   -1.48087496829445      0.33597039355512     -1.01811281623248
  H   0.77762980389618      1.41591705390985     -1.07658118252050
  N   -1.11018946024135     -0.98497842996347      0.51692874325360
  H   -0.47325561752023     -1.14568951860716      1.28818554201395
  H   -1.07616982625706     -1.76712866024279     -0.12444173472251
  C   1.59002730985781      0.19918969916720      0.42782065780386
  N   2.32687887320450     -0.01591020342085      1.31510835880063
