11
Coordinates from ORCA-job run
  C   -0.81067752179999      0.26434163647530     -0.14427958390072
  C   0.63494427117982      0.42121133144289     -0.64828201133871
  Cl  -1.15055544183586      1.61922228055470      0.97629761358350
  H   0.80261661816288     -0.30079337777433     -1.45486678203439
  H   -1.48353308632331      0.39400327965944     -0.99420987359728
  H   0.79563576747719      1.42347180354321     -1.05242032522554
  N   -1.12754744617688     -0.97255741438203      0.50439871927326
  H   -0.48776209249978     -1.16553462113516      1.26580547417830
  H   -1.11603577687152     -1.73967540171014     -0.15565155277144
  C   1.59855621639602      0.15672386427657      0.41653401420800
  N   2.34235849229144     -0.10041338095046      1.28667430762500
