19

C	-0.306097	0.030823	-1.512073
C	0.0	0.0	0.0
F	-0.004614	-1.262055	-1.998824
H	1.096743	0.0	0.0
C	-1.758812	0.272486	-1.876277
H	-2.09225	1.248548	-1.516398
H	-2.394252	-0.500322	-1.434175
H	-1.87877	0.233092	-2.96272
C	0.670443	0.983156	-2.177009
H	0.640964	0.853462	-3.262599
H	1.661109	0.757504	-1.766246
H	0.415123	2.019767	-1.935558
C	-0.52629	-1.232216	0.727895
H	-0.094589	-2.118484	0.261751
H	-0.197727	-1.204774	1.769517
H	-1.619723	-1.313185	0.711841
C	-0.48333	1.224687	0.608911
N	-0.901113	2.210878	1.09756
F	2.637244	0.0	0.0
