19

C	-0.317758	-0.067258	-1.502544
C	0.0	0.0	0.0
F	-0.057941	1.218272	-2.021085
H	1.096685	0.0	0.0
C	0.679377	-0.997981	-2.172024
H	1.66221	-0.775346	-1.739983
H	0.427316	-2.046059	-1.984219
H	0.667442	-0.82518	-3.252198
C	-1.766501	-0.353695	-1.843302
H	-2.056175	-1.356214	-1.525847
H	-2.415328	0.374298	-1.352361
H	-1.910763	-0.274743	-2.924581
C	-0.402156	-1.267101	0.759933
H	-0.069804	-1.178904	1.796819
H	0.121874	-2.123723	0.329117
H	-1.480802	-1.460721	0.757824
C	-0.602112	1.169459	0.608791
N	-1.134029	2.080198	1.129888
F	2.638171	0.0	0.0
