19

C	-0.162983	-0.020894	-1.522058
C	0.0	0.0	0.0
F	-1.528815	-0.067001	-1.904828
H	1.097268	0.0	0.0
C	0.468355	1.232924	-2.097125
H	-0.077642	2.122849	-1.778078
H	0.475364	1.196206	-3.190134
H	1.489567	1.265148	-1.706604
C	0.537743	-1.249703	-2.070089
H	1.543177	-1.245323	-1.639142
H	0.007923	-2.162858	-1.78991
H	0.587165	-1.201859	-3.161474
C	-0.541064	-1.231333	0.724291
H	-1.585939	-1.431843	0.463965
H	0.067948	-2.101929	0.476301
H	-0.473994	-1.087087	1.806088
C	-0.547682	1.213711	0.578743
N	-1.010511	2.171865	1.080298
F	2.652313	0.0	0.0
