19

C	-0.307102	0.044028	-1.512745
C	0.0	0.0	0.0
F	-0.047	-1.256487	-2.002663
H	1.096791	0.0	0.0
C	-1.751805	0.335885	-1.875027
H	-2.038515	1.335234	-1.542383
H	-2.419029	-0.393886	-1.408457
H	-1.87945	0.272549	-2.959505
C	0.697066	0.96817	-2.177637
H	1.683186	0.713939	-1.770273
H	0.474961	2.010569	-1.92863
H	0.658614	0.845946	-3.264337
C	-0.526297	-1.240411	0.714911
H	-1.615619	-1.345667	0.656184
H	-0.240284	-1.201099	1.768612
H	-0.05782	-2.117878	0.270719
C	-0.480635	1.220384	0.620771
N	-0.886702	2.205934	1.120462
F	2.641547	0.0	0.0
