19

C	-0.321466	-0.061338	-1.502921
C	0.0	0.0	0.0
F	-0.079964	1.231925	-2.014609
H	1.096661	0.0	0.0
C	0.684333	-0.978834	-2.180332
H	0.439649	-2.030706	-2.00513
H	0.673093	-0.796063	-3.259163
H	1.667025	-0.756346	-1.744476
C	-1.768353	-0.367421	-1.840029
H	-2.430541	0.342066	-1.336851
H	-1.918787	-0.277802	-2.91992
H	-2.037861	-1.381233	-1.534821
C	-0.406822	-1.264493	0.761189
H	-0.046309	-1.189288	1.789854
H	-1.488815	-1.43493	0.784992
H	0.086662	-2.129907	0.313233
C	-0.59342	1.173521	0.611279
N	-1.115995	2.10039	1.113714
F	2.641766	0.0	0.0
