15

C	-0.487871	0.084224	-1.430325
C	0.0	0.0	0.0
F	-0.250378	-1.150587	-2.067535
H	1.095093	0.0	0.0
H	-1.582189	0.218268	-1.472153
H	-0.353746	-0.946168	0.424693
C	0.21595	1.158236	-2.235954
H	1.296772	1.044583	-2.112528
H	-0.051027	1.068575	-3.292694
H	-0.075688	2.155367	-1.889592
C	-0.489422	1.174867	0.842095
H	-0.192097	1.034582	1.884194
H	-1.579892	1.293434	0.811631
H	-0.032072	2.109139	0.508339
H	3.220643	0.0	0.0
