18

C	0.0	0.0	0.0
C	-0.402915	-0.070069	-1.519742
Br	1.973435	0.0	0.0
H	0.495635	-0.36335	-2.071363
N	-0.560385	1.165502	0.601974
H	-0.386513	1.110787	1.603563
H	-1.595974	0.970856	0.471354
C	-0.364193	-1.292956	0.731284
H	0.050166	-2.179349	0.243659
H	-1.459134	-1.33141	0.737177
H	0.012419	-1.247111	1.757781
C	-0.885972	1.263138	-2.092816
H	-0.178399	2.054847	-1.843461
H	-0.972534	1.177003	-3.180762
H	-1.862359	1.498871	-1.669722
C	-1.351199	-1.149361	-1.839667
N	-1.90167	-2.080214	-2.303751
H	-2.949127	0.0	0.0
