18

C	0.0	0.0	0.0
C	-0.648583	0.048844	-1.367602
Br	2.037636	0.0	0.0
H	-1.765029	0.091912	-1.017564
N	-0.394198	1.154787	0.719024
H	-0.029201	1.148515	1.662004
H	-0.124207	2.011682	0.251901
C	-0.444195	-1.231452	0.753662
H	-0.060408	-2.14788	0.304312
H	-1.547205	-1.190137	0.72028
H	-0.10057	-1.185704	1.790697
C	-0.418648	-1.170846	-2.251386
H	-0.852832	-1.000624	-3.239696
H	-0.919212	-2.038175	-1.816596
H	0.647907	-1.385838	-2.369625
C	-0.32154	1.279482	-2.066207
N	-0.073573	2.281371	-2.632308
H	-3.131721	0.0	0.0
