18

C	0.0	0.0	0.0
C	-0.552807	-0.023876	-1.430552
Br	1.96801	0.0	0.0
H	-1.655553	0.03913	-1.224364
N	-0.494849	1.212468	0.595007
H	-0.265635	1.207911	1.586153
H	-1.527541	1.106169	0.520237
C	-0.422101	-1.254624	0.755752
H	-0.107634	-1.167309	1.799838
H	0.010038	-2.168777	0.343154
H	-1.519603	-1.272507	0.706288
C	-0.270682	-1.290449	-2.235467
H	-0.788114	-2.139354	-1.786651
H	-0.647949	-1.170359	-3.2537
H	0.800243	-1.502418	-2.285766
C	-0.147941	1.161382	-2.181069
N	0.13736	2.071589	-2.869415
H	-3.082581	0.0	0.0
