18

C	0.0	0.0	0.0
C	-0.256162	-0.029288	-1.556572
Br	1.967704	0.0	0.0
H	0.475506	0.665197	-1.979952
N	-0.537776	1.239934	0.498132
H	-1.565126	1.112608	0.441163
H	-0.316625	1.305308	1.488293
C	-0.50753	-1.22933	0.727894
H	-0.24871	-1.156799	1.789214
H	-1.603745	-1.210531	0.629736
H	-0.095249	-2.156778	0.326419
C	-1.633494	0.415642	-2.054732
H	-1.731244	1.49211	-1.893669
H	-1.702301	0.213118	-3.129202
H	-2.457997	-0.047833	-1.497499
C	0.079875	-1.350784	-2.095547
N	0.334225	-2.403654	-2.552161
H	-3.502037	0.0	0.0
