18

C	0.0	0.0	0.0
C	-0.238528	0.012581	-1.568598
Br	1.980888	0.0	0.0
H	0.469514	0.745963	-1.972654
N	-0.529586	1.146703	0.663919
H	-1.552098	1.005835	0.700794
H	-0.342223	1.989365	0.129712
C	-0.544309	-1.242109	0.665073
H	-0.306171	-1.20981	1.729806
H	-1.638148	-1.205467	0.546331
H	-0.139748	-2.153146	0.224094
C	-1.64238	0.4117	-2.03009
H	-1.740336	0.215823	-3.103543
H	-1.786913	1.481588	-1.862002
H	-2.442065	-0.073288	-1.452282
C	0.149533	-1.270891	-2.158313
N	0.44367	-2.287493	-2.670243
H	-3.54604	0.0	0.0
