15

C	0.0	0.0	0.0
C	-0.579633	0.205038	-1.409483
F	1.380052	0.0	0.0
H	-1.688343	0.22084	-1.237464
C	-0.392032	1.153314	0.838822
N	-0.569043	2.10541	1.502727
C	-0.457813	-1.312653	0.606323
H	-0.066732	-2.133714	0.001801
H	-1.547721	-1.340763	0.637421
H	-0.050064	-1.388819	1.615882
C	-0.230328	-0.912045	-2.28692
N	0.042757	-1.811125	-2.99157
C	-0.134187	1.464555	-2.004818
N	0.22548	2.472376	-2.488871
Cl	-3.520287	0.0	0.0
