15

C	0.0	0.0	0.0
C	-0.448165	0.146253	-1.494816
F	1.383673	0.0	0.0
H	0.508667	0.216299	-2.032005
C	-0.39252	1.172559	0.799458
N	-0.535281	2.136646	1.455012
C	-0.401593	-1.307385	0.657586
H	0.023047	-2.129427	0.075854
H	-1.485186	-1.386726	0.700361
H	0.029818	-1.323516	1.660477
C	-1.168339	1.379083	-1.82446
N	-1.56484	2.415203	-2.210011
C	-1.10547	-1.048693	-2.028413
N	-1.428395	-2.050218	-2.548875
Cl	-3.265116	0.0	0.0
