15

C	0.0	0.0	0.0
C	-0.572541	0.168721	-1.419768
F	1.380143	0.0	0.0
H	-1.68184	0.161982	-1.267701
C	-0.40486	1.166678	0.808387
N	-0.604772	2.13992	1.434007
C	-0.459339	-1.298686	0.631016
H	-1.548968	-1.324018	0.667942
H	-0.076313	-2.133359	0.039961
H	-0.044147	-1.359659	1.639644
C	-0.17892	-0.95136	-2.275999
N	0.131258	-1.843691	-2.974072
C	-0.149609	1.428081	-2.030299
N	0.206644	2.435309	-2.518211
Cl	-3.522553	0.0	0.0
