15

C	0.0	0.0	0.0
C	-0.566342	0.17607	-1.419563
F	1.380339	0.0	0.0
H	-1.676347	0.178742	-1.265628
C	-0.396604	1.168346	0.812372
N	-0.599592	2.140187	1.439799
C	-0.457456	-1.301857	0.627517
H	-0.044301	-1.363795	1.63603
H	-0.070506	-2.133677	0.034433
H	-1.546716	-1.323507	0.661913
C	-0.179931	-0.946436	-2.274352
N	0.120333	-1.848437	-2.964015
C	-0.131547	1.434951	-2.026962
N	0.218909	2.441127	-2.520946
Cl	-3.520793	0.0	0.0
