17

C	0.0	0.0	0.0
C	-0.496189	0.086372	-1.450936
Cl	1.832615	0.0	0.0
H	-1.584064	-0.058631	-1.345515
N	-0.454224	1.158629	0.70838
H	-0.526024	0.974354	1.699443
H	0.134735	1.963859	0.547283
N	-0.465615	-1.232962	0.549015
H	-0.162511	-1.321736	1.512897
H	-1.490365	-1.180325	0.526604
C	0.053214	-0.996585	-2.263853
N	0.46495	-1.823463	-2.989283
C	-0.261555	1.442228	-2.111909
H	-0.615774	1.414541	-3.143593
H	0.798901	1.708207	-2.116501
H	-0.838794	2.196181	-1.575923
Br	-3.802382	0.0	0.0
