17

C	0.0	0.0	0.0
C	-0.465936	-0.112102	-1.474177
Cl	1.80291	0.0	0.0
H	-1.555047	-0.247422	-1.399078
N	-0.429229	1.19785	0.67726
H	-0.105	2.028698	0.196305
H	-1.451673	1.17969	0.672074
N	-0.449145	-1.181066	0.676051
H	-0.244232	-1.059602	1.662955
H	-1.466874	-1.20452	0.577851
C	0.092757	-1.298205	-2.120941
N	0.501226	-2.233107	-2.703463
C	-0.193525	1.133154	-2.315356
H	0.868428	1.389687	-2.311896
H	-0.776582	1.971749	-1.931345
H	-0.505295	0.958978	-3.34711
Br	-3.70954	0.0	0.0
