17

C	0.0	0.0	0.0
C	-0.274049	0.548654	-1.430903
Cl	1.859169	0.0	0.0
H	0.266416	-0.128615	-2.099899
N	-0.533152	0.880838	0.976056
H	-1.540907	0.948378	0.827057
H	-0.362925	0.525829	1.908657
N	-0.452993	-1.357571	0.081666
H	0.272221	-2.047525	-0.034296
H	-1.010989	-1.527867	0.903979
C	0.310952	1.881668	-1.608969
N	0.740251	2.953649	-1.821353
C	-1.74345	0.560625	-1.839152
H	-2.198938	-0.406841	-1.640973
H	-1.814151	0.789547	-2.906622
H	-2.329833	1.299251	-1.29704
Br	-4.553126	0.0	0.0
