14
Coordinates from ORCA-job run
  C   -0.76079163698505     -0.08086912199433     -0.35555562266989
  C   0.77148476544342     -0.21039801876138     -0.39134294921271
  F   -1.15557815588994      0.33246003299457     -1.63514844509542
  H   1.01981756245236     -0.86645670133142     -1.23028008922586
  C   -1.37031344988420     -1.40160331111713     -0.12135823659520
  N   -1.90086643630439     -2.43843002054812      0.02162526392247
  N   -1.15249503627240      0.81982741863852      0.66095337676524
  H   -0.84774620775506      1.76176796145914      0.44031715124704
  H   -2.15305492902534      0.80987563755034      0.81109908600245
  N   1.21039668029404     -0.82214344926652      0.84144773554751
  H   2.20050182803423     -1.02755106359542      0.81522527291360
  H   1.01264065034637     -0.20950344789434      1.62284185886473
  C   1.33541387066558      1.12878635158914     -0.66748727675429
  N   1.79059049488036      2.20223773227697     -0.81233712570966
