14
Coordinates from ORCA-job run
  C   -0.60735941018305     -0.23399042620283      0.19244836870365
  C   0.77521313446255      0.39762825050377     -0.10893707550155
  F   -0.39523750692430     -1.46331272572342      0.77705962112809
  H   0.59108517265882      1.34830254957360     -0.62552907749109
  C   -1.37943008205061      0.59096646139631      1.14980017875955
  N   -2.02277783203711      1.29192361896429      1.83973901910369
  N   -1.28492089318871     -0.47538473360691     -1.05170166430252
  H   -1.58511608759389      0.39849403827013     -1.46931640283414
  H   -2.10644504364380     -1.04630918546498     -0.88419490899517
  N   1.61626459041118     -0.43469980925360     -0.94230146653623
  H   1.84861122681852     -1.28331617895461     -0.43883865072507
  H   1.08442031453726     -0.70187540215151     -1.76345531416247
  C   1.45958773968995      0.69653477497919      1.15417081138552
  N   2.00510467704319      0.91403876767057      2.17005656146772
