14
Coordinates from ORCA-job run
  C   -0.78868189577900     -0.22823900805832     -0.20972963899973
  C   0.72167331795569      0.03886620612150     -0.37503670615813
  F   -1.09219667898861     -1.28903931311660     -1.06359270919433
  H   0.86904824203497      0.21005944733923     -1.44779210394105
  C   -1.06625776750908     -0.68732217835944      1.16496541467059
  N   -1.24903012147093     -1.05802165320407      2.26353966765247
  N   -1.53645439727445      0.93524604207542     -0.48882558187488
  H   -2.52715923693968      0.79164818710540     -0.34183045547272
  H   -1.37238880718951      1.25953991030068     -1.43412808859122
  N   1.47879974840852     -1.13710572994828      0.00250409070798
  H   2.41003591149883     -1.09839313774785     -0.39069531696860
  H   1.56466344225845     -1.19782948626713      1.01068047803655
  C   1.09938204298544      1.26534477923058      0.35258123436687
  N   1.48856620000935      2.19424593452884      0.95735971576619
