14
Coordinates from ORCA-job run
  C   -0.71930129071234     -0.29976911759213     -0.46961101424006
  C   0.79661557043975     -0.17233334722602     -0.21756265201664
  F   -0.90020073096076     -0.68290278641139     -1.78245228953638
  H   1.24457139491802     -1.13882661969231     -0.48760897793934
  C   -1.22651694836751     -1.41626775555407      0.37370628899991
  N   -1.59697677695709     -2.25650285059149      1.10697546034195
  N   -1.34501736578444      0.94774196118714     -0.24240511785202
  H   -0.97018454609890      1.36500794736880      0.60166700669939
  H   -2.35203393816171      0.87145548455150     -0.18897038556440
  N   1.00137476281179      0.22724421451865      1.17208881617700
  H   0.95481281777464     -0.58690551351779      1.77441535362650
  H   1.91047193868796      0.65589917996611      1.29086249455277
  C   1.34864301047939      0.84234103337596     -1.11942453850919
  N   1.85374210193119      1.64381816961705     -1.81168044473950
