14
Coordinates from ORCA-job run
  C   -0.69671625268956     -0.19745411449126     -0.19718843935965
  C   0.80094955209859      0.16821642436870     -0.33583841937999
  F   -0.86164212608592     -1.33185760126351     -1.02446707395363
  H   0.93471474710567      0.45138266260394     -1.38852144920331
  C   -0.99018410167773     -0.64443577230601      1.17510856769682
  N   -1.18186998960693     -1.01751107721069      2.27154350292632
  N   -1.52532249824433      0.87546231423453     -0.55823599280688
  H   -1.33471266283170      1.20264064201510     -1.49661020210386
  H   -2.50909949907133      0.66945322411701     -0.44694392909428
  N   1.72605779843174     -0.90225254064873     -0.03946578679989
  H   1.48855726445386     -1.72031965786248     -0.58617460899727
  H   1.69671559973977     -1.14344751873318      0.94434579034032
  C   1.09775088771366      1.33749526033943      0.49747416961620
  N   1.35280128066422      2.25362775483716      1.18497387111908
