14
Coordinates from ORCA-job run
  C   -0.70499580505013     -0.22404477530560     -0.46347778317135
  C   0.81373164492829     -0.18973315223751     -0.22100935588031
  F   -0.94086765654195     -0.18232960874772     -1.81750501805427
  H   1.22423880279588     -1.14710341740633     -0.55659757386487
  C   -1.24159324212843     -1.51625223796797      0.03611694426897
  N   -1.68142892896132     -2.51990164585566      0.45889817394660
  N   -1.30950564211823      0.93284370502872      0.12415455160614
  H   -1.28489976288120      0.85007675478223      1.13388648528385
  H   -2.27644120610969      0.99890191965093     -0.17383609319137
  N   1.03666120188756     -0.04010908963872      1.20933514839572
  H   1.88214707871939     -0.51388224738059      1.49614790434790
  H   1.12704520015962      0.93942673538854      1.44922419352683
  C   1.41317889863050      0.87710610915599     -1.03876553445641
  N   1.94272941666972      1.73700095053369     -1.63757204275743
