14
Coordinates from ORCA-job run
  C   -0.71126849621131     -0.27185809222249     -0.26282759718264
  C   0.78860976535829      0.06038063477965     -0.31067595815201
  F   -0.87683611070412     -1.41024167996057     -1.03456911462946
  H   0.99198552361066      0.26764726033606     -1.37192730488849
  C   -1.12372931997416     -0.62760203297774      1.11631046438050
  N   -1.52510939379891     -0.83153684538954      2.20105544950563
  N   -1.47655543319404      0.76932581625852     -0.87002820165380
  H   -2.46264645601609      0.53622159266716     -0.84544556165063
  H   -1.34042241838300      1.65059816780920     -0.38818862989276
  N   1.52799569474720     -1.05041374415105      0.26193463261558
  H   2.50659547936474     -0.81379617081188      0.36377435564554
  H   1.45217501936573     -1.85159390623164     -0.35286939989260
  C   1.03477124551065      1.28716368490614      0.45094033136447
  N   1.21443490032437      2.28570531498819      1.04151653443067
