14
Coordinates from ORCA-job run
  C   -0.72785433977979     -0.24446204150654     -0.15369844431704
  C   0.75190298757826      0.15477585795759     -0.25948435222571
  F   -0.83713209622270     -1.40273796158602     -0.95810003187428
  H   0.90470302736556      0.44760254184593     -1.31272474911955
  C   -1.07720288059571     -0.65072783639147      1.21727354040716
  N   -1.40299343255531     -0.96672043113849      2.29941006717783
  N   -1.56691120338759      0.79918953233965     -0.58096004942234
  H   -2.54715398903504      0.58214281931497     -0.45834048456094
  H   -1.38073608350318      1.06166456578253     -1.54030438079358
  N   1.56893788006857     -0.96175090076077      0.18016405519729
  H   1.47924607286102     -1.72507601987110     -0.47825112300093
  H   2.54188487513930     -0.69055192020491      0.23978403529656
  C   1.01467018234539      1.32914398405163      0.57570140207117
  N   1.27863899972123      2.26650781016699      1.23053051516437
