14
Coordinates from ORCA-job run
  C   -0.79558224510838     -0.01579434219566     -0.28026251542234
  C   0.72306460634623     -0.10044965005578     -0.50943831038677
  F   -1.32762675175383      0.66436234402184     -1.38392699351695
  H   0.87584845387750     -0.54749013322421     -1.49577343417582
  C   -1.37935039163778     -1.36851706233506     -0.28409400777261
  N   -1.89454856482182     -2.42215390300007     -0.32195010155159
  N   -1.07022283612841      0.62586846033530      0.94876881730844
  H   -0.79029475570345      1.60007899584230      0.91357492170826
  H   -2.04742650436534      0.55909558590527      1.20199783837724
  N   1.29326439831322     -0.96171846226030      0.50033264481383
  H   2.27384696466348     -1.13467927734225      0.32175646731179
  H   1.18510066922379     -0.54251108344276      1.41552820009214
  C   1.25693031322779      1.27861804365988     -0.53834685677084
  N   1.69599664386700      2.36729048409149     -0.48816667001479
