14
Coordinates from ORCA-job run
  C   -0.83246177447287     -0.00163839311216     -0.43546537176241
  C   0.70502490462825     -0.18906048317513     -0.41264065620874
  F   -1.13455156946936      0.49671806500954     -1.68934636694475
  H   0.96391345954223     -0.89315826948269     -1.20881507240152
  C   -1.45881773357481     -1.33035020113771     -0.29062884086663
  N   -1.95194379562516     -2.39176411108095     -0.20794236619739
  N   -1.36738060674368      0.88188340505846      0.53947355558655
  H   -1.45057623045269      0.45546487701370      1.45073357685682
  H   -0.86375439454169      1.75952398574428      0.57878196409416
  N   1.07732954873679     -0.75187627829161      0.87237328994889
  H   1.92876379027981     -1.29195658706944      0.79989230566273
  H   1.22303240082525     -0.02314197964890      1.55894808205173
  C   1.33491099187837      1.10956656959180     -0.70789401722747
  N   1.82551100898955      2.16778940058082     -0.84847008259198
