14
Coordinates from ORCA-job run
  C   -0.70425800137443     -0.25997081461102     -0.21294671529189
  C   0.79562741769252      0.02608731264003     -0.46545795578652
  F   -0.98083665237696     -1.45426042967563     -0.85735732170279
  H   0.87696087853339      0.10221019902716     -1.55557325024802
  C   -0.92475754282764     -0.50771381189371      1.23440779018593
  N   -1.07827079431541     -0.64429481580389      2.39141789132672
  N   -1.52334710537157      0.74698153847513     -0.79552421472978
  H   -1.27866545729606      1.66986510457960     -0.45682601841806
  H   -2.50356033250055      0.57262104419165     -0.60781734260567
  N   1.70478139399703     -0.99288792096914      0.00389889344500
  H   1.67080535948650     -1.08075247418542      1.01270499889142
  H   1.46552435849393     -1.88309689788273     -0.41386569162979
  C   1.13322723690732      1.32828577806110      0.11823278379062
  N   1.34776924095191      2.37592618804686      0.60270615277283
