14
Coordinates from ORCA-job run
  C   -0.78197781711418      0.24170689348016     -0.30259999126507
  C   0.72303491900715     -0.02697102386043     -0.47378719723568
  F   -1.14397129949979      1.28350802348592     -1.12383934882394
  H   0.87172589922965     -0.45645297225241     -1.46927715188798
  C   -1.53919396016628     -0.95461157397824     -0.75253663928717
  N   -2.14917398557721     -1.90567004832559     -1.07363910942000
  N   -1.04695735264592      0.63362185147542      1.04856791590081
  H   -2.00184357785491      0.96607758585778      1.12470256435717
  H   -0.93200563198845     -0.16675662870762      1.65956767544179
  N   1.12543942819596     -0.99330573891647      0.53713578328745
  H   1.45491530668837     -0.51538786719575      1.36680598327114
  H   1.87161819700848     -1.58428370269471      0.19702997303604
  C   1.45446760708548      1.24864793446035     -0.41154767515145
  N   2.09492226763164      2.22887726717158     -0.32658278222312
