14
Coordinates from ORCA-job run
  C   -0.85165477933965      0.09174416692560     -0.40047368542490
  C   0.69971471514619     -0.01109818829049     -0.41917917327710
  F   -1.21138649270757      0.79756838443732     -1.52597399264389
  H   0.99679107590639     -0.41707805774201     -1.39641551006112
  C   -1.37135021703571     -1.28957114286880     -0.50898900387127
  N   -1.70736725211996     -2.41067580064638     -0.59813535145983
  N   -1.42655390809989      0.73287906244116      0.73328613303705
  H   -1.10293057206310      1.69390851594348      0.77787678186224
  H   -1.14156343382343      0.24599962037359      1.57531763979736
  N   1.10130999045236     -0.81997087548697      0.72745808884470
  H   2.03999162151742     -0.58911704628411      1.02594713450291
  H   1.08229972082427     -1.80197849494290      0.47832135979645
  C   1.23963106723408      1.34374534072205     -0.29926708687502
  N   1.65306846410860      2.43464451541846     -0.16977333422756
