14
Coordinates from ORCA-job run
  C   -0.67767765547474      0.02537752282198     -0.45382742418632
  C   0.86422489150140     -0.07875875523210     -0.39150880403655
  F   -1.03219168189646      0.54391287110175     -1.67582751735478
  H   1.16890598355855     -0.74982539729633     -1.20287606068043
  C   -1.23581188815196     -1.35106491561955     -0.36756096807922
  N   -1.63728029475191     -2.44549132954545     -0.21898271714543
  N   -1.17048131236753      0.92112143852333      0.55112886145488
  H   -1.15481341004156      0.48943243374982      1.46626165824829
  H   -2.12686307136703      1.17751575116831      0.33445274160457
  N   1.39932975303616     -0.58666215985176      0.85177789137299
  H   1.20636919549908      0.03107366202028      1.62820598044661
  H   1.08119424907360     -1.52669910856070      1.04778175493767
  C   1.42452841250398      1.24850695668513     -0.67275039232985
  N   1.88856682887842      2.30256103003527     -0.89527500425243
