14
Coordinates from ORCA-job run
  C   -0.67221950317603     -0.24526655263911      0.19445620488103
  C   0.77470928580395      0.25473598000563      0.01568835440453
  F   -0.66534917125293     -1.46127756067242      0.82058017047961
  H   0.69777319763309      1.25386977453766     -0.44877836710799
  C   -1.43164349332376      0.69943830914413      1.05206072099327
  N   -2.06542322678852      1.48161572115105      1.65782502526024
  N   -1.26078528992015     -0.44375026720349     -1.10562954707846
  H   -1.49357568907718      0.44543629904934     -1.53354634821391
  H   -2.11364549878782     -0.98302635850472     -1.00401904569245
  N   1.51116951776324     -0.72780818884168     -0.75415625455538
  H   0.98138702661302     -0.94579469789484     -1.58941816071479
  H   2.41918034666555     -0.36281396390655     -1.01125650236747
  C   1.39846067051055      0.43527250737835      1.33276370038593
  N   1.91796182733700      0.59736899839661      2.37243004932585
