14
Coordinates from ORCA-job run
  C   -0.72307460401883     -0.26184308486028     -0.14767604555274
  C   0.74512000099258      0.17461887382230     -0.26648361393798
  F   -0.81163116086604     -1.42079715480978     -0.95372140651296
  H   0.87996092706117      0.47753018804633     -1.31925991198966
  C   -1.04949262553697     -0.67951235590318      1.22558705876169
  N   -1.35687308420144     -1.00687989980370      2.30970936026005
  N   -1.59156839685934      0.76181074645093     -0.56418462073571
  H   -2.56490562588169      0.52201536077847     -0.43119460570813
  H   -1.42196641256017      1.03123408624050     -1.52469812664163
  N   1.59444221730597     -0.92339665575848      0.15846932026218
  H   1.51638688725663     -1.68542515252430     -0.50290758371548
  H   2.56088225255334     -0.62812891944657      0.20870857535995
  C   0.98687372795862      1.34995272184944      0.57370635902284
  N   1.23484589679620      2.28782124591832      1.23394524112757
