14
Coordinates from ORCA-job run
  C   -0.73410378265097     -0.22322062989977     -0.15282841818408
  C   0.75309496469360      0.14582456216422     -0.26304084020921
  F   -0.87810213898170     -1.35529121009272     -0.98880614071924
  H   0.90154200602402      0.46878025281324     -1.30796039362497
  C   -1.07998852207959     -0.66087033229537      1.20941532336423
  N   -1.40545812161830     -0.99998080210288      2.28455055103067
  N   -1.55324666357278      0.85099413469361     -0.54084952791500
  H   -2.53672824642676      0.65539176256836     -0.41036768631018
  H   -1.37270715253705      1.13646998903676     -1.49481602470651
  N   1.54937480221459     -1.00176168477412      0.13249366010092
  H   2.52923889581777     -0.75507488824804      0.18545763920460
  H   1.43228518753825     -1.74328404021814     -0.54618750112785
  C   1.05060698329777      1.28664924543441      0.60620397170483
  N   1.34219178828116      2.19637364092044      1.28773538739179
