14
Coordinates from ORCA-job run
  C   -0.60231264999716     -0.11798246695980     -0.54338288110758
  C   0.91382514926834     -0.00180650883879     -0.26002550635020
  F   -0.82548752748401      0.20005213590330     -1.86151895222255
  H   1.41327611031822     -0.70821715770036     -0.93311498314988
  C   -0.99925979248133     -1.53896721409188     -0.34971800008078
  N   -1.28548376934166     -2.65338288084931     -0.11041499073564
  N   -1.34524722603304      0.81214562657134      0.25350389680886
  H   -1.38014561396817      0.51675565276630      1.22083999271561
  H   -2.29484116187456      0.87557806444878     -0.09605943900473
  N   1.31714077214470     -0.29595094548593      1.09693277479336
  H   1.08220975074860     -1.24180654118876      1.36793482182562
  H   0.94773386641242      0.37331226823137      1.75803328880148
  C   1.34718274924790      1.35131210270064     -0.62889425930750
  N   1.71140934303975      2.42895786449310     -0.91511576298606
