14
Coordinates from ORCA-job run
  C   -0.67044568373824     -0.03930577674848     -0.42368898593201
  C   0.86221546417459      0.18060522712484     -0.32971405984340
  F   -1.11747500806335      0.68592138911601     -1.53572635779440
  H   1.27322320283419     -0.03115418967078     -1.32141804731989
  C   -0.92304191275722     -1.46500603754245     -0.70468830120650
  N   -1.07805362900249     -2.60388121328388     -0.94358948626047
  N   -1.30168249750963      0.33320935314774      0.78158239724144
  H   -1.18884574251265      1.32579872966168      0.95684558189775
  H   -2.28410940338224      0.09122882605555      0.79032657830712
  N   1.53751565761617     -0.63561769370227      0.65179830815391
  H   1.04540778156051     -0.58833189655456      1.53618990895944
  H   1.57137095148359     -1.60010302419367      0.34593020384571
  C   1.07941174952019      1.60587071799822     -0.03951780715209
  N   1.19450906977657      2.74076558859208      0.23667006710339
