14
Coordinates from ORCA-job run
  C   -0.70249930773928     -0.30669573500212     -0.24492373416242
  C   0.78095819540840      0.08735129086958     -0.32481777920517
  F   -0.83159311156581     -1.46651893022650     -0.99170788253746
  H   0.95765154151695      0.28089949037796     -1.39340625641968
  C   -1.07850927716272     -0.65256980585925      1.14708428657514
  N   -1.45755402475161     -0.85431363949306      2.24039559782568
  N   -1.52088908970023      0.68889307319905     -0.85884603148246
  H   -2.49624317811806      0.41774962186014     -0.80903359159036
  H   -1.41030875456362      1.58615567236712     -0.40042593781177
  N   1.57621315376898     -0.97907704721183      0.25698260368759
  H   1.51829475327394     -1.79719876965726     -0.33709712606809
  H   2.54678051736817     -0.70179573700145      0.32961222334093
  C   0.98671484326664      1.33894849936227      0.40797044979538
  N   1.12998373899832      2.35617201641535      0.97621317805270
