14
Coordinates from ORCA-job run
  C   -0.74665978395362     -0.20410334312380      0.26585191770359
  C   0.65743617558005      0.32170009756428     -0.10253551912722
  F   -0.51354775367197     -1.36336517849113      1.03495773849439
  H   0.51996469875197      1.29952719156162     -0.57417453581314
  C   -1.43898011030861      0.75182363305801      1.14810501874813
  N   -1.99209761375541      1.54132392475366      1.81824973743892
  N   -1.49215839365273     -0.48297745285344     -0.87485787131106
  H   -0.96280010514084     -0.58016901981564     -1.72553883590695
  H   -2.43413104723854     -0.14483405319462     -0.93855799868540
  N   1.22291672077733     -0.58647822760028     -1.08740511055458
  H   1.43151418928187     -1.47528333758434     -0.64640211186892
  H   2.08467146454385     -0.20838415661936     -1.46084358987242
  C   1.47920953646101      0.50049396824220      1.10793321442976
  N   2.18666202232566      0.63172595410284      2.03621794632489
