14
Coordinates from ORCA-job run
  C   -0.76507982518537     -0.10997011891940      0.18739005104290
  C   0.67610256965130      0.35874568518025     -0.08700463440344
  F   -0.64319740168955     -1.39221422733762      0.76698204706713
  H   0.60921583533841      1.36311305210740     -0.51425416407428
  C   -1.42380583480713      0.74017520192084      1.19460389838873
  N   -1.94241240991730      1.42747590929798      1.99250119048608
  N   -1.48803584650266     -0.10642823653315     -1.01459036352417
  H   -2.42241878602863     -0.47593697431365     -0.90220571623419
  H   -0.96659359144986     -0.60345161383433     -1.72674764265706
  N   1.24575836196085     -0.53789563729041     -1.08138124775279
  H   2.07990244015442     -0.13155515109381     -1.48505284299994
  H   1.49824832749548     -1.41611174045407     -0.64350175222074
  C   1.44024134202617      0.42870958273757      1.17103784435396
  N   2.10007481895385      0.45534426853240      2.14222333252781
