14
Coordinates from ORCA-job run
  C   -0.69216559526991     -0.22010337649344     -0.18955735523520
  C   0.79039220488399      0.19783688545599     -0.34314245132757
  F   -0.82816374260521     -1.35196958745207     -1.02553203490583
  H   0.90124430546409      0.49127091394043     -1.39560149333395
  C   -0.95226302863745     -0.68935056865641      1.18203222256081
  N   -1.11298291490746     -1.07789365398766      2.27809978686132
  N   -1.56181689381052      0.82674467300350     -0.53011172648499
  H   -1.39321543329721      1.17012967238443     -1.46689885962409
  H   -2.53634920622322      0.58434865012566     -0.41078779722780
  N   1.75518821897237     -0.84204176092737     -0.06549769697810
  H   1.74132069193081     -1.09563216007793      0.91558363033951
  H   1.54315833850560     -1.66166942621299     -0.62030554208769
  C   1.05727311950215      1.37196795511666      0.49340133883956
  N   1.28837991521543      2.29636176491245      1.17831797444303
