14
Coordinates from ORCA-job run
  C   -0.87466378267812      0.09809221826491     -0.32278203520506
  C   0.65177110122333     -0.06415111275514     -0.52744919769381
  F   -1.31075703852989      0.90103851814470     -1.36151904566221
  H   0.80617602758653     -0.53000366209204     -1.50500487801079
  C   -1.50278414658970     -1.23058489725669     -0.45796989169740
  N   -2.00498287794518     -2.28184519438984     -0.59716205216144
  N   -1.27908199099352      0.68892372241201      0.90308212982400
  H   -0.75386154883695      1.52650213474473      1.12088917463807
  H   -1.28883005506979      0.03672320692882      1.67308088033476
  N   1.16239032613096     -0.93945477571879      0.51106993505649
  H   1.37339672601592     -0.41750782248008      1.35189647206568
  H   2.00694204866723     -1.40649715477004      0.20950088539513
  C   1.26221331556202      1.27698289400853     -0.54204984401819
  N   1.75107189545718      2.34178192495892     -0.45458253286523
