14
Coordinates from ORCA-job run
  C   -0.75166458855224     -0.33062269598416     -0.14592428914278
  C   0.72523461530668      0.04819547902027     -0.35288491067572
  F   -0.87092061975723     -1.58644719067943     -0.77069787716974
  H   0.83618734895307      0.17133717646814     -1.44410787462747
  C   -1.04856790340258     -0.55710054605332      1.27996336820495
  N   -1.33663161688767     -0.73334613110471      2.40412465333586
  N   -1.62961230757503      0.59847326006603     -0.72431259223659
  H   -2.41107007249463      0.88817334177313     -0.16131797676166
  H   -1.20418959523286      1.35499739208283     -1.23451090341893
  N   1.57001535453610     -0.97600672297993      0.23049150371301
  H   1.37199094341538     -1.86039907033994     -0.22118562879462
  H   2.54745892522759     -0.75190288641107      0.09231777534015
  C   0.98904065242793      1.34513054070759      0.27852109598369
  N   1.21272886403547      2.38751805343459      0.76952365624987
