14
Coordinates from ORCA-job run
  C   -0.77771801901526     -0.10327140676508      0.13033530151241
  C   0.69349927354227      0.33433170126538      0.00531827668511
  F   -0.73877305289353     -1.46500167010233      0.50233666298228
  H   0.68857911565985      1.39534889160812     -0.25884498611777
  C   -1.45876842968528      0.60814912776090      1.22626862907941
  N   -1.99686074867009      1.18540461294198      2.09522967103973
  N   -1.43149327486742      0.12456479737543     -1.08989588956974
  H   -0.89268482618786     -0.28290049673252     -1.84503882239381
  H   -2.38585448990505     -0.20946533242681     -1.08280643110149
  N   1.28289390298389     -0.42012061114562     -1.09024780232832
  H   2.15038150178812      0.00798299636256     -1.38664420433925
  H   1.48139988919168     -1.36559616078546     -0.78563611842386
  C   1.38891009499965      0.17108094884552      1.29407096224168
  N   1.99648906305902      0.01849260179793      2.28755475073361
