14
Coordinates from ORCA-job run
  C   -0.61464710937776     -0.21324246464784      0.19356514737046
  C   0.78571504943467      0.37573797111405     -0.11305175688980
  F   -0.43783635547050     -1.42621541126226      0.82181775399608
  H   0.62929534163620      1.31334855597595     -0.66154052996299
  C   -1.37599936968202      0.66353658036562      1.11314636325011
  N   -2.00451090505591      1.40696053603312      1.77157631634818
  N   -1.28484090086266     -0.48134185957431     -1.04916888778757
  H   -2.11709000956604     -1.03338637091715     -0.87168938237383
  H   -1.56698429641825      0.38396583435069     -1.49605711498973
  N   1.61495879270687     -0.50225518931879     -0.91040369478603
  H   1.82051920525026     -1.34061917832811     -0.37881444159435
  H   1.08587268499412     -0.78092407187417     -1.72951466635298
  C   1.46374213340930      0.69847101662070      1.14765791830572
  N   2.00280573900172      0.93696405146250      2.16247697546674
