14
Coordinates from ORCA-job run
  C   -0.70652154056977     -0.28748178909204     -0.25539449721939
  C   0.78398631910572      0.08173153252571     -0.31922056824190
  F   -0.85277235665827     -1.42602743213038     -1.03129268266716
  H   0.96941544555683      0.29881469822395     -1.38181458022308
  C   -1.09516458987736     -0.66107308283098      1.12601767553629
  N   -1.48382946962117     -0.88375688593864      2.21178653866234
  N   -1.50432932109845      0.73714295951138     -0.84789916514892
  H   -2.48431481545421      0.48120753832547     -0.81102474016169
  H   -1.38124193204283      1.62096439628454     -0.36703603699137
  N   1.55732135355462     -1.01276249478308      0.23939910850815
  H   1.48734389055502     -1.81492600150931     -0.37464938490835
  H   2.53229004266386     -0.75492339276235      0.32325271962890
  C   1.00874372038955      1.31086237780465      0.44543821162286
  N   1.16807325349645      2.31022757637107      1.04043740160333
