14
Coordinates from ORCA-job run
  C   -0.72420739036156     -0.25859308470006     -0.14491117141925
  C   0.74804213527212      0.16259617412135     -0.26699591617267
  F   -0.81918659980898     -1.43395102009729     -0.92661069264514
  H   0.89004274484825      0.44008990867043     -1.32580794280735
  C   -1.05989581463810     -0.64467517126917      1.23537991165324
  N   -1.37572751278312     -0.94535583464866      2.32473548579873
  N   -1.58251013328180      0.76286702758393     -0.58689374624430
  H   -2.55831619876250      0.53355018244469     -0.45328445314991
  H   -1.40652786541343      1.01036644994601     -1.55218590207328
  N   1.58599931774533     -0.93253756990920      0.18683338237147
  H   1.50135781721193     -1.71039669459326     -0.45497799589020
  H   2.55521561359410     -0.64557735489777      0.23150645363120
  C   0.99642060651225      1.35484010725853      0.54715971044296
  N   1.24929327986550      2.30677688009045      1.18505287650450
