14
Coordinates from ORCA-job run
  C   -0.76227403056895     -0.19515523704017      0.22469889302900
  C   0.67195073904807      0.30419226480578     -0.05366511500159
  F   -0.59755563767702     -1.42869409890113      0.89100185886044
  H   0.58762559377309      1.32639331907102     -0.43493938858070
  C   -1.44585516482363      0.70288213509952      1.17212158363566
  N   -1.99087316031823      1.44723635501539      1.89824400595788
  N   -1.47910088346054     -0.33619929791740     -0.95749856337707
  H   -0.92950917916470     -0.38260269453507     -1.79935461354530
  H   -2.41240437373939      0.02586041166902     -1.01438575335918
  N   1.23335874680631     -0.53151156881424     -1.10314527159425
  H   1.39828914070180     -1.46374141461888     -0.74018124669984
  H   2.11803715523041     -0.15355399124507     -1.41839093715344
  C   1.46175711047815      0.33556314381968      1.19033175143507
  N   2.14555394371463      0.35033067359155      2.14516279639334
