12
Coordinates from ORCA-job run
  C   1.05316994607804     -0.37164057868026     -0.09970336296383
  C   -0.37015636519202     -0.57313805757001      0.41244978114199
  Cl  2.19498993992442     -1.44787697052338      0.76232626638940
  H   -0.38582416830203     -0.35807988618553      1.48414830757830
  H   1.11709220158604     -0.64445454684417     -1.15591285322315
  H   -0.61421425940880     -1.63185651726873      0.28974169027599
  C   1.48775119517515      1.01565384359935      0.04664109305100
  N   1.79349933567163      2.14344716018166      0.16202707071404
  C   -1.37193367965322      0.30193559013658     -0.33407017856647
  H   -1.34741049702471      0.10430303551099     -1.40895358552934
  H   -1.17111361583801      1.36359271539900     -0.17743926420037
  H   -2.38485003301649      0.09711421224452      0.01774503533245
