12
Coordinates from ORCA-job run
  C   0.94869393947451      0.32889620097828      0.11461053829014
  C   -0.31003811711421     -0.44156263526813     -0.28018332716554
  Cl  0.91267769546084      2.00573868567446     -0.51658164100653
  H   -0.15778658218101     -1.48263833623288      0.02384528518235
  H   1.01320541627474      0.41771107390773      1.20202838830834
  H   -0.39077373043558     -0.43096650016718     -1.37051595711763
  C   2.15318265127380     -0.33971536819352     -0.37162423945735
  N   3.09878175746001     -0.91594515084694     -0.76168343563969
  C   -1.57282106898817      0.11313362236288      0.36649765407741
  H   -1.75869455432029      1.14299159647805      0.06001501160138
  H   -2.43846476413994     -0.48538447731255      0.07671600857238
  H   -1.49896264276468      0.08774128861981      1.45687571435474
