12
Coordinates from ORCA-job run
  C   0.96690023717464     -0.18208920757630      0.22960775185781
  C   -0.33653741940317      0.23821699680222     -0.44716747987097
  Cl  1.23782462186258      0.72996467206588      1.74825467942549
  H   -0.29353662098764      1.31432447227445     -0.63553186805735
  H   0.92317434143386     -1.23627944504303      0.51522984930309
  H   -0.36743353327734     -0.26091458959776     -1.42149380051127
  C   2.11154302939614      0.01302227325003     -0.65704448696974
  N   3.00435717859739      0.16500897408514     -1.40420973473732
  C   -1.57196327608865     -0.12522968698323      0.36640436102911
  H   -1.62262995560234     -1.20272929172255      0.54342276759414
  H   -1.57658134887524      0.38062007931705      1.33231903977394
  H   -2.47611725423024      0.16708475312810     -0.17079107883694
