12
Coordinates from ORCA-job run
  C   1.08234775113343     -0.33087020880177      0.26926744959037
  C   -0.37280653391467     -0.73471375014966      0.03549952721215
  Cl  1.30860089293723      0.37145687381961      1.90286269007501
  H   -0.40204746819611     -1.28136892415208     -0.91367404603213
  H   1.72696495987374     -1.21159195143611      0.23394907556971
  H   -0.64559248309644     -1.44061604360262      0.82505534709270
  C   1.54581320069690      0.62191311070538     -0.73743903442609
  N   1.88867934352255      1.36845307261525     -1.57629440910732
  C   -1.34299509861876      0.43826470666394     -0.00100261409906
  H   -1.09266143511306      1.13315401417144     -0.80542942113463
  H   -1.33647814664650      0.98719882134387      0.94142558168231
  H   -2.35882498257831      0.07772027882275     -0.17322014642301
