12
Coordinates from ORCA-job run
  C   1.08297466749246     -0.35700005738106      0.21454808850930
  C   -0.39041438897221     -0.72562702316553      0.04784235057808
  Cl  1.40342461811437      0.32523224492596      1.84073734291029
  H   -0.64209519920082     -1.43145747803509      0.84443913189625
  H   1.70491691525456     -1.25155489839795      0.14056984955404
  H   -0.47760169322751     -1.26379794145561     -0.90262779173340
  C   1.52180149315637      0.59329857248973     -0.80558554561358
  N   1.86862493376200      1.32990064876678     -1.65156781823660
  C   -1.33328669288854      0.46987997168569      0.06568736686624
  H   -1.10550692601830      1.16462915566879     -0.74560115468833
  H   -2.36459696010836      0.13485353630428     -0.05948749322376
  H   -1.26824076736401      1.01164326859401      1.01004567318147
