12
Coordinates from ORCA-job run
  C   1.05964394951274     -0.36335075871077     -0.02884479485513
  C   -0.38736646451800     -0.55912645271983      0.41427255273821
  Cl  2.16168240061149     -1.39861494175413      0.93008740683936
  H   -0.46270242261584     -0.29909199363391      1.47330608462231
  H   1.18169154295877     -0.67195619190609     -1.06999959997039
  H   -0.61534506834284     -1.62454243140077      0.32420088935141
  C   1.47539619632810      1.03240033151455      0.09221630202330
  N   1.76618296619654      2.16605938363894      0.18602521250083
  C   -1.35455804917115      0.27297974007195     -0.42159556436054
  H   -2.38364592103975      0.06949383525327     -0.11925124011030
  H   -1.17370145439652      1.34245890594406     -0.29672926261057
  H   -1.26727767552355      0.03329057370273     -1.48468798616850
