18

C	0.0	0.0	0.0
C	-0.22109	0.173375	-1.543666
Br	1.952585	0.0	0.0
H	0.305002	1.060835	-1.884466
C	-0.451706	1.283366	0.68433
H	-0.118812	1.241346	1.723258
H	-0.035463	2.17064	0.202587
H	-1.545678	1.262881	0.628502
N	-0.580859	-1.111635	0.642089
H	-0.406261	-1.948018	0.09892
H	-1.615121	-0.860189	0.561631
N	-1.628061	0.361029	-2.075918
O	-2.198082	-0.611158	-2.545578
O	-1.996294	1.526737	-2.120233
N	0.349697	-0.941053	-2.37518
O	0.247827	-2.098626	-1.983216
O	0.866196	-0.596104	-3.438143
F	-2.812429	0.0	0.0
