18

C	0.0	0.0	0.0
C	-0.132847	-0.258997	-1.530175
Br	2.100689	0.0	0.0
H	0.420463	0.493479	-2.083799
C	-0.390118	1.43493	0.297036
H	-1.482999	1.442587	0.236646
H	0.058651	2.139444	-0.404714
H	-0.06463	1.669327	1.31151
N	-0.592728	-0.876378	0.892246
H	-0.46293	-1.830897	0.580008
H	-1.641331	-0.601153	0.744388
N	-1.529694	-0.202354	-2.12297
O	-1.885536	0.916365	-2.46654
O	-2.109936	-1.256813	-2.328529
N	0.423723	-1.569774	-2.006825
O	0.314849	-2.565579	-1.300514
O	0.93064	-1.546638	-3.12774
F	-2.781069	0.0	0.0
