18

C	0.0	0.0	0.0
C	-0.317165	0.004484	-1.51377
Br	2.035335	0.0	0.0
H	0.092128	-0.881741	-1.988248
C	-0.360474	1.235121	0.879216
H	-1.447058	1.352728	0.873309
H	-0.050716	1.028122	1.897496
H	0.069223	2.144136	0.492884
N	-0.382968	-1.301871	0.547231
H	-0.396631	-1.292825	1.548454
H	-0.050203	-2.104621	0.084942
N	0.193096	1.161318	-2.286623
O	0.716163	0.891855	-3.371388
O	-0.0057	2.292043	-1.852394
N	-1.841215	-0.049886	-1.81608
O	-2.519685	0.979414	-1.734949
O	-2.23168	-1.157071	-2.193391
F	-1.809505	0.0	0.0
