18

C	0.0	0.0	0.0
C	-0.273596	-0.11286	-1.525407
Br	1.992863	0.0	0.0
H	0.40089	0.56686	-2.037144
C	-0.397387	1.390367	0.491059
H	-1.491566	1.371589	0.488692
H	-0.004294	2.193248	-0.135581
H	-0.011634	1.512556	1.507904
N	-0.542934	-1.075596	0.738876
H	-0.390104	-0.865886	1.721495
H	-1.581282	-0.915122	0.544671
N	-1.630796	0.301302	-2.079071
O	-1.780606	1.515788	-2.125789
O	-2.350499	-0.54183	-2.583369
N	0.047769	-1.460584	-2.091876
O	-0.560854	-2.436678	-1.676808
O	0.909124	-1.468097	-2.978624
F	-2.766226	0.0	0.0
