12

C	-0.515492	-0.003029	-1.411159
C	0.0	0.0	0.0
Cl	-2.333477	0.061548	-1.440106
H	1.093753	0.0	0.0
H	-0.202454	0.910502	-1.928366
H	-0.353349	-0.892809	0.527514
H	-0.351237	0.883899	0.540829
C	-0.064738	-1.21005	-2.217434
H	-0.411609	-2.129977	-1.74109
H	-0.453698	-1.183628	-3.238672
H	1.027892	-1.232481	-2.258053
Br	2.760705	0.0	0.0
