15
Coordinates from ORCA-job run
  C   0.86474609727571      0.08870357566938      0.37127117488309
  C   -0.49497061541824      0.62502550041616     -0.10733243732019
  F   1.42382945073995      1.07695233806995      1.19411485280719
  H   -0.26789637093517      1.50837781710974     -0.71821651541050
  C   0.69234727060943     -1.11438727669042      1.20837893768467
  N   0.54859792669734     -2.07624538777034      1.86577035785006
  N   1.68920714677752     -0.22125737097752     -0.73557482792434
  H   1.87392904746753      0.61088280812893     -1.28402783161165
  H   2.56566833918511     -0.63327031492987     -0.44043341210711
  C   -1.28247680537306      1.07648490448850      1.04155834294543
  N   -1.95040253956137      1.41915006233147      1.94391749479893
  C   -1.27132443795683     -0.40207288013070     -0.93408701242341
  H   -1.51641580215927     -1.27500295314253     -0.32649206290253
  H   -2.20314024081393      0.03797566384185     -1.29201448204263
  H   -0.67269846653472     -0.72231648641462     -1.78583257922702
