15
Coordinates from ORCA-job run
  C   0.86512606225048      0.06079206542347      0.37545550032571
  C   -0.47924164301409      0.63908493360464     -0.09723099518180
  F   1.44457528138978      1.01890402653278      1.21981679333802
  H   -0.22872317923151      1.52783604816980     -0.69089577373083
  C   0.66095597030171     -1.15398608526771      1.18826124341317
  N   0.49531552457442     -2.12529589591786      1.82632680621780
  N   1.68635953162390     -0.24737139948084     -0.73412104145646
  H   2.55225332033678     -0.68460983711641     -0.44408572380296
  H   1.89145368866992      0.58950671179088     -1.26750156909591
  C   -1.25937458053195      1.08847179095795      1.05749494563678
  N   -1.92357724767816      1.42774419037227      1.96385557527135
  C   -1.27787450154834     -0.35322144816262     -0.94498538058600
  H   -0.68184401797192     -0.67745350366449     -1.79695902164347
  H   -1.55219305652272     -1.22759561360850     -0.35217687445349
  H   -2.19421115264830      0.11819401636662     -1.30325448425191
