15
Coordinates from ORCA-job run
  C   0.87494899684935      0.18435416259845      0.24643003434140
  C   -0.62977359879878      0.47106437796361      0.08446866200668
  F   1.52171032798943      1.09512207078848     -0.61580503648616
  H   -0.75590135010325      1.53966767103740      0.28876534007770
  C   1.32594551999122      0.52463607083419      1.60941757055768
  N   1.68901782480922      0.81713716331430      2.68673129173532
  N   1.19323276194132     -1.15752438377595     -0.03513649657194
  H   0.96232050879046     -1.40432302629920     -0.98822935461392
  H   2.16586946077654     -1.36482585086214      0.15035088792465
  C   -1.39156629150273     -0.27982532622567      1.08251256713005
  N   -2.03689840035989     -0.88069898066287      1.85747044427807
  C   -1.12853223557309      0.16613001349231     -1.33171400836200
  H   -1.14676972906986     -0.90825210869240     -1.52231439510507
  H   -2.14795485648197      0.53645995303682     -1.44692663152774
  H   -0.49364893925795      0.66287819345269     -2.06602087538473
