15
Coordinates from ORCA-job run
  C   0.90596098130344      0.05056096963509      0.19068877257231
  C   -0.53910417374498      0.57295818651448      0.08513367608152
  F   1.63966841417406      0.79278994106725     -0.75903356331168
  H   -0.47816581453429      1.65740867337004      0.22593370047136
  C   1.48688276806820      0.38545065637775      1.50502085346481
  N   1.95703561576071      0.67236696210522      2.54169532766958
  N   0.98492855542095     -1.33898946743356     -0.01970664487957
  H   0.66032640836732     -1.59661860682314     -0.94209537663082
  H   1.92035356388892     -1.69388502937799      0.13007806184215
  C   -1.35228056414643      0.01522598218707      1.16590244809259
  N   -2.03908263638961     -0.42726729400519      2.00888357994136
  C   -1.16345957980006      0.27611970781755     -1.28217235614800
  H   -0.49961569460559      0.61642065008756     -2.07743060064367
  H   -2.11280739868348      0.80537842487677     -1.37238332207281
  H   -1.36964044507916     -0.78891975639890     -1.40051455644913
