15
Coordinates from ORCA-job run
  C   0.78851650767803     -0.19274314080653      0.28780513502853
  C   -0.47821189333784      0.30953894742827     -0.43228981381238
  F   0.45305041891323     -0.35850239891839      1.64291506152803
  H   -0.23360059738394      0.35280854877130     -1.49895794122338
  C   1.14506064051878     -1.53429973444678     -0.21682348094818
  N   1.41164909772010     -2.60166643309901     -0.62586717889339
  N   1.87428141587438      0.68457529415383      0.09205340806048
  H   2.71915656795294      0.33786351844846      0.52798104523214
  H   1.66314828470394      1.61390165869126      0.43695140768279
  C   -0.74810675184489      1.67553573198431      0.02215431409725
  N   -0.94698015622834      2.76918992467455      0.40036411116471
  C   -1.68825477078809     -0.59703472814033     -0.19868917280129
  H   -2.55254532716114     -0.20990766178095     -0.73986152779722
  H   -1.47834072505893     -1.60501760497590     -0.56106111939148
  H   -1.92982271155821     -0.64424192198410      0.86232575207340
