15
Coordinates from ORCA-job run
  C   0.77267033019545     -0.16312267040905      0.37286007073609
  C   -0.49411371522123      0.35577903883266     -0.32812468202746
  F   0.47226282259676     -0.42440811565390      1.69574110695963
  H   -0.25064326700572      0.48594661825259     -1.39030452660595
  C   1.15811355725645     -1.46741612058761     -0.23058781483450
  N   1.50071892906964     -2.46019140043564     -0.75742266395528
  N   1.80558931987623      0.81519196197788      0.34843657290434
  H   1.92266519065262      1.23090558564542     -0.56581789966471
  H   2.68738616576360      0.43892259991654      0.67301417846273
  C   -0.84697075405811      1.66799296242985      0.21991397625987
  N   -1.18936857390095      2.71108015466031      0.63496872273528
  C   -1.66647965150008     -0.62023088281539     -0.19145522671317
  H   -2.54673956982968     -0.21279446512182     -0.68984259396591
  H   -1.42110740919892     -1.57940175657843     -0.65077798710588
  H   -1.90298337469607     -0.77825351011339      0.86039876681491
