15
Coordinates from ORCA-job run
  C   0.69293164625532     -0.24018875574103      0.47402052622173
  C   -0.41709996151487      0.41011466742358     -0.36875482123347
  F   0.16780764818091     -0.59403099682479      1.70196155080714
  H   0.00278495766016      0.61234557364190     -1.36220552039896
  C   1.11413883687718     -1.50981437216071     -0.17726872007900
  N   1.49644273556719     -2.47516994796400     -0.72730290081639
  N   1.75867888627056      0.67344382951356      0.70460580276905
  H   2.56234081313573      0.21930708948228      1.11950460893456
  H   2.03351651484219      1.16868132822299     -0.13282116746292
  C   -0.79435329838720      1.69074948693729      0.23460102539621
  N   -1.15330765778387      2.71360054823841      0.68473439451817
  C   -1.63945470329955     -0.50193255314074     -0.51012766504967
  H   -2.40772495089566     -0.00149283441844     -1.10061890269927
  H   -2.05016097144528     -0.73391642844228      0.47216329406000
  H   -1.36654049546280     -1.43169663476803     -1.01249150496718
