15
Coordinates from ORCA-job run
  C   0.95935936117723      0.00492110426107      0.22207704779399
  C   -0.47834139239385      0.58118762943439      0.12370487233401
  F   1.73842534043709      0.85046765860125     -0.55459661074835
  H   -0.44940435012538      1.58997896385262      0.55050850286016
  C   1.43211583305981      0.10850020680026      1.61795552907600
  N   1.78230526310942      0.20660267480801      2.73404414361061
  N   1.15364053695218     -1.32805377497181     -0.23195503053430
  H   0.65473622971899     -1.51917842444876     -1.08985059771320
  H   0.93171843863873     -2.01832606351251      0.47133424708381
  C   -1.36386027807801     -0.24724002264333      0.94183715394093
  N   -2.06590800705370     -0.94832980626325      1.57013467202571
  C   -0.97545141122608      0.66102207469827     -1.32246630002327
  H   -1.95381800376634      1.14280312983219     -1.34796308231781
  H   -0.27971469155866      1.24681029040551     -1.92253452532973
  H   -1.08780286889141     -0.33116564085391     -1.76423002205857
