15
Coordinates from ORCA-job run
  C   0.90779226739202      0.10825186606351      0.09996974759222
  C   -0.56686099387353      0.55614314685341      0.06227093270377
  F   1.59125377948663      0.84649269669243     -0.84758476657458
  H   -0.57810246818107      1.61298663813403      0.35114784542938
  C   1.51117034055889      0.46282256726243      1.41173995707896
  N   1.98052898230281      0.69697205132926      2.46324740236940
  N   1.03375638997584     -1.26812101812719     -0.25384541670144
  H   2.00026250376285     -1.56514903501673     -0.18935828197017
  H   0.46713078952404     -1.85587295167408      0.34659124588717
  C   -1.31379885281396     -0.20286786518119      1.06575849336416
  N   -1.89898851797444     -0.85910951921707      1.84450235974384
  C   -1.17356090036585      0.39168469134646     -1.33373825252275
  H   -2.19699734042322      0.76981626215570     -1.33538742725282
  H   -0.58592738370688      0.96015979364839     -2.05389227196393
  H   -1.17765859566411     -0.65520932426936     -1.63242156718321
