15
Coordinates from ORCA-job run
  C   0.90191710202076      0.15585110962179      0.45037530229941
  C   -0.45469088284205      0.66859115690211     -0.07072034676979
  F   1.36614003724438      1.12773921180287      1.34169132112726
  H   -0.21714498258802      1.57306450516181     -0.64621686558715
  C   0.72215726606946     -1.07921746394222      1.24090191189866
  N   0.57157553908313     -2.08529485631079      1.82746245793895
  N   1.81918309209573     -0.04329746236085     -0.59327596103116
  H   2.37018985951513     -0.88316011223973     -0.58262639716743
  H   1.55680074298426      0.27537556900085     -1.50915396705936
  C   -1.30149640489101      1.07473188057428      1.05194708071888
  N   -2.02322972624609      1.37499010951543      1.92752665304074
  C   -1.18697038274822     -0.35100154538602     -0.94670828929543
  H   -0.58062807094577     -0.63539391197543     -1.80752001554847
  H   -1.42169468144737     -1.24933598369754     -0.37283736249491
  H   -2.12210850730434      0.07635779333346     -1.31084552207024
