15
Coordinates from ORCA-job run
  C   0.74180062142710     -0.21666752515310      0.48596177101319
  C   -0.41492057712765      0.29625086879062     -0.41178487709620
  F   0.21267609177853     -0.33656403885135      1.76136434271520
  H   -0.03084315678968      0.31157205779576     -1.43886705235571
  C   1.13421405386002     -1.56368158614848      0.02014142880739
  N   1.42634378692372     -2.62109774182866     -0.39691163336548
  N   1.90179309040066      0.60067755865420      0.55969607805148
  H   2.56726335632143      0.42303517294226     -0.17791626971630
  H   1.67448602084728      1.58505069427828      0.62367272790189
  C   -0.70115649941557      1.67940559446618     -0.02633032866012
  N   -0.90425134376048      2.78982665786531      0.29735127397069
  C   -1.67002374746376     -0.57540821859123     -0.33508378287903
  H   -1.43502330248956     -1.59909089261379     -0.63277255645709
  H   -2.06424088511216     -0.58304034459920      0.68028883031701
  H   -2.43711750939988     -0.18926825700682     -1.00780995224691
