15
Coordinates from ORCA-job run
  C   0.85581173379973      0.06595372469858      0.39804798897836
  C   -0.47869267144466      0.63728545246540     -0.10999417169547
  F   1.40980789071582      1.02954246130407      1.25311619852159
  H   -0.21711881587451      1.52758543703374     -0.69657345250909
  C   0.63540781885568     -1.14662992272082      1.20996647095935
  N   0.45279663048810     -2.11465450085802      1.84825142012169
  N   1.70524514608416     -0.24342501317374     -0.68921438457155
  H   1.91996569616723      0.59032127226794     -1.22327488165502
  H   2.56425823446061     -0.67872931288731     -0.37754298877477
  C   -1.29195251698497      1.08165428217161      1.02369229688585
  N   -1.98218841585630      1.41794148814707      1.91147045971452
  C   -1.24964783031325     -0.35906813613825     -0.97862995600429
  H   -0.63333913712207     -0.67396076588249     -1.81972277084110
  H   -1.52728819229501     -1.23901956589356     -0.39546829747192
  H   -2.16306557068057      0.10520309946577     -1.35312393165815
