15
Coordinates from ORCA-job run
  C   0.89651124201158      0.23507518586596      0.33265918514863
  C   -0.64584031633221      0.35149620946871      0.20145726215411
  F   1.38738525207954      1.45409280088776     -0.11279521002774
  H   -0.96357336979122      1.16466538568331      0.86357588898401
  C   1.25362139233760      0.09779790136373      1.75966263382295
  N   1.50462551031222     -0.00263723891582      2.90197566697625
  N   1.53126119620379     -0.80122700037116     -0.40435059308412
  H   1.52116263071479     -1.68887205240741      0.07769566250496
  H   1.15442484185300     -0.89705159192329     -1.33730159260472
  C   -1.24202833210929     -0.89752361137635      0.67502892045160
  N   -1.69425587315642     -1.92507217673160      1.01950429360285
  C   -1.08646083981423      0.66750906183797     -1.23050589700409
  H   -0.59533342163582      1.57568930764899     -1.57841419598835
  H   -2.16619091408207      0.82006726438501     -1.25665028395749
  H   -0.85530899859127     -0.15300944541581     -1.91254174097885
