15
Coordinates from ORCA-job run
  C   0.77869921681494     -0.22960359355802      0.28866866163709
  C   -0.46268737516709      0.34527087488860     -0.42147212110316
  F   0.41953848163764     -0.44966818265070      1.63007251944365
  H   -0.20131324514199      0.43618718836440     -1.48105417433440
  C   1.10140515472030     -1.55559312704574     -0.27652119367205
  N   1.34099355977902     -2.60847207641844     -0.73649504385387
  N   1.89265230454665      0.62274303645415      0.14910212494961
  H   2.72025170955464      0.23041384361179      0.57972462367867
  H   1.70399691218388      1.54108647173911      0.53441338047487
  C   -0.70029504426053      1.69330049407538      0.09954546052217
  N   -0.87362194330126      2.77211629800585      0.52938195126656
  C   -1.70082968510909     -0.53714254272509     -0.25160486193161
  H   -2.54762581029506     -0.09433909002537     -0.77744973613483
  H   -1.51598860669290     -1.52810212373551     -0.66992528175273
  H   -1.95517562926915     -0.63819747098041      0.80261369081004
