15
Coordinates from ORCA-job run
  C   0.78065960358422     -0.22994338438878      0.28272525526158
  C   -0.46591208649826      0.33603385463597     -0.42567226337520
  F   0.44215309453284     -0.40457317711797      1.63551153970076
  H   -0.22168033178591      0.38517465595696     -1.49218296040349
  C   1.07974335907362     -1.57618263597709     -0.24634575432052
  N   1.29935232177350     -2.64706930398499     -0.67353678812864
  N   1.90116886602291      0.60535743681091      0.09820943483877
  H   2.73208565245633      0.21649252907338      0.52573155111860
  H   1.72906968000758      1.53611624689318      0.46114899898870
  C   -0.67709465773978      1.70509695433342      0.05001218578875
  N   -0.82800976632897      2.80113878242058      0.44319537699467
  C   -1.71182247217833     -0.52339091912220     -0.20278596525209
  H   -1.94939155255540     -0.58227824354731      0.85862523648441
  H   -1.54634491892933     -1.53158888287894     -0.58706104228612
  H   -2.56197679143500     -0.08938391310714     -0.73057480541018
