15
Coordinates from ORCA-job run
  C   0.73888655653416     -0.21381202903998      0.41040427114911
  C   -0.45938714232119      0.40131568485260     -0.33190094698799
  F   0.34045339084601     -0.55896243408905      1.68693763734936
  H   -0.13506691206249      0.61399866124222     -1.35855087435827
  C   1.12489610068211     -1.48390906229580     -0.26197795616259
  N   1.47065071265538     -2.44939808604880     -0.83537286197371
  N   1.80060255134153      0.72699820882636      0.52997022636981
  H   2.01119532555977      1.18193145057230     -0.34833955284056
  H   2.63770818320675      0.29889648889835      0.90528971556320
  C   -0.81850384076653      1.67165358539013      0.30353189108082
  N   -1.16718195327440      2.68308686563816      0.78617516843725
  C   -1.66280011336882     -0.54561838840924     -0.36444592769369
  H   -1.97301303656768     -0.79322285327795      0.65029216274465
  H   -2.49729578788799     -0.06594560590159     -0.87681692020937
  H   -1.41214403457660     -1.46501248635771     -0.89619603246802
