15
Coordinates from ORCA-job run
  C   0.75684885481689     -0.23842934669766      0.33429952429243
  C   -0.43196523820006      0.35293967805122     -0.44837604175682
  F   0.31165910103930     -0.46550646802857      1.64816658315282
  H   -0.10294952706981      0.45016855099244     -1.48859940586134
  C   1.10492889609028     -1.56307871580975     -0.21824089759240
  N   1.36996181285848     -2.61634469485228     -0.66353071509165
  N   1.88456114541266      0.60481637185402      0.27235981819378
  H   2.67971294768195      0.20331318714240      0.75259030934253
  H   1.67950048820620      1.52236770313486      0.64975521661201
  C   -0.69157924348605      1.69850782670337      0.06911883776268
  N   -0.88882128609004      2.77145078359054      0.50310825247366
  C   -1.68591688969899     -0.51959336509504     -0.36420701880748
  H   -2.00838157839188     -0.62456196379281      0.67101683206536
  H   -2.49348574182956     -0.06614435404574     -0.94029576867683
  H   -1.48307374133935     -1.50990519314699     -0.77616552610875
