15
Coordinates from ORCA-job run
  C   0.76764961019383     -0.15990470597848      0.38623996508854
  C   -0.48651978183541      0.35061573412091     -0.34348890458735
  F   0.44861235314294     -0.38423823048525      1.71213563591167
  H   -0.22947566662342      0.44963121530336     -1.40576072349462
  C   1.14773050209598     -1.48382136432513     -0.17613423216709
  N   1.48326189491361     -2.49654103353619     -0.66849238741051
  N   1.80896579482635      0.80791777820751      0.34780063062296
  H   2.68785016375655      0.43158458502108      0.67940362815359
  H   1.92848993066063      1.21437543939018     -0.57005527215457
  C   -0.83379729661519      1.67982094161847      0.16582627556907
  N   -1.16907940466812      2.73664790683365      0.55083130426262
  C   -1.66870469808204     -0.61176884989861     -0.19491421779866
  H   -1.42807632795619     -1.58258248049363     -0.63218360806215
  H   -1.91428942444795     -0.74551077974718      0.85836774756500
  H   -2.54161764936157     -0.20722615603070     -0.70857584149851
