15
Coordinates from ORCA-job run
  C   0.85350112338266      0.26264835699090      0.39238336625016
  C   -0.53892282789256      0.65635942531730     -0.11783197792365
  F   1.35940004528854      1.31750506599180      1.11821031003182
  H   -0.36889221115296      1.56847887998651     -0.70008107705009
  C   0.76030411129636     -0.89967819906899      1.31450882594893
  N   0.69747215871256     -1.87092089965731      1.97294271111529
  N   1.74829870794907      0.05758959547395     -0.71229999389868
  H   1.52124503277073     -0.79528055804707     -1.20902194776094
  H   2.69408202528916     -0.02959377091752     -0.35508952036903
  C   -1.39975767742295      0.98329668217943      1.02067503081991
  N   -2.11316864021808      1.22504989321236      1.92103526051533
  C   -1.17829268514262     -0.42271781102538     -0.99497403829200
  H   -2.18394974931040     -0.11679052512076     -1.28524950269378
  H   -1.25553096008003     -1.36996065767240     -0.45626811405562
  H   -0.59778845346948     -0.56498547764282     -1.90793933263763
