15
Coordinates from ORCA-job run
  C   0.80688731994404     -0.18168086971264      0.24190280974235
  C   -0.50462085782926      0.29709028416397     -0.41109388495535
  F   0.55996950639846     -0.30027155478245      1.62104111135364
  H   -0.32767347894620      0.30921452902794     -1.49189516338945
  C   1.12857020861548     -1.54126014136752     -0.23671838053098
  N   1.36195026594627     -2.62614726250807     -0.61916366382949
  N   1.87655658020868      0.68711571865210     -0.05336309383824
  H   2.74843972378498      0.35448050857643      0.33848735731092
  H   1.68674354422625      1.62724423404638      0.27404658366917
  C   -0.74968737184420      1.67531532246460      0.02016156995730
  N   -0.92644790469922      2.77849206589390      0.38122873953630
  C   -1.69460306319757     -0.60393095019229     -0.07467575911173
  H   -1.86725340541530     -0.62102446719206      1.00048407810774
  H   -1.50592492142093     -1.62144672620668     -0.42090353602166
  H   -2.59290614577150     -0.23319069086361     -0.56953876800053
