15
Coordinates from ORCA-job run
  C   0.86267742905154      0.26247573640334      0.18821824081794
  C   -0.67582395227219      0.35791908262373      0.21637989820744
  F   1.34051236970633      1.41958321966435     -0.39721990193525
  H   -0.92218656871471      1.21314187672594      0.85534567981359
  C   1.39298956291041      0.25371739092315      1.57701237805963
  N   1.79772872514530      0.20181918039815      2.67892358357789
  N   1.29274062373170     -0.83554382216531     -0.61490053860626
  H   0.88572947748617     -1.70705021069304     -0.29578051964155
  H   2.30249752551133     -0.91638122668744     -0.59639083250317
  C   -1.21057732273568     -0.85233904217756      0.84094619117367
  N   -1.61721188320599     -1.85302159160042      1.30215160388337
  C   -1.25581017895937      0.57085732339792     -1.18456166608180
  H   -0.83091153595541      1.47494955471736     -1.61953449704309
  H   -2.33891439942135      0.68502465329394     -1.11910065631852
  H   -1.02243987227810     -0.27315212482411     -1.83148896340391
