15
Coordinates from ORCA-job run
  C   0.88588499964872      0.16375408202466      0.47802350310853
  C   -0.45800383535108      0.66515993589695     -0.08575594244219
  F   1.31505489608652      1.14078268364244      1.38117931043221
  H   -0.20983975106185      1.57164068874338     -0.65360666910197
  C   0.69015007760753     -1.07085026822995      1.26560154505804
  N   0.52783671402848     -2.07644179904105      1.84983749546234
  N   1.83633393027127     -0.03102091863398     -0.53596541542709
  H   2.39563858773158     -0.86465104627373     -0.50461616118416
  H   1.60203473519682      0.28495962735053     -1.46006112782865
  C   -1.34349303221065      1.06356827222177      1.00925304131100
  N   -2.09573431334364      1.35689621819461      1.86124484628711
  C   -1.15272962886782     -0.36069752730593     -0.98468425405488
  H   -2.08381519044981      0.05551338692925     -1.37137882117167
  H   -0.52019208467656     -0.63301549044914     -1.83041536578448
  H   -1.39012610460952     -1.26459784506983     -0.42065598466416
