15
Coordinates from ORCA-job run
  C   0.80805050764277     -0.14907568910935      0.39657143386917
  C   -0.47847148685762      0.24318712418582     -0.37678462373766
  F   0.46320732920895     -0.14873997545644      1.73901796386822
  H   -0.23963422720834      0.16033878047618     -1.44387661036805
  C   1.18171431995644     -1.52796885274998      0.01641480976469
  N   1.45490466501637     -2.61628183409554     -0.32771642491436
  N   1.93656663489946      0.69682350459195      0.22522377541942
  H   2.50550941412117      0.45476192894127     -0.57218195113008
  H   1.68527964995298      1.67731834899983      0.21744144784529
  C   -0.75814587042793      1.65238077407815     -0.09488780122581
  N   -0.95309499759054      2.78635480354905      0.13965211415881
  C   -1.67908563624846     -0.64292750131781     -0.03871965667342
  H   -2.54527840394880     -0.34399720977447     -0.63076673960130
  H   -1.45113276936898     -1.68627127089965     -0.26543644864028
  H   -1.92838912914748     -0.55590293141903      1.01804871136537
