15
Coordinates from ORCA-job run
  C   0.72980516676909     -0.21219008938355      0.42992110718203
  C   -0.44712185159911      0.38980874872153     -0.35604760296673
  F   0.30762767360749     -0.49440464161772      1.71444868257995
  H   -0.10885578718138      0.53876069022968     -1.38939361213173
  C   1.10105208096511     -1.51714103798685     -0.18120033050781
  N   1.43818067758269     -2.51136612694789     -0.70880513223283
  N   1.80712762391515      0.71283938317896      0.52191509281457
  H   2.63823378000264      0.28420541191843      0.90928270202883
  H   2.02284120574076      1.14453918159518     -0.36661024231017
  C   -0.78235356709870      1.70135500586497      0.20449371544611
  N   -1.10928181480707      2.74779994313736      0.62357481616296
  C   -1.67183086220028     -0.52990293152983     -0.34986635213436
  H   -1.43521539289380     -1.48512271831062     -0.82202774416583
  H   -2.00163076017508     -0.70931752983883      0.67315850380996
  H   -2.48757817262747     -0.06286328903082     -0.90284360357495
