15
Coordinates from ORCA-job run
  C   0.91693399294051      0.18971901221758      0.30545861569684
  C   -0.62068396081720      0.38385999077176      0.22348112136163
  F   1.45371358116068      1.38667479337350     -0.14695535326208
  H   -0.87470175981795      1.21187332166437      0.89461427228184
  C   1.31241595431148      0.02162020967324      1.71910082091649
  N   1.59768817120738     -0.10586406059674      2.85056674194641
  N   1.47569290411241     -0.87079716013126     -0.45827866515008
  H   1.43965219213003     -1.76023888683950      0.01918698907469
  H   1.06421959821388     -0.94208478071683     -1.37866773684851
  C   -1.26612067576559     -0.83266644641984      0.71649266962823
  N   -1.76489583219494     -1.83300177343188      1.07652311670500
  C   -1.08946100675928      0.72300104192089     -1.19422717573512
  H   -0.92901237188369     -0.11054940843414     -1.88066293751089
  H   -2.15881479107368      0.93758913269227     -1.18554434234934
  H   -0.55862599576403      1.60086501425659     -1.56108813675511
