15
Coordinates from ORCA-job run
  C   0.77637614622745     -0.22916690881857      0.29539418689888
  C   -0.45936443868767      0.34076864116361     -0.42867866790628
  F   0.40991742925062     -0.43330239674704      1.63679443886966
  H   -0.19249897226426      0.41373074842042     -1.48836270413582
  C   1.09821087000033     -1.56211759091893     -0.25353175845470
  N   1.33639720800360     -2.62184601839470     -0.69827075547106
  N   1.89345315415382      0.61860189636243      0.15194396227966
  H   1.70606339590503      1.53999125726734      0.53046092978665
  H   2.71881346251224      0.22743678833320      0.58793379030980
  C   -0.69299642981450      1.69791675234818      0.07012905196524
  N   -0.86294066318557      2.78381761419140      0.48315099330066
  C   -1.70239567908982     -0.53312458770284     -0.25036597119949
  H   -1.51976153250477     -1.53222966094272     -0.65027290963303
  H   -2.54435937553787     -0.09583187899079     -0.78846780686879
  H   -1.96291457496862     -0.61464465557098      0.80414322025862
