15
Coordinates from ORCA-job run
  C   0.86575160026309      0.19040253068555      0.26958906526637
  C   -0.64258422073494      0.44973723415588      0.09732693946864
  F   1.50304613960331      1.15426887071636     -0.54118459677649
  H   -0.79765824129722      1.50339611795387      0.35286461244581
  C   1.29039872816355      0.48031480610033      1.65272680053559
  N   1.63362597212017      0.73668844294579      2.74554344997248
  N   1.22010054187644     -1.12929426687881     -0.06708370332864
  H   1.00666951449410     -1.33892625426268     -1.03302625645846
  H   2.19522747133832     -1.32137247901541      0.12182652520120
  C   -1.40172478444901     -0.36753350654550      1.04400712974130
  N   -2.04362194870524     -1.02337059773626      1.77600963598331
  C   -1.11200267090612      0.20683583737288     -1.34056398885821
  H   -1.09966523974007     -0.85594607052111     -1.58817844540828
  H   -0.47885912070831      0.75743047415703     -2.03690746315979
  H   -2.13870374131809      0.55736886087208     -1.45294970462481
