15
Coordinates from ORCA-job run
  C   0.76925886951946     -0.20554042537263      0.44523027068784
  C   -0.44041640644506      0.28582260343533     -0.39256447218414
  F   0.31875261917988     -0.29547130556680      1.75284239928141
  H   -0.11991529144723      0.27322617192561     -1.44130096024693
  C   1.13540943996786     -1.56305146753964     -0.01175006410667
  N   1.40640887912210     -2.63026464042306     -0.41799216952807
  N   1.93017717881823      0.61313988920032      0.42809432868914
  H   2.55464833649440      0.41301565897330     -0.33880433712584
  H   1.70699393475314      1.59920089579727      0.47708041205249
  C   -0.70220212093668      1.67956768286982     -0.02840994707719
  N   -0.88406398918422      2.79956696296225      0.27419771889981
  C   -1.68857108696561     -0.58122270007847     -0.21622460733478
  H   -1.47289608585070     -1.61223579842878     -0.50326575195397
  H   -2.49619613721893     -0.21019145157590     -0.84884955727778
  H   -2.01838813980663     -0.56356207617863      0.82171673722467
