15
Coordinates from ORCA-job run
  C   0.84318278308312      0.26708784824877      0.27964230916644
  C   -0.69276221173883      0.33569671883950      0.18407908290599
  F   1.30823399789699      1.43065607635073     -0.36957263700757
  H   -0.97811232807330      1.30241866009068      0.61241561821933
  C   1.28321156522040      0.38128420935928      1.68338697757121
  N   1.63391575236907      0.49354705400271      2.79799745822439
  N   1.35749806566693     -0.91679571260364     -0.28136710115330
  H   2.35638103259111     -1.00079990556156     -0.14511564667297
  H   1.13356871866622     -0.99375110843173     -1.26442253413731
  C   -1.29131133242698     -0.72267868493302      0.99758508030288
  N   -1.80563423743210     -1.57301497025441      1.62234413814226
  C   -1.18645000850107      0.26036815071746     -1.26445225866279
  H   -1.04394303493574     -0.73846108528356     -1.67988452574746
  H   -0.66249320428664      0.99520739587951     -1.87607733851078
  H   -2.25428555809916      0.47923535357927     -1.29755862264033
