15
Coordinates from ORCA-job run
  C   0.76762279109466     -0.19994009899160      0.45089684936472
  C   -0.43747048780420      0.28012256620275     -0.40019006395452
  F   0.31422021022356     -0.25688763793245      1.75942798803602
  H   -0.11524677318116      0.24268759832545     -1.44768867706484
  C   1.12515114723622     -1.57012231060353      0.02609425347369
  N   1.38872516606239     -2.64848055671626     -0.35490440561221
  N   1.93384642124209      0.61064425783110      0.41737385584922
  H   1.71698142001230      1.59900143623884      0.44467358875078
  H   2.55763105406114      0.38977617967154     -0.34436052470539
  C   -0.69213324656801      1.68245353324922     -0.06555458225791
  N   -0.86856917118721      2.80928727915625      0.21376885201823
  C   -1.69102579671471     -0.57585926104531     -0.20747249640145
  H   -2.02322497275864     -0.53271789654366      0.82889775977742
  H   -1.48063690938214     -1.61428142272109     -0.47046749008976
  H   -2.49487085233628     -0.21468366612125     -0.85049490718399
