15
Coordinates from ORCA-job run
  C   0.98114231632451     -0.02604358005764      0.09020969656667
  C   -0.41383626647330      0.63848783386213     -0.05692118304568
  F   1.68762463955272      0.37003510321221     -1.03615162385257
  H   -0.25290329822986      1.72230794331345     -0.06215349120357
  C   1.66419861554587      0.53413948605487      1.27464947172464
  N   2.18060928195336      0.99994935439670      2.22019124847262
  N   1.01646115270745     -1.44509635265799      0.16618872707769
  H   0.85490885637418     -1.79188500382699      1.10126771033205
  H   0.38443058239617     -1.88159982565683     -0.49081882310073
  C   -1.21606944428448      0.28989093081688      1.11546109858818
  N   -1.85706779998355     -0.03755078808778      2.04331365711296
  C   -1.12029911119485      0.22782711104238     -1.35186909811906
  H   -1.37305922615961     -0.83418277456532     -1.35185377267696
  H   -0.48401788408078      0.44824911205981     -2.20840671556602
  H   -2.05212241444784      0.78547145009412     -1.45410690231021
