15
Coordinates from ORCA-job run
  C   0.84367566130352      0.31097629188875      0.19371163042730
  C   -0.69738389450973      0.34623004123865      0.16983081230923
  F   1.29563305174569      1.44219994293904     -0.45917830250531
  H   -0.99494559129140      1.23697101257151      0.73404123202943
  C   1.33083984236532      0.42163996552938      1.59406135788918
  N   1.72148745754524      0.46013298724687      2.70162850956641
  N   1.34126814063555     -0.82295505852272     -0.51497929279180
  H   0.95712314053421     -1.68499466677783     -0.14571527721011
  H   2.35219104080681     -0.86172103591694     -0.45934264862968
  C   -1.20505346021794     -0.83419097956593      0.86951796904436
  N   -1.58687362964246     -1.81317006175293      1.39435667190941
  C   -1.24013688117530      0.42966840304913     -1.25937334868336
  H   -0.95694027638863     -0.45181040211126     -1.83220037248519
  H   -0.83375755969382      1.31312438188800     -1.75082113145627
  H   -2.32812704201707      0.50789917829627     -1.23453780941358
