15
Coordinates from ORCA-job run
  C   0.88894033100004      0.12271087573756      0.47739981925935
  C   -0.44363708622385      0.67688288618449     -0.06389061314406
  F   1.34657563954303      1.06295564671459      1.40799818580914
  H   -0.17415565505324      1.59415856115502     -0.60395282050529
  C   0.66475590977655     -1.12870252825201      1.23000810129288
  N   0.47819278792237     -2.14200520128672      1.79303443153831
  N   1.82590241924005     -0.07277521735104     -0.54494458772386
  H   1.63332381158934      0.32019350709929     -1.44848972734679
  H   2.37055964133165     -0.91596495966661     -0.54616848530176
  C   -1.31478771732765      1.06308199053260      1.04711802471701
  N   -2.05481051275128      1.35141104508929      1.91128439028699
  C   -1.16642486149312     -0.30188515121527     -0.99246318734328
  H   -0.53815504139221     -0.56681273519560     -1.84355538738324
  H   -1.43063080750800     -1.21466013019971     -0.45537046238027
  H   -2.08464885865368      0.15141141065412     -1.36800768177514
