15
Coordinates from ORCA-job run
  C   0.83617645895071      0.31977613073551      0.20677096099146
  C   -0.70543543464254      0.30601993342343      0.20935350514746
  F   1.24080077793687      1.51351274856509     -0.36008858283378
  H   -1.02266229775614      1.13295548240566      0.85431388506013
  C   1.34478979527250      0.33457550485223      1.60370805177382
  N   1.75463409265270      0.30077762284555      2.70442892765208
  N   1.35633736591409     -0.73683859143817     -0.59880669089388
  H   2.36905152571298     -0.74222514223136     -0.56708142661944
  H   1.01161571010188     -1.63865774318152     -0.29052287182129
  C   -1.16205867950125     -0.94800612245233      0.80904024502322
  N   -1.50131592682541     -1.98336604067504      1.24786132751314
  C   -1.27573917119918      0.49582661246794     -1.19886349740205
  H   -0.91098635321796      1.43462093794191     -1.61443253862224
  H   -0.96996732523022     -0.31967645015006     -1.85207837876190
  H   -2.36524053816905      0.52970511689117     -1.15160291620672
