15
Coordinates from ORCA-job run
  C   0.85629579838267      0.25132326577422      0.39295864203043
  C   -0.53464965605158      0.66047642974290     -0.10824018065195
  F   1.37164874986275      1.29408879062573      1.12991548600759
  H   -0.36018454289993      1.57809031529056     -0.68038926537688
  C   0.75868342817110     -0.92158075869285      1.30132549075834
  N   0.69227693378660     -1.90022080425542      1.94865296340410
  N   1.74660029070745      0.05381956335825     -0.71705897250246
  H   1.51587888333402     -0.79411696869069     -1.22064940142482
  H   2.69315943571786     -0.03886465393678     -0.36358518010442
  C   -1.39049362060470      0.98139215737809      1.03579396360374
  N   -2.10131187141668      1.22255058592743      1.93835813447623
  C   -1.18387273736564     -0.40392882151940     -0.99593390998904
  H   -2.18671028269239     -0.08611549089852     -1.28295854743128
  H   -1.26950314419662     -1.35581453821901     -0.46693727121268
  H   -0.60481766473492     -0.54209907188450     -1.91025195158691
