15
Coordinates from ORCA-job run
  C   0.88914513607201      0.13917754278529      0.48431680364198
  C   -0.44627455206810      0.67907825840029     -0.05958893192212
  F   1.33111731150950      1.05138274969794      1.43920095936187
  H   -0.18610800894943      1.60574142840583     -0.58708701884479
  C   0.67723883646068     -1.13673411324015      1.20452174293159
  N   0.51068853714165     -2.17740589683542      1.72294402246273
  N   1.84730990988278      0.02395283726810     -0.54626096863276
  H   2.48661401674505     -0.74952566620235     -0.46030278444060
  H   1.49618106971769      0.13056401214367     -1.48283747345989
  C   -1.32262636359689      1.03783304081164      1.05648361954328
  N   -2.06813473030885      1.30208458590552      1.92362729190075
  C   -1.16326892320874     -0.29609538142284     -0.99818416775404
  H   -0.55257104756065     -0.53580842215276     -1.86997971704486
  H   -2.09420982154388      0.14932633107730     -1.35104138768829
  H   -1.40410137029282     -1.22357130664206     -0.47581199005486
