11
Coordinates from ORCA-job run
  C   -0.75802809796382     -0.06256997247412     -0.34161384648717
  C   0.50584573465924     -0.08840100795658      0.20154291511835
  C   -1.32458371771785      1.20188456269421     -0.67238281925835
  N   -1.71254620239821      2.28802039212699     -0.91118559307393
  C   -1.50476447822590     -1.25287453872823     -0.56762370505447
  N   -2.13366941527579     -2.22970690383933     -0.75585282101456
  N   1.29120865014081      1.00600376761305      0.36954500287857
  H   0.86775872464262      1.91805753862423      0.27503387828321
  H   2.07849114236836      0.93805445763423      0.99300033897354
  C   1.09445778395137     -1.34953430866938      0.55174560274995
  N   1.59782987581918     -2.36893398702506      0.85679104688485
