11
Coordinates from ORCA-job run
  C   -0.80686650910970      0.03040555116087     -0.20927062080244
  C   0.48502394696386     -0.02893270246230      0.26077357243245
  C   -1.02447216011610     -0.13888682565563     -1.60691932345192
  N   -1.10832970109622     -0.28434411443881     -2.77260324005936
  C   -1.91359640418933      0.25933530143349      0.65611556859135
  N   -2.83748813644390      0.44576561547515      1.36088055687123
  N   1.56689348684846     -0.32087422902260     -0.50533023159537
  H   2.48197530622449     -0.10617532780271     -0.14535165119065
  H   1.46051400008888     -0.30805979052747     -1.50942021038030
  C   0.73181721721833      0.14842475987234      1.66336630974187
  N   0.96552895361121      0.30334176196768      2.80675926984314
