11
Coordinates from ORCA-job run
  C   -0.75208920400309     -0.11818188207146     -0.33922643531587
  C   0.47664965107934     -0.04231226224458      0.27553926326143
  C   -1.32925398986727      1.08206163521697     -0.84461026094294
  N   -1.72656737308221      2.11922532797803     -1.23637403593229
  C   -1.44284124677493     -1.35343632368587     -0.49097299366771
  N   -2.02450330441034     -2.36798331130248     -0.62416998267141
  N   1.14620253376840      1.11472423288659      0.51212140487503
  H   2.12656495973092      1.06399180200122      0.73456222973408
  H   0.83015915787374      1.95471632286590      0.04926296522018
  C   1.08539318267257     -1.24103183105043      0.77773503233949
  N   1.61128563301286     -2.21177371059391      1.18613281310001
