11
Coordinates from ORCA-job run
  C   -0.76261157930031     -0.05171541505279     -0.33536190950385
  C   0.50806576544723     -0.09473388127301      0.19062583572781
  C   -1.33651580486288      1.22285928634585     -0.60961641345706
  N   -1.73044422627020      2.31627263849892     -0.80055600946984
  C   -1.50866535619919     -1.23505933520209     -0.59842700810116
  N   -2.13508499299316     -2.20704339967377     -0.81775431233957
  N   1.29216022951204      0.99536880183582      0.39216424247536
  H   2.08875664749744      0.90506821035392      1.00094287490822
  H   0.86300062194770      1.90825191964384      0.34326352813482
  C   1.10501562777523     -1.36622124624793      0.48507196822695
  N   1.61732306744609     -2.39304757922874      0.74764720339830
