11
Coordinates from ORCA-job run
  C   -0.80259940608216      0.07456954172969     -0.21556195178223
  C   0.47986792307334     -0.06095223849246      0.26425982314227
  C   -1.01837784516440     -0.07422748322318     -1.61574303259550
  N   -1.10160128720377     -0.20846469961974     -2.78288928320033
  C   -1.89993735955661      0.36647041069132      0.64281280550172
  N   -2.81326629358843      0.61115718009159      1.34364667207883
  N   1.54996659641484     -0.41099859703829     -0.49461366081001
  H   1.45290856065154     -0.38409660260354     -1.49945496156273
  H   2.47206583317649     -0.24326329793850     -0.12728010887738
  C   0.72514361874346      0.09710285677220      1.66935789986260
  N   0.95782965953569      0.23170292963090      2.81546579824276
