11
Coordinates from ORCA-job run
  C   -0.79659752192143      0.09643687607547     -0.22661959229809
  C   0.48393321278331     -0.01593461376848      0.26432704914330
  C   -0.99174066335639     -0.00537263084049     -1.63395098116089
  N   -1.06096591724683     -0.10534582122073     -2.80549600414999
  C   -1.91521513284957      0.30052569869395      0.62964208661929
  N   -2.84744423179959      0.46617861339744      1.32873210388846
  N   1.59398474069209     -0.13557642700319     -0.50802065005553
  H   1.47507235189764     -0.34640185083993     -1.48843569369338
  H   2.44479559007832     -0.45823835162174     -0.07762191069515
  C   0.70441231744246      0.07267962155753      1.67963220254515
  N   0.91276525428000      0.13004888557019      2.83681138985684
