11
Coordinates from ORCA-job run
  C   -0.80656332275742      0.01025721468962     -0.21369143372121
  C   0.48383918196669     -0.01895500787073      0.26318176524614
  C   -1.01357621269075     -0.17443890070556     -1.61086480082233
  N   -1.08772095293594     -0.33154461325017     -2.77575287014639
  C   -1.92154277517818      0.22578102118104      0.64448232466881
  N   -2.85048258925284      0.40678432975952      1.34416367130552
  N   1.57574574875424     -0.29452909628264     -0.49508524012957
  H   1.47400782402650     -0.29018302835888     -1.49979932122348
  H   2.48346472692775     -0.05341237007142     -0.13298392805650
  C   0.71983701325509      0.17607693629806      1.66530627180228
  N   0.94299135788486      0.34316351461115      2.80904356107674
