11
Coordinates from ORCA-job run
  C   -0.80006399959015     -0.14116934181342     -0.18985089369206
  C   0.47664209897477      0.15746440875191      0.22789247897254
  C   -1.92595583508634      0.00495976383291      0.66863931995645
  N   -2.86285887117641      0.11963150859929      1.37162259097463
  C   -0.98045266076149     -0.61785357827783     -1.52006040833145
  N   -1.03367273856610     -1.00953123736644     -2.62955426472462
  N   1.57538286664131      0.10924428944584     -0.56825259854911
  H   1.49861773869695     -0.35360174706116     -1.46252149099393
  H   2.48245067854289      0.09678974910026     -0.13170374413315
  C   0.68529297228797      0.62880239084557      1.56718876904906
  N   0.88461775003661      1.00526379394308      2.66460024147164
