11
Coordinates from ORCA-job run
  C   -0.75423148590670     -0.11219320258380     -0.33540921953590
  C   0.48242877913851     -0.04866508934908      0.26436611196740
  C   -1.44413316416198     -1.34444951933606     -0.51142373219280
  N   -2.02369700418616     -2.35746518915726     -0.66341730562619
  C   -1.34595026889775      1.10113095113716     -0.79058812947624
  N   -1.75638551235208      2.15040495855954     -1.13374105637570
  N   1.14896323694389      1.10466301323750      0.52865406224067
  H   0.82335532011618      1.95459397129922      0.09080334130233
  H   2.13442150256334      1.05097492722328      0.72751522618988
  C   1.10207976934567     -1.25836517035061      0.72475486540434
  N   1.63414882739707     -2.23962965067989      1.09848583610219
