11
Coordinates from ORCA-job run
  C   -0.80683157357181     -0.08990151772508     -0.19254136166608
  C   0.48436711784290      0.13303794776677      0.22727234642067
  C   -1.92760833388840      0.17615961266091      0.64353240213383
  N   -2.86212486095464      0.38770294002528      1.32707124517004
  C   -1.00875722406216     -0.61322823643067     -1.50195141503642
  N   -1.07800826371036     -1.04942561448786     -2.59378772540526
  N   1.58367591794252     -0.03272212793567     -0.55238175311163
  H   2.48282965821077     -0.09381523468026     -0.10377608640623
  H   1.47985217846896     -0.53175121156072     -1.42420073400975
  C   0.71602732514335      0.65042887485473      1.54551253577258
  N   0.93657805857886      1.06451456751257      2.62525054613825
