11
Coordinates from ORCA-job run
  C   -0.78273854822005     -0.10007328834155     -0.27187574726274
  C   0.48911936445563     -0.04126770182204      0.24978900768546
  C   -1.28719892066359      1.04478123124741     -0.95296434849565
  N   -1.62071548812782      2.03262249058016     -1.50091114835134
  C   -1.58896588730625     -1.26754377366469     -0.15700018754101
  N   -2.26119837954953     -2.22955224323907     -0.06920922509417
  N   1.27432432275982      1.06610942481627      0.23473042088175
  H   2.25979533455886      0.95692300911054      0.40856390367257
  H   1.00230935907733      1.83856878602007     -0.35603009902556
  C   1.02320584313107     -1.18635584940840      0.93041640575546
  N   1.49106299988454     -2.11421208529870      1.48349101777523
