11
Coordinates from ORCA-job run
  C   -0.75877051898579      0.26623603646239     -0.22173911657805
  C   0.46531521360942     -0.13216326401926      0.26590322370257
  C   -1.83412941340739      0.61923147529195      0.64115681058212
  N   -2.72957813501981      0.91161767917384      1.34695902516984
  C   -0.93702580501217      0.30918465235264     -1.63442065485333
  N   -0.99391681818898      0.31201593057317     -2.81071669132392
  N   1.54663427634209     -0.40544347677848     -0.50945285133139
  H   2.30403295896407     -0.93167259650594     -0.10490712219645
  H   1.40476564054037     -0.51543080139270     -1.50357598828643
  C   0.67132861418854     -0.19306040936776      1.68464868221384
  N   0.86234398696966     -0.24051522578987      2.84514468290121
