11
Coordinates from ORCA-job run
  C   -0.79955047608868     -0.15644389376720     -0.17814050042091
  C   0.47674808566708      0.17065999850934      0.21854795702795
  C   -1.92158921180065      0.01458398949688      0.68090807147940
  N   -2.85551561463244      0.14984644701781      1.38419613110456
  C   -0.98403804268801     -0.68651572409584     -1.48750709779996
  N   -1.04151268708682     -1.12208240062677     -2.58027900782113
  N   1.57056741830405      0.10188161514310     -0.58283272201728
  H   1.49271634030499     -0.39600319014825     -1.45785257683046
  H   2.48048870212902      0.11364135097001     -0.15217055226955
  C   0.68974184126202      0.69563230708411      1.53702347065221
  N   0.89294364462943      1.11479950041681      2.61810682689516
