11
Coordinates from ORCA-job run
  C   -0.81009572837468     -0.03921417794001     -0.19510241197194
  C   0.48980589424106      0.01740443886028      0.25256051394780
  C   -1.91637763768003      0.15778225677000      0.67873880683022
  N   -2.83814457691560      0.32152854404975      1.39194717610610
  C   -1.03678988363620     -0.29579721273259     -1.57792850766251
  N   -1.12904576680000     -0.50715365502773     -2.73290556346434
  N   1.57819275598076     -0.23747823664632     -0.51797170228382
  H   1.45607125741168     -0.28300769242337     -1.51932379918041
  H   2.47948246518479      0.06609373617276     -0.18820859693931
  C   0.74458094417451      0.28526379691621      1.63915285101820
  N   0.98132027641369      0.51557820200104      2.76904123360001
