11
Coordinates from ORCA-job run
  C   -0.80078077203974     -0.12468998302051     -0.19751770413722
  C   0.47717234605760      0.14301747115185      0.23676725837161
  C   -1.92517138922100     -0.03216357216631      0.67044346458284
  N   -2.86074035619951      0.03826011772376      1.38097724864446
  C   -0.98326446010582     -0.51503791609122     -1.55527011846623
  N   -1.03610799376493     -0.83357736780633     -2.68787323492045
  N   1.57484357806842      0.14165714971609     -0.56224912872851
  H   2.48240145016606      0.09646452734468     -0.12907450846099
  H   1.49408329869266     -0.26239784568277     -1.48427138874531
  C   0.68887286956116      0.52311906221992      1.60450518674696
  N   0.88969142878512      0.82434835661083      2.72456292511283
