11
Coordinates from ORCA-job run
  C   -0.80820869647217      0.01003064302794     -0.20886844316330
  C   0.48494604103110     -0.02661183874906      0.25995066676602
  C   -1.91966549114709      0.18785682357739      0.66233463829753
  N   -2.84561460683662      0.33773281500078      1.37319951280246
  C   -1.02073845253257     -0.12192300381491     -1.61124122091729
  N   -1.09968052981476     -0.23408928398952     -2.78097228985350
  N   1.57515179343206     -0.26474802735566     -0.51356792174179
  H   1.46877495003085     -0.22273834926749     -1.51690272860236
  H   2.48212738596236     -0.02780915771568     -0.14684864892979
  C   0.72727869716386      0.11742419567006      1.66716818134315
  N   0.95662890918298      0.24487518361615      2.81474825399887
