11
Coordinates from ORCA-job run
  C   -0.80200192005003     -0.04506603669469     -0.22830588794379
  C   0.47953860712747      0.09417572091976      0.25303006286934
  C   -1.94223517837575      0.22297912730603      0.58041301077503
  N   -2.89106467275017      0.44231930047162      1.24137237773835
  C   -0.97277923553679     -0.47109414657591     -1.57673379963743
  N   -1.01631829107055     -0.83192022662953     -2.69705829710350
  N   1.60149799806866     -0.07121900076045     -0.49283150206642
  H   1.51404456786199     -0.50575713602429     -1.40019927111812
  H   2.48014636196407     -0.19333101271107     -0.01717615582613
  C   0.67856897382692      0.51381520823888      1.61120302185132
  N   0.87060278893419      0.84509820245964      2.72428644046136
