11
Coordinates from ORCA-job run
  C   -0.79788464207038     -0.00649444067095     -0.24708627611195
  C   0.47663774508285      0.07254343228774      0.26552216295342
  C   -1.94582456912257      0.29069921667133      0.54023896956158
  N   -2.90215305658510      0.52967407073848      1.18322033945801
  C   -0.95392042279075     -0.41026447512682     -1.60422584055582
  N   -0.98366840571104     -0.75524270246233     -2.72992798380053
  N   1.60779088277415     -0.12901876835962     -0.45735699571523
  H   1.52372269302987     -0.54614461224074     -1.37325415170393
  H   2.46927753423068     -0.29482122078426      0.03609461211670
  C   0.66179725833108      0.46490556756479      1.63360165728688
  N   0.84422498283121      0.78316393238236      2.75217350651088
