11
Coordinates from ORCA-job run
  C   -0.79817809158017     -0.06483019561867     -0.23594616331199
  C   0.47477114485765      0.11096630884465      0.25609568987706
  C   -0.94543522345928     -0.50079007350485     -1.58389757756167
  N   -0.96708068024881     -0.86425553046024     -2.70392229655461
  C   -1.95190747409578      0.16273835178648      0.56606448752253
  N   -2.91155196040624      0.34538657526833      1.22249560074409
  N   1.60724403948983     -0.02090053646836     -0.48126401448908
  H   1.53901169652488     -0.46107664786367     -1.38769981479418
  H   2.48365616964785     -0.12330376006265      0.00331911292636
  C   0.64965742674545      0.53780806672336      1.61523198866296
  N   0.81981295252463      0.87725744135562      2.72952298697853
