11
Coordinates from ORCA-job run
  C   -0.78202331144658     -0.07705892211690     -0.28142320314649
  C   0.49687258937708     -0.07368972365531      0.22628304911239
  C   -1.37443625407730      1.17164608444619     -0.62615686833458
  N   -1.78064982761290      2.24622011940802     -0.88586071749632
  C   -1.50973251178020     -1.28449568933295     -0.47840053804198
  N   -2.11816925912747     -2.27759296035289     -0.64792475223067
  N   1.20930643965491      1.04831187216582      0.50366339859610
  H   2.20440320290554      0.96412711532877      0.63008368395332
  H   0.87265170159214      1.92987471549943      0.14406782074109
  C   1.12048509089253     -1.32005464812068      0.56884398864045
  N   1.66029213962225     -2.32828796326950      0.84782413820669
