11
Coordinates from ORCA-job run
  C   -0.80957557135739     -0.04157051606105     -0.19731251105528
  C   0.48864880848360      0.08321492908551      0.24121139053030
  C   -1.91724502572524      0.07332053427725      0.68919165877640
  N   -2.83934571842338      0.16301951039357      1.41512543957325
  C   -1.03213212516990     -0.30568023409540     -1.57930345614674
  N   -1.11885190563623     -0.52729051651828     -2.73275504310056
  N   1.57806504715139      0.05593931455578     -0.56887871321238
  H   2.48056137424576     -0.09882625145300     -0.15062934790916
  H   1.45945106472017     -0.26803074101832     -1.51796494503282
  C   0.73922577569267      0.33618423387553      1.63147303528298
  N   0.97219827601854      0.53071973695842      2.76884249229401
