11
Coordinates from ORCA-job run
  C   -0.79957432778410      0.07343330600853     -0.22814629052115
  C   0.48350613470288      0.00300946731041      0.26386130577304
  C   -1.92321494138754      0.25922847847849      0.62569257065725
  N   -2.85845670404334      0.40896902102891      1.32429253274479
  C   -0.99177788673586     -0.05825439720857     -1.63346070646933
  N   -1.05642659174066     -0.18124867223957     -2.80295135084575
  N   1.59638552984817     -0.09949556668299     -0.50707306528528
  H   2.45507208861039     -0.39263466692678     -0.07122590471241
  H   1.48253269797370     -0.33334879994585     -1.48282843689590
  C   0.70170379862036      0.11950062623715      1.67759125959487
  N   0.91025020193599      0.20184120394025      2.83324808595985
