11
Coordinates from ORCA-job run
  C   -0.80342927929478      0.05747076450796     -0.21978190949385
  C   0.47916296462328     -0.05268353394635      0.26630795203462
  C   -1.91661691911911      0.28262216011921      0.63823562558823
  N   -2.84366289653050      0.47034992342287      1.33860700588121
  C   -1.00293048406443     -0.05035743721917     -1.62611753888652
  N   -1.07084762344835     -0.14793807796755     -2.79787087267911
  N   1.56557055319282     -0.34133552350145     -0.49492082381456
  H   2.47945719255152     -0.15989198701219     -0.11398761941641
  H   1.47513646542904     -0.28574237228019     -1.49913886617949
  C   0.70861306564191      0.06340521688755      1.67819550907296
  N   0.92754696101861      0.16410086698933      2.83047153789292
