11
Coordinates from ORCA-job run
  C   -0.79323009488977     -0.02959130586901     -0.25853874640441
  C   0.49683205602778     -0.10214770467088      0.21468767099706
  C   -1.61646533260157     -1.18447135294481     -0.37974178229244
  N   -2.30469149965457     -2.13330636595159     -0.48581689023359
  C   -1.29956291523887      1.24541379811598     -0.64227122984405
  N   -1.62970948967719      2.33651243355223     -0.93824748934378
  N   1.29934758472377      0.97303345761787      0.42196477823757
  H   2.28839074523967      0.81944555423437      0.52782528425159
  H   1.01871790539382      1.86204530199560      0.03391006378157
  C   1.03517308555785     -1.37654182875096      0.59667902074575
  N   1.50619795511909     -2.40939198732879      0.90854932010473
