11
Coordinates from ORCA-job run
  C   -0.78137799688032      0.19500236933330     -0.21577373748514
  C   0.48160858426632     -0.07632090408362      0.25824455745067
  C   -1.85656030838614      0.52816995507363      0.65539198125702
  N   -2.75381251818974      0.80189301842346      1.36652251273312
  C   -1.00274990979627      0.12593490257569     -1.62105613461732
  N   -1.08975328650777      0.04098080899899     -2.79257537295160
  N   1.56020594105237     -0.32378839632329     -0.52875559981309
  H   2.36576321903660     -0.75997872093765     -0.11172550658547
  H   1.40293607392226     -0.51136064761027     -1.50874548047972
  C   0.72676818639173     -0.02480768755654      1.67123411797548
  N   0.94697201509095      0.00527530210631      2.82723866251607
