11
Coordinates from ORCA-job run
  C   -0.71047090512357     -0.14144906473304     -0.41802436402363
  C   0.47325294293852     -0.04084610411635      0.27728208397584
  C   -1.19564028196685      1.01536524382343     -1.09210848083999
  N   -1.51357810238333      2.02348634193133     -1.61187078581266
  C   -1.45148725398581     -1.35530427277512     -0.46793160287503
  N   -2.07359898929246     -2.35325203694947     -0.50731962621629
  N   1.25798652676078      1.06689067010081      0.29876240245227
  H   1.95101578985753      1.14706299616804      1.02466522040059
  H   0.86845950297227      1.93203490830890     -0.04772425310868
  C   0.97946149891037     -1.18841497076086      0.97465064885180
  N   1.41559927131256     -2.10657371099769      1.56861875719579
