11
Coordinates from ORCA-job run
  C   -0.80362091479035     -0.12840938083966     -0.18676291289668
  C   0.47881250753987      0.15444800407134      0.22421624904442
  C   -1.92651098555784      0.06361044150399      0.66650074241622
  N   -2.86150774215173      0.21588980206359      1.36492691442063
  C   -0.99233978320790     -0.63859863497184     -1.50325648777322
  N   -1.05075343742662     -1.05773454664826     -2.60234741544111
  N   1.57694499025929      0.06005609168618     -0.56876498068638
  H   2.48313030369303      0.03986850455771     -0.13081678577894
  H   1.49032343926185     -0.42664632194395     -1.44939182702399
  C   0.69740409416911      0.65771259111602      1.55034497989866
  N   0.90711752821128      1.06080344940489      2.63635152382041
