11
Coordinates from ORCA-job run
  C   -0.75389725478225     -0.07031714553979     -0.34952900944355
  C   0.50458303748527     -0.08258304515892      0.20686968876217
  C   -1.48596093955284     -1.26899792980827     -0.58064586094464
  N   -2.09999696051364     -2.25382962553320     -0.77641677833989
  C   -1.32811224405766      1.18777667530764     -0.69082127909819
  N   -1.72268417876479      2.26987364757752     -0.93700036499404
  N   1.27726580900005      1.02011837406332      0.38018720423524
  H   2.06138063387792      0.96187035407447      1.00863683595253
  H   0.84595626960035      1.92749026851081      0.27840248122184
  C   1.09926235877911     -1.33692931107403      0.57123441328481
  N   1.60320346892847     -2.35247226241955      0.88808266936372
