11
Coordinates from ORCA-job run
  C   -0.79296074953045     -0.04759531981204     -0.25794256711095
  C   0.51935592401012     -0.09955189144076      0.15266820299186
  C   -1.34728934076070      1.22354291984356     -0.58378451296269
  N   -1.71682150930815      2.31462761036815     -0.82884819010872
  C   -1.59782510957524     -1.21758434539849     -0.35448326078394
  N   -2.27104640785776     -2.17950335493866     -0.43600000439577
  N   1.35420915989251      0.97069553003026      0.19029312344486
  H   0.95319139341849      1.89327664537353      0.10051426475661
  H   2.19943165262933      0.89857976121652      0.73226231890896
  C   1.09936625353584     -1.36679813013132      0.49508870071681
  N   1.59838873354601     -2.39168942511076      0.78923192454297
