11
Coordinates from ORCA-job run
  C   -0.80695013672335     -0.10191986033189     -0.18683563435956
  C   0.48425578748480      0.14229558611407      0.22133892645378
  C   -1.92613009695319      0.18221658198626      0.64566272534623
  N   -2.85856394720409      0.41135136392153      1.32625634344863
  C   -1.01036615758547     -0.66364242120120     -1.48009516566728
  N   -1.08109576220422     -1.13125319429494     -2.55876089383629
  N   1.58193063794539     -0.03704549895871     -0.55753962638080
  H   2.48301949599914     -0.07936352528528     -0.11068423889997
  H   1.47902821203805     -0.56076820752007     -1.41486358737520
  C   0.71657561514639      0.69776729187426      1.52404428974269
  N   0.93729635205652      1.14236188369597      2.59147686152776
