11
Coordinates from ORCA-job run
  C   -0.80615259454484     -0.00883851752929     -0.21601160732262
  C   0.48286636095089     -0.00683096146814      0.26554095857158
  C   -1.00563836119231     -0.23426708299002     -1.60824009814157
  N   -1.07402378893538     -0.42286934631009     -2.76875569666137
  C   -1.92642185641565      0.22044478588274      0.63176621665938
  N   -2.85932475797334      0.41217069402399      1.32314176750580
  N   1.58076525200990     -0.28881511372716     -0.48192333604686
  H   1.48243681698963     -0.30749787881233     -1.48707253121678
  H   2.48408928696072     -0.02621376532797     -0.12356232265471
  C   0.71177626507192      0.23012222738171      1.66221298144756
  N   0.93062737707846      0.43359495887656      2.80090366785960
