11
Coordinates from ORCA-job run
  C   -0.77395305476359     -0.11414672864619     -0.29100367161518
  C   0.51764401584919     -0.05706475440282      0.18005623815991
  C   -1.38677953615345      1.09591743823018     -0.72619961894778
  N   -1.81178593308188      2.14259472663959     -1.05933661177561
  C   -1.50342667089661     -1.33539425752277     -0.34193145717323
  N   -2.11640669056678     -2.33916874244107     -0.38521869807543
  N   1.28450061678898      1.06344513973185      0.18157466624677
  H   2.10643891135159      1.07946887404040      0.76258423690281
  H   0.83378522118524      1.95123505957671      0.01295584156066
  C   1.15364816024346     -1.25977019080341      0.63675998325482
  N   1.69633496004384     -2.22811656440247      1.02875909146227
