11
Coordinates from ORCA-job run
  C   -0.80780712180990     -0.08461128265251     -0.19134908287385
  C   0.48605854258957      0.13131299735808      0.22417348923331
  C   -1.92432544833661      0.20763249600766      0.64171618682040
  N   -2.85433458823238      0.44314919679091      1.32348806531659
  C   -1.01689283697706     -0.62732722047282     -1.49165959780306
  N   -1.09376155482987     -1.07963026177773     -2.57639767268148
  N   1.58310467299738     -0.05901545149730     -0.55283251115556
  H   1.47417479931349     -0.56888714144202     -1.41768178891971
  H   2.48234746611609     -0.12011587578420     -0.10458027845267
  C   0.72366401328617      0.66544821151962      1.53482618735934
  N   0.94777205588310      1.09104433195030      2.60929700315668
