11
Coordinates from ORCA-job run
  C   -0.80827006184149     -0.00517626179850     -0.20592287482219
  C   0.48915301370025      0.05674437971710      0.24804332245232
  C   -1.91988922829126      0.15262256733821      0.66923741920914
  N   -2.84582917303435      0.27876803941318      1.38469009642978
  C   -1.02728082865930     -0.24360663590514     -1.59305844342494
  N   -1.11143282303975     -0.44721548309392     -2.75003294575984
  N   1.58520561094658     -0.00986527866314     -0.55028423427041
  H   2.47603534241424     -0.20819948347174     -0.12567303083788
  H   1.46269519749729     -0.31467953623787     -1.50506953559846
  C   0.73546568604872      0.28362880105756      1.64351413401662
  N   0.96714726425905      0.45697889164426      2.78455609260586
