11
Coordinates from ORCA-job run
  C   -0.80642163320383     -0.07222400727665     -0.20335359809957
  C   0.48336883911284      0.11558338866022      0.23763081548717
  C   -1.93044205376750      0.15010529054168      0.64120666791845
  N   -2.86644667615248      0.32657175138519      1.33248083664156
  C   -1.00336145471705     -0.51320475656445     -1.54344947619615
  N   -1.06932628744670     -0.88101832742586     -2.66037500845855
  N   1.58702442740289     -0.01052623911088     -0.54315311684138
  H   2.48277966010301     -0.10364741285960     -0.09338102751043
  H   1.48671370187495     -0.45381651872334     -1.44499598211146
  C   0.70956185026813      0.54865328862872      1.58710548045469
  N   0.92654962652575      0.89452354274497      2.69128440871566
