11
Coordinates from ORCA-job run
  C   -0.77832736311926     -0.01230474695616     -0.30119505819920
  C   0.51541159699804     -0.11755155986042      0.15565055675375
  C   -1.55752574976796     -1.15864616257424     -0.62518838112306
  N   -2.21125664772308     -2.09976221799227     -0.89376868196246
  C   -1.34246637695348      1.28883337511632     -0.43498492980567
  N   -1.72561874794716      2.40009370845823     -0.50860285250720
  N   1.32700705692192      0.94019857708944      0.41095617464644
  H   0.91378936379681      1.86055991834858      0.45790318080719
  H   2.15192703573995      0.78800215889278      0.96739271157042
  C   1.10225409593765     -1.41794620825428      0.31146769474437
  N   1.60380573611659     -2.47247684226799      0.46036958507544
