11
Coordinates from ORCA-job run
  C   -0.79886816871695     -0.09417438731545     -0.22213934213081
  C   0.47664447715161      0.06506758376689      0.26899223829964
  C   -1.94978220704150      0.17198346707935      0.57211775098154
  N   -2.90805139083418      0.39324765858611      1.21869458004207
  C   -0.95335937488469     -0.52749708996486     -1.57026923298286
  N   -0.98363790302824     -0.88494782765579     -2.69208170014433
  N   1.60679865434298     -0.24073071956114     -0.41804684712433
  H   2.48294387041217      0.13023408395483     -0.08967487642357
  H   1.53196239803611     -0.41166755897637     -1.41051187573557
  C   0.65855945734988      0.51136040139170      1.62081502596585
  N   0.83679018721282      0.88712438869474      2.72210427925237
