11
Coordinates from ORCA-job run
  C   -0.78405489968014      0.18198272258171     -0.21894764960796
  C   0.46528892718432     -0.12896051095511      0.26652053128500
  C   -1.84857738521666      0.57827687207750      0.63875228369999
  N   -2.73488468646061      0.90984351323116      1.33858546801661
  C   -0.99754793858853      0.10889954581283     -1.62547321151634
  N   -1.07834828511167      0.02569877445391     -2.79750127544012
  N   1.49271418103861     -0.58365152114596     -0.49596111881245
  H   1.41164764527546     -0.51031684369085     -1.49987099042046
  H   2.42396935262785     -0.54647823166182     -0.11560280564682
  C   0.71056732937919     -0.05149033903254      1.67840739451781
  N   0.93922575955218      0.01819601832918      2.83109137392476
