11
Coordinates from ORCA-job run
  C   -0.80470254325263     -0.13416111924537     -0.18211023574856
  C   0.47859995694147      0.15628021661039      0.22109054181307
  C   -1.92541628654431      0.06841187563360      0.67155108420293
  N   -2.85659422462761      0.22846472150594      1.37341560056891
  C   -0.99571857775626     -0.66066143694658     -1.49186974338412
  N   -1.05436183976771     -1.09125871785117     -2.58652916593717
  N   1.57448057371788      0.04879503205818     -0.57270849835243
  H   2.48268517698786      0.04489167927574     -0.13883007916512
  H   1.48738014692713     -0.44926148467400     -1.44686097249281
  C   0.70047694479784      0.68188773259616      1.53787668567031
  N   0.91317067257635      1.10661150103709      2.61497478282500
