11
Coordinates from ORCA-job run
  C   -0.80762748654051     -0.00808227247282     -0.21043204556801
  C   0.48512728863776     -0.01692013872473      0.26080580346845
  C   -1.92550274585139      0.12206302749092      0.66102460392655
  N   -2.85670662199413      0.23239861721753      1.37230225534501
  C   -1.01389884913785     -0.12220543866408     -1.61529283031905
  N   -1.08746305887083     -0.21709708646337     -2.78693102142322
  N   1.58283227409442     -0.21190183516349     -0.51426188035934
  H   1.47640165162218     -0.15491899017838     -1.51690834247470
  H   2.48243921862140      0.04455311777209     -0.14237896365762
  C   0.72040109478583      0.10977449437950      1.67085833284003
  N   0.94299723463313      0.22333650480682      2.82121408822189
