11
Coordinates from ORCA-job run
  C   -0.77269063138842     -0.07690560322453     -0.31273966148695
  C   0.48042733009943     -0.06654112880883      0.25499672024122
  C   -1.33181165579073      1.16253878442902     -0.73688205057684
  N   -1.70885909920611      2.23089451794904     -1.05836679635490
  C   -1.49789694106426     -1.28795806144932     -0.49918993122941
  N   -2.09165925899298     -2.29209502519282     -0.65259290691912
  N   1.19466254992070      1.05746157556177      0.52494908621227
  H   0.89028107310812      1.92682414409999      0.11022338838078
  H   2.18388804419481      0.96131296369635      0.68492166920899
  C   1.07201642935753     -1.30549011398759      0.67287951484768
  N   1.58264215976191     -2.31104205307306      1.01080096767628
