11
Coordinates from ORCA-job run
  C   -0.79179785683403     -0.19036020179464     -0.17708193561903
  C   0.47005339751939      0.18925410093657      0.21923706279113
  C   -1.91762004479587     -0.07902565583501      0.68689174768509
  N   -2.85625851763798      0.00817841114086      1.39150500686003
  C   -0.95737560611451     -0.71696352433762     -1.49034798824264
  N   -1.00051205018010     -1.14419024503142     -2.58714689495630
  N   1.56333949080007      0.17646218397027     -0.58567126259242
  H   2.47303982594454      0.22712126966402     -0.15783004041532
  H   1.50460055735983     -0.31732497429334     -1.46453117275192
  C   0.66312738379041      0.71233239034350      1.54163768839580
  N   0.84940342014825      1.13551624523683      2.62433778884556
