11
Coordinates from ORCA-job run
  C   -0.76178669113926     -0.06488317526335     -0.33581869579520
  C   0.47622055955635     -0.07991345966214      0.26435088098865
  C   -1.50973758492685     -1.25740766935958     -0.54699996115372
  N   -2.13523913738281     -2.23767386049509     -0.72858681212423
  C   -1.28915198018034      1.18753405398282     -0.76284363909834
  N   -1.64181981768282      2.26366520393440     -1.08641868420782
  N   1.20058950359015      1.03057730870737      0.55728411984288
  H   2.18102774383024      0.92198133851381      0.75807882109651
  H   0.91944355713942      1.90835554770837      0.14458248755982
  C   1.03522557679381     -1.33035810775851      0.69277054663987
  N   1.52322827040212     -2.34187718030811      1.04560093625156
