11
Coordinates from ORCA-job run
  C   -0.80712482979816     -0.03868431457005     -0.20668648434975
  C   0.48574278989412      0.07371948078784      0.25063554707071
  C   -1.92371126090930      0.01230700847802      0.67477100060920
  N   -2.85384077471635      0.04958133095492      1.39492242079188
  C   -1.01571205409488     -0.22257259340417     -1.60362740914814
  N   -1.09243175515344     -0.37598311932479     -2.76888116386546
  N   1.58214516900439      0.10847546226459     -0.54949100801853
  H   1.47493082604013     -0.15525478447592     -1.51840070682503
  H   2.48323823576731     -0.06155906516827     -0.13442275741012
  C   0.72177390501684      0.24252368514516      1.65620677688646
  N   0.94598974894935      0.36844690931268      2.80497378425878
