11
Coordinates from ORCA-job run
  C   -0.80408326600111     -0.09803825861971     -0.20245240339338
  C   0.47964083313050      0.12544976252034      0.23970251680404
  C   -1.93010675582798      0.03548829619633      0.65799476633785
  N   -2.86713874645615      0.13906170682195      1.36256807040037
  C   -0.99170750318689     -0.48452416002904     -1.56061410175793
  N   -1.05003717845097     -0.80328774781164     -2.69293696458862
  N   1.58180437786568      0.08343081611441     -0.55184615149351
  H   1.49468287141134     -0.31999535361211     -1.47351020188445
  H   2.48461307508404      0.01236350600455     -0.11237834042756
  C   0.69655666996092      0.50477152048176      1.60674098337877
  N   0.90477562247060      0.80527991193316      2.72573182662444
