11
Coordinates from ORCA-job run
  C   -0.81022064381261     -0.08516539586738     -0.17761157857538
  C   0.51851551154848     -0.05881560878895      0.17924993876371
  C   -1.59882735260542     -1.26376938693943     -0.05668225857052
  N   -2.25729918888093     -2.23469314262708      0.03781274423806
  C   -1.39534054418302      1.11006685808393     -0.68628506846177
  N   -1.79545679054598      2.13952270119433     -1.09551273167139
  N   1.29611796338305      1.05399880905441      0.15778356402938
  H   0.94954017254777      1.86953441063069     -0.32641162218869
  H   2.29585124241285      0.94068342686616      0.18896909032131
  C   1.13375089782639     -1.25209183572395      0.68623839450877
  N   1.66336873230946     -2.22127083588272      1.09344952760652
