13

C	0.0	0.0	0.0
C	-0.583916	-0.001548	-1.39766
Cl	1.766058	0.0	0.0
H	-0.216283	0.885184	-1.920844
H	-0.377536	0.869048	0.526046
H	-1.692206	0.006759	-1.171124
N	-0.459911	-1.180398	0.807458
O	-0.619603	-2.238465	0.214018
O	-0.546766	-1.007861	2.01674
N	-0.231794	-1.159399	-2.268562
O	0.952014	-1.457422	-2.433457
O	-1.165466	-1.713897	-2.845343
F	-2.665211	0.0	0.0
