13

C	0.0	0.0	0.0
C	-0.589138	0.066385	-1.396117
Cl	1.746092	0.0	0.0
H	-0.361507	1.059309	-1.786156
H	-0.387769	0.84045	0.563327
H	-1.689848	-0.080838	-1.180957
N	-0.444145	-1.211118	0.774954
O	-0.569574	-1.058206	1.984734
O	-0.537827	-2.266976	0.162484
N	-0.029945	-0.887141	-2.388904
O	1.051614	-0.600597	-2.918497
O	-0.697385	-1.877915	-2.684455
F	-2.660098	0.0	0.0
