13

C	0.0	0.0	0.0
C	-0.555941	-0.153186	-1.387677
Cl	1.761328	0.0	0.0
H	-0.226209	-1.067065	-1.870618
H	-0.373309	0.895596	0.477115
H	-1.69464	-0.098454	-1.099961
N	-0.442076	-1.15011	0.860532
O	-0.564894	-0.91707	2.056086
O	-0.552513	-2.24849	0.327776
N	-0.152044	0.975218	-2.223335
O	0.074732	0.755977	-3.418461
O	-0.106738	2.097431	-1.710793
F	-2.613234	0.0	0.0
