17

C	-0.552005	-0.01156	-1.406343
C	0.0	0.0	0.0
Cl	0.14446	-1.386891	-2.317933
H	1.090398	0.0	0.0
C	-2.007291	-0.125134	-1.464203
N	-3.167125	-0.322573	-1.467195
N	-0.135097	1.233401	-2.216643
O	0.914525	1.764503	-1.902463
O	-0.857721	1.516576	-3.164403
C	-0.324266	-1.246354	0.802315
H	-1.402349	-1.3998	0.926542
H	0.125496	-2.118187	0.322719
H	0.145498	-1.125127	1.777916
N	-0.491514	1.171716	0.680372
O	-1.111792	2.039719	0.024868
O	-0.199984	1.291194	1.881109
H	2.423641	0.0	0.0
