17

C	-0.526917	-0.003889	-1.414085
C	0.0	0.0	0.0
Cl	0.180928	-1.388993	-2.306708
H	1.090416	0.0	0.0
C	-1.980034	-0.103913	-1.511924
N	-3.141262	-0.288906	-1.54036
N	-0.072329	1.236312	-2.212257
O	-0.74628	1.504889	-3.200812
O	0.95596	1.775839	-1.848911
C	-0.371214	-1.227843	0.810183
H	0.032634	-2.122019	0.332054
H	-1.455912	-1.329368	0.93642
H	0.104204	-1.126618	1.785662
N	-0.466971	1.192523	0.67251
O	-1.105563	2.047563	0.0194
O	-0.131496	1.331693	1.860203
H	2.452538	0.0	0.0
