17

C	-0.415355	-0.020372	-1.457457
C	0.0	0.0	0.0
Cl	0.284678	1.357622	-2.309477
H	1.091647	0.0	0.0
C	0.033521	-1.262405	-2.085326
N	0.363642	-2.26214	-2.608284
N	-1.962518	-0.000735	-1.652895
O	-2.515539	-1.048238	-1.332356
O	-2.501613	1.015214	-2.056072
C	-0.482197	-1.159588	0.844612
H	0.003988	-1.068384	1.819978
H	-1.565723	-1.173625	0.964652
H	-0.149116	-2.099658	0.401027
N	-0.492061	1.271391	0.617895
O	-1.717859	1.431781	0.657172
O	0.330179	2.05399	1.08092
H	2.64483	0.0	0.0
