17

C	-0.488236	0.046812	-1.429195
C	0.0	0.0	0.0
Cl	-2.265892	0.267226	-1.566671
H	1.091968	0.0	0.0
C	0.153904	1.038131	-2.289005
N	0.613997	1.782444	-3.07388
N	-0.136652	-1.333238	-2.041939
O	1.001009	-1.424769	-2.484112
O	-0.970941	-2.224051	-1.971355
C	-0.382197	-1.237305	0.775159
H	-1.458985	-1.4201	0.795159
H	-0.015954	-1.105654	1.791535
H	0.13225	-2.102329	0.352241
N	-0.355901	1.222928	0.672476
O	-0.38795	2.264721	-0.010373
O	-0.459811	1.206782	1.911992
H	2.409265	0.0	0.0
