16

C	0.0	0.0	0.0
C	-0.257311	0.039664	-1.558554
Cl	1.798016	0.0	0.0
H	0.189301	-0.910713	-1.884173
N	-0.465386	1.255935	0.682723
O	-0.593657	2.259277	-0.012699
O	-0.588528	1.195105	1.900826
C	-0.51677	-1.247162	0.668609
H	-1.608667	-1.210474	0.670504
H	-0.167951	-2.116292	0.103836
H	-0.134468	-1.29049	1.688507
C	0.507955	1.085101	-2.270731
N	1.016991	1.812796	-3.037804
C	-1.595139	0.094598	-2.187152
N	-2.436175	0.196673	-2.987786
Cl	-3.472578	0.0	0.0
