16

C	0.0	0.0	0.0
C	-0.621897	0.333022	-1.362881
Cl	1.753318	0.0	0.0
H	-1.721524	0.407534	-1.152045
N	-0.406028	1.110891	0.987674
O	-0.958214	2.104556	0.53371
O	-0.126421	0.907479	2.16192
C	-0.512223	-1.31773	0.539785
H	-1.604766	-1.277339	0.568856
H	-0.110592	-1.466973	1.541022
H	-0.178457	-2.128702	-0.108759
C	-0.396851	-0.775296	-2.292281
N	-0.221668	-1.65699	-3.048036
C	-0.109641	1.56318	-1.965967
N	0.331458	2.519217	-2.48632
Cl	-3.626941	0.0	0.0
