15

C	-0.391262	0.012058	-1.474733
C	0.0	0.0	0.0
Cl	-2.178175	0.209321	-1.692171
H	1.097338	0.0	0.0
H	0.061522	0.891664	-1.932818
C	0.014294	-1.191244	-2.196553
N	0.317458	-2.156695	-2.793503
C	-0.498094	-1.230877	0.743459
H	-0.127703	-2.151443	0.285482
H	-0.122177	-1.196497	1.768572
H	-1.592565	-1.265767	0.77162
N	-0.411261	1.277531	0.575557
H	-1.336086	1.197211	0.985964
H	0.24636	1.519324	1.308229
Br	3.548495	0.0	0.0
