15

C	-0.405859	-0.010222	-1.490207
C	0.0	0.0	0.0
Cl	0.183807	1.449054	-2.345902
H	1.095655	0.0	0.0
H	0.063103	-0.862185	-1.987404
C	-1.858375	-0.080693	-1.64874
N	-3.030295	-0.14491	-1.703505
C	-0.480784	-1.28727	0.654344
H	-0.066011	-1.324774	1.662057
H	-1.573691	-1.32598	0.72374
H	-0.129623	-2.166418	0.106974
N	-0.472118	1.1452	0.750414
H	-1.465896	1.292898	0.607882
H	0.027634	1.974875	0.457648
Br	3.56856	0.0	0.0
