16

C	0.0	0.0	0.0
C	-0.6607	0.209269	-1.361756
Br	1.937819	0.0	0.0
H	-1.56736	0.775704	-1.129728
H	-0.334608	-0.921302	0.468166
N	-0.353304	1.104297	0.967434
O	-0.50001	0.781684	2.140897
O	-0.413892	2.245281	0.520097
N	-1.00412	-1.128481	-1.851225
H	-1.212447	-1.052362	-2.84171
H	-1.892659	-1.347349	-1.397683
C	0.161056	0.973685	-2.383102
H	1.001072	0.373211	-2.74057
H	-0.482502	1.216844	-3.23404
H	0.534774	1.908205	-1.964913
Cl	-3.603229	0.0	0.0
