16

C	-0.445013	0.106982	-1.449788
C	0.0	0.0	0.0
F	0.162129	-0.82633	-2.258759
H	1.091706	0.0	0.0
C	-1.913655	-0.021426	-1.591594
N	-3.08428	-0.040428	-1.699604
C	-0.07352	1.438459	-1.985133
N	0.155972	2.490298	-2.454765
N	-0.460168	-1.247124	0.581641
O	-0.865361	-2.146918	-0.174146
O	-0.314396	-1.385959	1.804047
C	-0.392271	1.192471	0.847661
H	-0.062801	0.996058	1.866708
H	0.140594	2.07597	0.492556
H	-1.470388	1.382773	0.845531
H	2.481961	0.0	0.0
