16

C	-0.432668	-0.051241	-1.447282
C	0.0	0.0	0.0
F	-1.824078	-0.114334	-1.571833
H	1.093167	0.0	0.0
C	-0.008926	1.192948	-2.126257
N	0.28763	2.181785	-2.685972
C	0.134855	-1.170575	-2.228123
N	0.549087	-1.967246	-2.986177
N	-0.430258	-1.191732	0.695232
O	-0.495431	-1.141999	1.93305
O	-0.597892	-2.234922	0.038408
C	-0.403643	1.262929	0.728499
H	0.021336	2.128203	0.216112
H	-1.488111	1.374622	0.80723
H	0.027792	1.226765	1.727433
H	2.464283	0.0	0.0
