16

C	-0.44739	0.02546	-1.453039
C	0.0	0.0	0.0
F	0.144795	-0.966489	-2.203559
H	1.091727	0.0	0.0
C	-1.918192	-0.087214	-1.583321
N	-3.090184	-0.080076	-1.666894
C	-0.05729	1.315727	-2.068881
N	0.195273	2.334425	-2.596062
N	-0.466769	-1.205374	0.654383
O	-0.296592	-1.278788	1.879897
O	-0.900013	-2.140711	-0.040972
C	-0.380852	1.243091	0.77901
H	0.134061	2.107176	0.353442
H	-0.022543	1.11402	1.798789
H	-1.461291	1.422727	0.795183
H	2.47978	0.0	0.0
