16

C	-0.429991	-0.074826	-1.44739
C	0.0	0.0	0.0
F	-1.820365	-0.137558	-1.574552
H	1.092087	0.0	0.0
C	-0.015806	1.163199	-2.140649
N	0.231973	2.16351	-2.702152
C	0.128688	-1.196776	-2.231213
N	0.543235	-2.003249	-2.978785
N	-0.420313	-1.190153	0.70818
O	-0.496119	-1.124642	1.94367
O	-0.564727	-2.243268	0.065801
C	-0.405609	1.270641	0.712436
H	0.023575	2.128872	0.192823
H	-1.488753	1.38693	0.784995
H	0.020753	1.246062	1.713581
H	2.468444	0.0	0.0
