16
Coordinates from ORCA-job run
  C   0.65167877547456      0.15623265384532     -0.90204818834137
  C   -0.71457427886861     -0.22792679876244     -0.32599529960260
  Cl  1.06616482671121     -0.96091924477952     -2.24505217491534
  H   -1.37551367763048     -0.40261468036473     -1.18080798460498
  H   0.57217697334149      1.14202915982317     -1.36795189201123
  C   1.77646580996119      0.13727419207650      0.11452348642072
  H   1.89525513293468     -0.87089920035586      0.51206238597679
  H   1.56900523202670      0.82999106788132      0.93512681337615
  H   2.71639020495822      0.43764002916335     -0.35032232117486
  C   -1.29749706875498      0.92090796856537      0.50026782490534
  H   -0.68895624730792      1.11809354393227      1.38748531788133
  H   -2.30258819379564      0.65786618150071      0.83897683833365
  H   -1.36602075857800      1.84677796247775     -0.07800976840408
  N   -0.61043073972371     -1.48545537868420      0.40854667801961
  H   -0.40717777633810     -1.30681988946503      1.38484118906455
  H   -1.48437821441061     -1.99217756685400      0.36735709507634
