10
Coordinates from ORCA-job run
  C   -0.75113087769779     -0.38975483079167     -0.04878275442086
  C   0.76559442367727     -0.37445408534991     -0.27981028046555
  Cl  -1.27584958048487     -2.06463080957166      0.27035181131933
  H   1.00677380762436     -1.06553828098802     -1.09127992277491
  H   -1.27088865730790     -0.06142189375283     -0.95090596894929
  H   1.27613836001170     -0.72162186623253      0.62184365522300
  C   -1.13112114417029      0.47610697884261      1.06330642175088
  N   -1.41802318375952      1.18242408367972      1.95646942949290
  C   1.22535970558959      0.96845726725584     -0.62716334159828
  N   1.57414714651745      2.05143343690844     -0.91402904957721
