10
Coordinates from ORCA-job run
  C   -0.62256140361733     -0.58351458575096      0.22015826921767
  C   0.57595013115325     -0.24038498041050     -0.67095317944562
  Cl  -0.07217802515270     -1.30512811387633      1.75341894154760
  H   0.20771229324905      0.11918133859541     -1.63698180119473
  H   -1.22960535534595     -1.33986363496622     -0.28237039259748
  H   1.15566958214705     -1.15042140542104     -0.84447597429647
  C   -1.45200482264506      0.59005063633278      0.47837362809963
  N   -2.12626016890992      1.53570468492452      0.65180730130825
  C   1.43657746091837      0.77719481830231     -0.07339777467556
  N   2.12670030820323      1.59718124227002      0.40342098203671
