10
Coordinates from ORCA-job run
  C   -0.54743652132691     -0.48641894505416      0.17110446074537
  C   0.52696099722281      0.54169687679414     -0.20740017115673
  Cl  -0.09348435967382     -1.34626001722885      1.66387116515978
  H   0.67940055691751      1.23069589048240      0.62689916535837
  H   -0.63961078215717     -1.24157052259935     -0.61234828261662
  H   0.17983636984504      1.12226373323766     -1.06772187632484
  C   -1.83440789240296      0.18194148025472      0.34432749814733
  N   -2.85441484442852      0.75141732663356      0.46264196951135
  C   1.78910434483362     -0.10995053182120     -0.54719854416750
  N   2.79305213117040     -0.64381529069892     -0.83517538465651
