14

C	-0.531356	0.046971	-1.4259
C	0.0	0.0	0.0
Cl	0.137123	1.407392	-2.32306
H	1.097173	0.0	0.0
H	-0.35721	-0.934698	0.442575
C	-0.285252	-1.192049	-2.161629
N	-0.119821	-2.180036	-2.776502
N	-2.071104	0.190622	-1.346564
O	-2.601212	1.230426	-1.691061
O	-2.634437	-0.788977	-0.864286
N	-0.492154	1.172704	0.721974
H	-0.874041	0.887728	1.615787
H	0.312654	1.761414	0.909681
H	2.813231	0.0	0.0
