14

C	-0.5302	0.020794	-1.435829
C	0.0	0.0	0.0
Cl	0.065652	-1.344013	-2.371768
H	1.097464	0.0	0.0
H	-0.35536	0.919204	0.475059
C	-1.991862	0.021576	-1.473346
N	-3.167322	0.009607	-1.466964
N	-0.083413	1.348993	-2.082292
O	-0.585195	2.339547	-1.557455
O	0.706599	1.338195	-3.009276
N	-0.476002	-1.207173	0.65796
H	-1.051929	-0.983082	1.456251
H	0.341408	-1.711961	0.985408
H	2.827995	0.0	0.0
