14

C	-0.527593	-0.005414	-1.434303
C	0.0	0.0	0.0
Cl	0.03781	-1.409339	-2.330043
H	1.097808	0.0	0.0
H	-0.357191	0.927721	0.456617
C	-1.98797	0.032929	-1.488544
N	-3.162921	0.058761	-1.51085
N	-0.03506	1.293393	-2.107383
O	-0.558129	2.308931	-1.650899
O	0.813926	1.236978	-2.978377
N	-0.49621	-1.186592	0.691811
H	-0.911522	-0.921119	1.573071
H	0.317707	-1.753705	0.903657
H	2.815933	0.0	0.0
