14

C	-0.631118	0.046901	-1.374289
C	0.0	0.0	0.0
Cl	0.010839	-1.234979	-2.431113
H	1.090341	0.0	0.0
H	-0.307235	-0.953775	0.445183
C	-2.086531	-0.086896	-1.296717
N	-3.235919	-0.271314	-1.137485
N	-0.342566	1.380419	-2.068892
O	-1.167149	1.744643	-2.905767
O	0.695683	1.946034	-1.770545
N	-0.497338	1.159004	0.738722
H	-1.029309	0.875621	1.549033
H	0.315774	1.676798	1.05497
H	2.843959	0.0	0.0
