14

C	-0.34883	0.110579	-1.474276
C	0.0	0.0	0.0
F	-1.658157	0.491067	-1.677453
H	1.093242	0.0	0.0
H	-0.311056	0.947255	0.449668
N	0.524852	1.012778	-2.080096
H	0.521614	0.916423	-3.0873
H	1.474738	0.889707	-1.730669
N	-0.327531	-1.296612	-2.15679
O	-1.21279	-2.079108	-1.833097
O	0.553268	-1.506111	-2.988361
C	-0.58532	-1.100094	0.744351
N	-1.082331	-1.955307	1.376297
Cl	3.27956	0.0	0.0
