14

C	-0.310713	0.143834	-1.474066
C	0.0	0.0	0.0
F	-1.634073	0.438536	-1.728406
H	1.092132	0.0	0.0
H	-0.38666	-0.9387	0.392524
N	0.524783	1.073585	-2.07546
H	1.474005	1.000457	-1.709839
H	0.522065	0.987078	-3.082554
N	-0.223678	-1.278952	-2.146443
O	-0.734677	-2.221723	-1.549222
O	0.271164	-1.328784	-3.270173
C	-0.523562	1.128754	0.753174
N	-0.952415	2.026961	1.375007
Cl	3.279629	0.0	0.0
