14

C	-0.325931	0.142199	-1.471473
C	0.0	0.0	0.0
F	-1.649057	0.455358	-1.712615
H	1.093997	0.0	0.0
H	-0.380949	-0.937987	0.398378
N	0.511339	1.062667	-2.086444
H	1.465917	0.97815	-1.739172
H	0.477987	0.985337	-3.093949
N	-0.258728	-1.276655	-2.150542
O	-0.576382	-2.261414	-1.492257
O	0.036902	-1.282403	-3.342919
C	-0.519148	1.130825	0.753762
N	-0.93341	2.034666	1.376986
Cl	3.286015	0.0	0.0
