14

C	-0.304245	-0.006751	-1.481397
C	0.0	0.0	0.0
F	-0.121943	1.297652	-1.95649
H	1.09434	0.0	0.0
H	-0.384091	0.907525	0.462398
N	0.443521	-0.970922	-2.141533
H	1.418806	-0.919417	-1.853088
H	0.332411	-0.926613	-3.144118
N	-1.787998	-0.218636	-1.797574
O	-2.598309	0.130956	-0.944604
O	-2.06173	-0.645282	-2.915465
C	-0.509351	-1.186767	0.670186
N	-0.915714	-2.141684	1.218543
Cl	3.294401	0.0	0.0
