14

C	-0.53559	0.049113	-1.414804
C	0.0	0.0	0.0
F	0.067118	-0.92817	-2.169672
H	1.090295	0.0	0.0
H	-0.339178	0.884165	0.54134
N	-1.948186	0.000887	-1.500649
H	-2.295569	-0.803264	-0.99246
H	-2.217957	-0.071046	-2.474079
N	-0.156077	1.365195	-2.096879
O	-0.346986	1.384042	-3.3089
O	0.241509	2.295351	-1.41074
C	-0.51966	-1.19819	0.648875
N	-0.999156	-2.155938	1.130703
Cl	3.299801	0.0	0.0
