14

C	-0.400944	0.158454	-1.467342
C	0.0	0.0	0.0
F	-1.618643	0.762311	-1.563936
H	1.091837	0.0	0.0
H	-0.304799	0.92565	0.499541
N	0.533128	0.875819	-2.267981
H	0.531203	1.840588	-1.95428
H	1.466139	0.507128	-2.079538
N	-0.544237	-1.224906	-2.099496
O	-1.671791	-1.626393	-2.356875
O	0.508548	-1.824218	-2.274336
C	-0.601297	-1.131769	0.684256
N	-1.106616	-2.036148	1.236901
Cl	3.294261	0.0	0.0
