14

C	-0.370747	0.119307	-1.473459
C	0.0	0.0	0.0
F	-1.719134	0.315779	-1.616894
H	1.092271	0.0	0.0
H	-0.395423	-0.917853	0.437455
N	0.318689	1.102768	-2.222148
H	1.31819	0.919554	-2.15136
H	0.136786	2.004709	-1.794229
N	-0.094215	-1.253333	-2.108086
O	0.797842	-1.343703	-2.939658
O	-0.815734	-2.163201	-1.710499
C	-0.495099	1.165756	0.717565
N	-0.899255	2.121353	1.267178
Cl	3.275876	0.0	0.0
