15

C	0.0	0.0	0.0
C	-0.502705	-0.290374	-1.40482
F	1.399866	0.0	0.0
H	-1.59546	-0.280189	-1.338906
H	-0.184504	0.533201	-2.060232
C	-0.365275	1.382348	0.382441
N	-0.5422	2.493147	0.717643
C	-0.493243	-0.995212	1.024128
H	-0.059601	-0.764597	1.999569
H	-0.190795	-1.99154	0.702449
H	-1.583195	-0.930257	1.068366
N	-0.026604	-1.601808	-1.838318
H	0.896097	-1.516368	-2.244391
H	-0.653818	-1.969399	-2.540868
Cl	-3.809183	0.0	0.0
