15

C	0.0	0.0	0.0
C	-0.5137	0.498378	-1.33385
F	1.400488	0.0	0.0
H	-0.262006	-0.266967	-2.084702
H	-1.603734	0.536584	-1.237944
C	-0.362892	0.946585	1.077234
N	-0.570499	1.676534	1.97177
C	-0.493537	-1.393103	0.324268
H	-0.08919	-1.71831	1.284584
H	-1.586218	-1.373389	0.362726
H	-0.157237	-2.081948	-0.455461
N	0.023916	1.820857	-1.628702
H	-0.602315	2.311831	-2.251139
H	0.926952	1.743891	-2.075132
Cl	-3.817846	0.0	0.0
