15

C	0.0	0.0	0.0
C	-0.385757	-0.225784	-1.481648
F	1.396075	0.0	0.0
H	0.302369	0.407706	-2.052726
H	-0.120326	-1.266566	-1.704369
C	-0.381969	1.368575	0.402726
N	-0.60685	2.482552	0.697376
C	-0.561362	-1.030085	0.946909
H	-0.207927	-0.852166	1.964668
H	-1.653645	-0.967866	0.927502
H	-0.242497	-2.024433	0.623762
N	-1.73421	0.035632	-1.905159
H	-2.434308	-0.477416	-1.374365
H	-1.979006	1.005962	-1.749022
Cl	-4.326082	0.0	0.0
