15

C	0.0	0.0	0.0
C	-0.541426	0.281688	-1.392792
F	1.387766	0.0	0.0
H	0.089403	-0.293674	-2.07921
H	-1.566598	-0.100994	-1.418874
C	-0.381004	1.067694	0.949625
N	-0.574396	1.929523	1.722001
C	-0.473244	-1.348164	0.50656
H	-0.005436	-1.564249	1.470003
H	-1.560595	-1.333214	0.604498
H	-0.176273	-2.119722	-0.210581
N	-0.447449	1.705243	-1.728039
H	-0.604917	1.805221	-2.72414
H	-1.235202	2.161946	-1.276823
Cl	-3.756973	0.0	0.0
