15

C	0.0	0.0	0.0
C	-0.527767	0.243403	-1.407712
F	1.388529	0.0	0.0
H	-1.540556	-0.168074	-1.449742
H	0.132205	-0.327744	-2.069723
C	-0.382567	1.092104	0.920193
N	-0.581055	1.972357	1.670488
C	-0.470776	-1.338458	0.534342
H	-0.177576	-2.12046	-0.172269
H	-3e-05	-1.538294	1.498936
H	-1.557066	-1.318452	0.63386
N	-0.465953	1.661075	-1.767088
H	-0.547199	1.739355	-2.774279
H	-1.298096	2.097878	-1.380437
Cl	-3.711592	0.0	0.0
