15

C	0.0	0.0	0.0
C	-0.484677	-0.251922	-1.428353
F	1.398651	0.0	0.0
H	-0.01368	0.503345	-2.067133
H	-1.566404	-0.094997	-1.430743
C	-0.366985	1.372358	0.411414
N	-0.563737	2.470541	0.777686
C	-0.495461	-1.008496	1.009583
H	-1.589118	-0.984504	1.014152
H	-0.10904	-0.763794	2.001472
H	-0.137937	-2.002563	0.731448
N	-0.181793	-1.576589	-1.950531
H	0.764132	-1.839378	-1.698458
H	-0.819777	-2.25056	-1.547959
Cl	-3.753963	0.0	0.0
