16
Coordinates from ORCA-job run
  C   -0.86999706696721      0.02352036285266     -0.02377239579508
  C   0.46934869950167      0.16386577119343      0.13218671549253
  C   -1.74808946866895      0.96775510983184      0.60892346665202
  N   -2.50310644451329      1.71818281729876      1.11139792795972
  C   -1.58120325669678     -1.06778515174951     -0.78593577050593
  H   -0.91573962378879     -1.58576798371267     -1.47427773912818
  H   -2.01333773428387     -1.80137942340575     -0.09880964201155
  H   -2.40226397422412     -0.64323568374996     -1.36790857408793
  C   1.46916035545259     -0.78580737008602     -0.46543905406766
  H   2.23751691211345     -1.02644223227715      0.27521057053099
  H   1.98343299708668     -0.31251527705030     -1.30956188668361
  H   1.03239051021478     -1.72073398458220     -0.81186169780794
  C   1.07644534229885      1.30180598540617      0.90333080201212
  H   0.33670255836826      2.02760392377029      1.24115089357998
  H   1.81578976031309      1.82052475446561      0.28422484264276
  H   1.60995043379363      0.91940838179481      1.78014154121776
