16
Coordinates from ORCA-job run
  C   -0.85021423567771     -0.14303650819132      0.13562522852548
  C   0.50158820863411     -0.04997345410838      0.10948331448625
  C   -1.48165331239535     -0.87722297477593      1.19520086049294
  N   -2.03763454208164     -1.46809546048950      2.04816765313534
  C   -1.80280261870030      0.50222957804040     -0.84258893031984
  H   -2.15578884388911      1.46665819048552     -0.46470122174958
  H   -2.67880305383830     -0.13267235560696     -0.98860472309630
  H   -1.33784227815463      0.66031048732027     -1.81456955488510
  C   1.23661139585866      0.72845132475841     -0.94595697297767
  H   2.08274605774553      1.25604017692063     -0.49702191046549
  H   0.61360422935347      1.46406164391776     -1.45276553906306
  H   1.65115956779907      0.05059796210384     -1.70111670619534
  C   1.38083107227921     -0.73677058673615      1.11477685778276
  H   0.82158707800829     -1.37363877856839      1.80041760320049
  H   1.93167873655253      0.00462806512239      1.70329157283041
  H   2.12693253850617     -1.35156731019258      0.60036246829870
