16
Coordinates from ORCA-job run
  C   -0.87278091941129      0.06344859751870     -0.06020069377587
  C   0.46259720107612      0.17443933573118      0.14201447811662
  C   -1.73704631814385      1.12665410086717      0.36538606030827
  N   -2.47616229771802      1.97978004046527      0.69990830144275
  C   -1.55851598498259     -1.09460760447883     -0.74912674593726
  H   -1.07552829528292     -2.04254546964334     -0.51143496619085
  H   -2.60048167766305     -1.16090971577219     -0.43323248939048
  H   -1.55000905389692     -0.96576062309961     -1.83571888856016
  C   1.42841120838735     -0.88515977330592     -0.30816092190207
  H   1.76874460347226     -1.47917862525989      0.54792396275399
  H   1.00836708159953     -1.56339414629567     -1.04981970112733
  H   2.31785516200884     -0.41915788505525     -0.74171357904851
  C   1.08509832878502      1.34376792665443      0.84870733304755
  H   0.34598569486129      2.04170553099340      1.24250806166970
  H   1.74553610048611      1.88944449444843      0.16628097677383
  H   1.70792916642211      0.99147381623212      1.67767881181981
