17

C	-0.551143	0.049914	-1.419911
C	0.0	0.0	0.0
Cl	0.153712	1.316054	-2.435962
H	1.09299	0.0	0.0
N	-0.158809	-1.265454	-2.062687
O	-1.016659	-1.864934	-2.668834
O	0.97877	-1.61535	-1.886141
C	-2.002957	0.171368	-1.4213
N	-3.159069	0.31859	-1.348472
N	-0.486018	-1.249591	0.575909
H	0.288747	-1.758843	0.981336
H	-1.181895	-1.089664	1.278597
C	-0.459313	1.236928	0.755476
H	-0.145297	2.160658	0.268262
H	0.013941	1.201641	1.733513
H	-1.543678	1.256769	0.880686
Cl	3.582654	0.0	0.0
