17

C	-0.467417	-0.013143	-1.467823
C	0.0	0.0	0.0
Cl	-2.237267	0.168436	-1.608292
H	1.098927	0.0	0.0
N	0.186867	1.134897	-2.255423
O	1.115083	0.83266	-2.990572
O	-0.253221	2.259126	-2.055203
C	-0.101839	-1.265362	-2.121519
N	0.131318	-2.294048	-2.6382
N	-0.472259	-1.255469	0.583377
H	-0.94104	-1.078161	1.462325
H	0.333327	-1.845737	0.769155
C	-0.472663	1.208572	0.786977
H	0.02005	1.170817	1.761167
H	-0.195562	2.145394	0.307551
H	-1.557308	1.192622	0.930922
Cl	3.307424	0.0	0.0
