17

C	-0.492269	-0.008794	-1.454404
C	0.0	0.0	0.0
Cl	-2.279508	0.001656	-1.534473
H	1.094701	0.0	0.0
N	0.016588	1.23472	-2.201191
O	1.014813	1.079664	-2.891348
O	-0.585025	2.282071	-2.007916
C	-0.032002	-1.191391	-2.17534
N	0.278807	-2.152367	-2.775164
N	-0.423767	-1.274588	0.568579
H	0.357329	-1.680102	1.06428
H	-1.197294	-1.152103	1.20659
C	-0.453482	1.21339	0.797681
H	-0.076207	2.146517	0.38075
H	-1.543339	1.273454	0.866061
H	-0.037976	1.107985	1.801592
Cl	3.315287	0.0	0.0
