17

C	-0.489362	-0.010863	-1.451573
C	0.0	0.0	0.0
Cl	0.263555	1.269637	-2.426157
H	1.093431	0.0	0.0
N	-0.101968	-1.342259	-2.111942
O	0.991316	-1.792109	-1.821076
O	-0.910071	-1.813763	-2.907733
C	-1.943841	0.109777	-1.531742
N	-3.107736	0.271903	-1.51461
N	-0.501589	-1.246222	0.577892
H	-1.125403	-1.064793	1.353616
H	0.285272	-1.791187	0.906263
C	-0.490293	1.232913	0.740473
H	-1.583179	1.241239	0.824994
H	-0.166224	2.152262	0.251127
H	-0.056775	1.219593	1.743002
Cl	3.392157	0.0	0.0
