17

C	-0.526268	-0.02758	-1.433436
C	0.0	0.0	0.0
Cl	0.24473	1.204289	-2.455584
H	1.094668	0.0	0.0
N	-0.217497	-1.378336	-2.096219
O	0.764828	-1.980288	-1.697747
O	-0.965665	-1.712421	-3.009899
C	-1.977724	0.145526	-1.475461
N	-3.133421	0.355394	-1.443413
N	-0.547334	-1.201659	0.63484
H	0.207074	-1.864726	0.76527
H	-0.929376	-0.972795	1.542854
C	-0.457215	1.261593	0.717223
H	-1.542869	1.270793	0.861219
H	-0.161984	2.160578	0.175064
H	0.034888	1.290428	1.691865
Cl	3.402487	0.0	0.0
