18

C	0.0	0.0	0.0
C	-0.554739	-0.119899	-1.433989
F	1.361784	0.0	0.0
H	0.313199	-0.093883	-2.103147
N	-0.227594	1.408487	0.648728
O	-1.083632	1.535955	1.507312
O	0.57379	2.2723	0.303317
C	-0.495112	-1.026819	0.976848
H	-1.577884	-0.884517	1.04404
H	-0.254538	-2.017448	0.593643
H	0.000471	-0.860228	1.935168
N	-1.386855	1.088401	-1.982465
O	-1.437961	2.173052	-1.43084
O	-1.900449	0.834208	-3.073233
N	-1.303027	-1.316699	-1.569986
H	-1.568158	-1.405594	-2.542896
H	-2.15345	-1.076329	-0.993066
F	-2.863587	0.0	0.0
