18

C	0.0	0.0	0.0
C	-0.378695	0.202804	-1.495476
F	1.359263	0.0	0.0
H	0.511002	-0.153635	-2.029478
N	-0.416888	1.139199	0.924864
O	0.005268	1.032346	2.075125
O	-1.119382	2.044264	0.503355
C	-0.552108	-1.272582	0.575364
H	-1.64312	-1.152568	0.596589
H	-0.274091	-2.102843	-0.075229
H	-0.131172	-1.411718	1.572057
N	-0.281925	1.722421	-1.876831
O	0.741624	2.315695	-1.542379
O	-1.173431	2.189718	-2.576425
N	-1.543569	-0.437255	-1.908203
H	-2.337007	-0.233488	-1.204618
H	-1.77555	-0.154915	-2.850607
F	-3.067496	0.0	0.0
