18

C	0.0	0.0	0.0
C	-0.299511	0.072931	-1.529474
F	1.371413	0.0	0.0
H	-0.144421	1.103938	-1.836353
N	-0.410182	1.26322	0.71607
O	-0.444212	2.303196	0.062403
O	-0.537741	1.196252	1.93312
C	-0.411741	-1.244574	0.73988
H	-0.082254	-2.106501	0.152781
H	-1.499084	-1.210063	0.820902
H	0.097742	-1.254965	1.703576
N	-1.676331	-0.273048	-2.032204
O	-1.94734	-1.467808	-2.094817
O	-2.302898	0.627781	-2.57413
N	0.559163	-0.806556	-2.311435
H	1.509939	-0.71535	-1.98008
H	0.250635	-1.758713	-2.144523
F	-2.503002	0.0	0.0
