18

C	0.0	0.0	0.0
C	-0.576501	-0.062769	-1.416555
F	1.360805	0.0	0.0
H	-1.677659	-0.018685	-1.228904
N	-0.367762	1.358191	0.622622
O	-0.010357	1.50504	1.789356
O	-0.908929	2.225458	-0.052958
C	-0.511673	-1.082313	0.910218
H	-0.145175	-2.046824	0.553701
H	-0.128733	-0.903401	1.914991
H	-1.608672	-1.01043	0.849016
N	-0.224583	-1.432468	-1.934989
O	-1.072212	-2.320501	-1.878277
O	0.914759	-1.580261	-2.383284
N	-0.069645	0.877714	-2.378122
H	-0.544738	1.753089	-2.213769
H	0.925726	1.010783	-2.245116
F	-2.842988	0.0	0.0
