18

C	0.0	0.0	0.0
C	-0.540125	-0.07611	-1.433025
F	1.371658	0.0	0.0
H	-1.619896	0.133464	-1.314016
N	-0.376306	1.367178	0.579068
O	-0.651037	2.282364	-0.192208
O	-0.267508	1.493797	1.79429
C	-0.500956	-1.083701	0.910911
H	-0.09736	-2.035266	0.561643
H	-0.140964	-0.894522	1.921496
H	-1.598004	-1.026759	0.835331
N	-0.430002	-1.507779	-1.892243
O	-1.44999	-2.089267	-2.242197
O	0.703205	-1.99151	-1.938146
N	0.160508	0.69292	-2.428673
H	-0.158634	1.647439	-2.34572
H	1.154423	0.668972	-2.230935
F	-2.780248	0.0	0.0
