18

C	0.0	0.0	0.0
C	-0.391718	0.026266	-1.52256
F	1.359028	0.0	0.0
H	0.419752	-0.561493	-1.965628
N	-0.409137	1.246903	0.76878
O	-1.088926	2.096688	0.21288
O	-0.008855	1.289863	1.93104
C	-0.59043	-1.185108	0.70043
H	-1.682245	-1.03612	0.667358
H	-0.210688	-1.226709	1.722275
H	-0.302943	-2.094561	0.165379
N	-0.083366	1.439172	-2.096852
O	1.036954	1.892244	-1.853629
O	-0.927774	1.992301	-2.780347
N	-1.643887	-0.414985	-1.955819
H	-1.609578	-1.403832	-2.158678
H	-2.401286	-0.201881	-1.218224
F	-3.13065	0.0	0.0
