12

C	0.0	0.0	0.0
C	-0.556018	0.115102	-1.429036
Br	1.940163	0.0	0.0
H	-1.670142	0.119141	-1.259448
H	-0.355795	-0.933931	0.437046
C	-0.407712	1.130479	0.834161
N	-0.57732	2.036807	1.562567
C	-0.194463	-1.050895	-2.228074
N	0.068701	-1.999686	-2.869085
C	-0.147043	1.350161	-2.0892
N	0.157981	2.34826	-2.628169
Br	-3.463655	0.0	0.0
