12

C	0.0	0.0	0.0
C	-0.555309	0.125296	-1.43032
Br	1.939877	0.0	0.0
H	-1.670399	0.127708	-1.265248
H	-0.359079	-0.936404	0.428952
C	-0.411626	1.128727	0.833533
N	-0.595606	2.080984	1.497235
C	-0.190217	-1.035044	-2.237087
N	0.076937	-1.97798	-2.885245
C	-0.143527	1.364767	-2.081061
N	0.173173	2.366109	-2.607631
Br	-3.46136	0.0	0.0
