12

C	0.0	0.0	0.0
C	-0.433623	-0.124705	-1.507027
Br	1.942986	0.0	0.0
H	0.492529	-0.150633	-2.095459
H	-0.352963	-0.856923	0.569863
C	-0.40653	1.24693	0.640093
N	-0.507138	2.288026	1.178732
C	-1.160224	1.033877	-2.030121
N	-1.490128	2.007318	-2.600949
C	-1.083016	-1.409092	-1.785168
N	-1.346297	-2.499672	-2.13728
Br	-3.123911	0.0	0.0
