12

C	0.0	0.0	0.0
C	-0.44416	-0.195373	-1.495341
Br	1.942793	0.0	0.0
H	0.480106	-0.231102	-2.086254
H	-0.360907	-0.818308	0.617058
C	-0.393043	1.283114	0.572384
N	-0.486136	2.349129	1.058373
C	-1.199882	0.921333	-2.07168
N	-1.565288	1.843431	-2.704159
C	-1.065162	-1.503085	-1.70731
N	-1.324873	-2.614175	-1.990578
Br	-3.14185	0.0	0.0
