15

C	-0.501665	-0.026982	-1.427768
C	0.0	0.0	0.0
F	-0.216335	1.197033	-2.059443
H	1.094634	0.0	0.0
H	0.057784	-0.789302	-1.984109
H	-0.302712	-0.945421	0.472118
C	-1.995327	-0.246606	-1.586632
H	-2.297974	-1.190975	-1.126027
H	-2.548097	0.567121	-1.110916
H	-2.267771	-0.268722	-2.645713
C	-0.510588	1.185877	0.811029
H	-0.271593	2.11756	0.295114
H	-0.000411	1.209107	1.777408
H	-1.590701	1.160311	0.995647
H	3.156877	0.0	0.0
