14
Coordinates from ORCA-job run
  C   -0.54138458009437     -0.10186295406128      0.36404994578350
  C   -0.17659648516388     -0.16149791923443     -1.10436097468378
  Br  -2.53463191381772     -0.41849757589421      0.42818768466452
  H   -0.61428102890187      0.67912951882244     -1.63878235810183
  H   -0.48280147013967     -1.11021900041077     -1.54014195272708
  N   -0.40902529443908      1.32479409566556      0.91342267156350
  O   -0.06194881753502      1.41934889737861      2.08301944765563
  O   -0.70598471386387      2.23558062147843      0.15847683673613
  N   0.23336741415699     -0.95146418618134      1.13843393479801
  H   0.16786405817939     -1.92022646882942      0.85832632161607
  H   0.09745593298359     -0.82676643902579      2.13215468298896
  N   1.31043014219702     -0.07614747522905     -1.23636955346398
  O   1.88118552960835     -1.03690461325960     -1.74522986814876
  O   1.83835122683015      0.94573349878084     -0.81218681868088
