14
Coordinates from ORCA-job run
  C   -0.63297591445944     -0.20657786946580      0.33108455569837
  C   -0.11956984364611     -0.28947980919988     -1.09301287528186
  Br  -2.56687538895484     -0.43020408837118      0.24623267938669
  H   -0.63230432883054      0.40979721335488     -1.74713152294357
  H   -0.23925985054437     -1.30910749273116     -1.45957043084547
  N   -0.44144577729556      1.25820685685270      0.83452659791129
  O   -0.29080216905937      1.39292358643270      2.04021801552010
  O   -0.47701887879018      2.14677038211878     -0.00673385158717
  N   -0.09292150301099     -1.17386109321324      1.19246016346532
  H   -0.51538690360764     -1.12200615785350      2.11058514027722
  H   0.90824856953374     -1.03526442763080      1.27071907073045
  N   1.33949240352454      0.04084875836932     -1.20543100074724
  O   1.98082054440084      0.22213182737853     -0.17101593895080
  O   1.78199904073992      0.09582231395863     -2.34393060263330
