15

C	-0.413348	-0.063667	-1.461142
C	0.0	0.0	0.0
F	-1.810741	0.027768	-1.591268
H	1.091794	0.0	0.0
C	0.148523	1.129427	-2.126177
N	0.50035	2.113609	-2.662194
C	0.019944	-1.242003	-2.23069
N	0.329092	-2.075465	-2.996908
N	-0.539275	-1.223758	0.679636
O	-0.25723	-2.297575	0.145872
O	-1.1961	-1.111932	1.710516
N	-0.419801	1.191113	0.647249
H	-1.274648	1.601883	0.302751
H	0.343482	1.849739	0.670676
F	2.487908	0.0	0.0
