15

C	-0.390933	0.038765	-1.483523
C	0.0	0.0	0.0
F	-0.079448	-1.146498	-2.115401
H	1.090483	0.0	0.0
C	-1.837747	0.28681	-1.69092
N	-2.980312	0.505819	-1.857667
C	0.353209	1.141134	-2.123971
N	0.893708	2.024574	-2.677363
N	-0.621818	-1.244388	0.557179
O	0.04599	-2.276515	0.554235
O	-1.787734	-1.156044	0.95776
N	-0.430747	1.137696	0.73082
H	-1.314289	1.551572	0.468587
H	0.323455	1.805974	0.785298
F	2.51417	0.0	0.0
