15

C	-0.482601	0.020374	-1.457687
C	0.0	0.0	0.0
F	-0.103734	1.232812	-2.000532
H	1.091146	0.0	0.0
C	0.111704	-1.028814	-2.307147
N	0.567178	-1.818887	-3.04674
C	-1.956155	-0.044482	-1.533236
N	-3.12937	-0.047507	-1.565293
N	-0.455735	-1.251602	0.646468
O	-0.69494	-2.228391	-0.072484
O	-0.542032	-1.259279	1.874428
N	-0.437305	1.167453	0.690775
H	0.345341	1.518985	1.226213
H	-1.20413	0.972086	1.322213
F	2.477478	0.0	0.0
