15

C	-0.45248	-0.030982	-1.467238
C	0.0	0.0	0.0
F	-0.087757	1.175391	-2.032578
H	1.112917	0.0	0.0
C	0.18336	-1.084785	-2.278327
N	0.667832	-1.84436	-3.031382
C	-1.923906	-0.134888	-1.574494
N	-3.097626	-0.173657	-1.610461
N	-0.456731	-1.235896	0.668466
O	-0.613007	-1.206409	1.890133
O	-0.624733	-2.243789	-0.027057
N	-0.455789	1.184766	0.645103
H	0.309716	1.553153	1.19368
H	-1.241921	1.005949	1.256384
F	2.474002	0.0	0.0
