15

C	-0.473827	0.002935	-1.459845
C	0.0	0.0	0.0
F	-0.107585	1.217058	-2.007258
H	1.107673	0.0	0.0
C	0.13878	-1.040428	-2.302339
N	0.604028	-1.787507	-3.079538
C	-1.948141	-0.086293	-1.542219
N	-3.122479	-0.118064	-1.551519
N	-0.450872	-1.250142	0.649128
O	-0.664677	-2.234152	-0.068396
O	-0.554821	-1.254365	1.876364
N	-0.443381	1.170926	0.678682
H	-1.234803	0.988611	1.281854
H	0.325942	1.513669	1.238514
F	2.474314	0.0	0.0
