15

C	-0.538139	-0.163195	-1.417256
C	0.0	0.0	0.0
F	0.030747	-1.217458	-2.093908
H	1.11147	0.0	0.0
C	-2.011126	-0.333309	-1.423971
N	-3.182176	-0.418161	-1.389677
C	-0.235983	1.066762	-2.178057
N	-0.049567	1.992133	-2.874998
N	-0.452987	-1.130118	0.847846
O	-0.456806	-0.949257	2.06805
O	-0.761685	-2.191499	0.301228
N	-0.397185	1.273041	0.522493
H	0.387129	1.65599	1.033958
H	-1.188395	1.200518	1.150424
F	2.473485	0.0	0.0
