16
Coordinates from ORCA-job run
  C   0.75039968957125      0.04369690604767      0.41866526981454
  C   -0.76131415607034      0.21986377071948      0.31821287797832
  F   1.27404920126889      1.01383538763666      1.16568976987853
  H   -1.20709378368983      0.07509127665572      1.30170795269953
  N   1.07985695618880     -1.28806748415323      1.07565599309188
  O   2.16331885295029     -1.34455507044513      1.63235088608543
  O   0.22689189462663     -2.16108499612868      0.97084264834595
  N   1.46769233327671      0.08529495557011     -0.92814875237589
  O   1.35288770003712      1.16392886076727     -1.49021120933712
  O   2.09113035119783     -0.90295892759872     -1.27393828774895
  N   -1.43017041702742     -0.72134580517178     -0.62903363674516
  O   -2.58555985358258     -1.00247516992998     -0.33955236075869
  O   -0.79365099288978     -1.07437142203739     -1.61283581650455
  N   -1.12145337488456      1.63350726922633     -0.11424317945616
  O   -0.98853963016612      2.47416544012448      0.76236079293961
  O   -1.51944477080687      1.78447500871720     -1.25852294790729
