16
Coordinates from ORCA-job run
  C   0.77420061721408      0.02068757790864      0.39636038403048
  C   -0.71888512871995      0.32201316991858      0.33846909812737
  F   1.38461792906577      0.84953838170240      1.23708428574239
  H   -1.09112323646657      0.33848801648946      1.36495708807312
  N   0.96188711596134     -1.41028852898922      0.92450298023989
  O   0.68371807878162     -2.29946094014624      0.13443542419481
  O   1.34467603852138     -1.50082373461569      2.07898087132370
  N   1.51529624822524      0.11487292280400     -0.92521633277179
  O   2.56761029285854     -0.50496012572040     -0.97606386751182
  O   1.03898514210441      0.87966793823853     -1.75216399436918
  N   -1.49942389934168     -0.71334721117500     -0.40960696230003
  O   -2.42586942426983     -1.21841876409130      0.21822562705469
  O   -1.16367326490835     -0.93415496485819     -1.56408948040731
  N   -1.03813967641268      1.69485756985109     -0.24304135893038
  O   -1.91697704468613      1.74764445810523     -1.08488211115499
  O   -0.41489978792718      2.61368423457812      0.26204834865905
