16
Coordinates from ORCA-job run
  C   0.68665864326699     -0.40702727580742     -0.28812040945115
  C   -0.56004338759051      0.43813469333163     -0.48282921580646
  F   0.91457002380501     -1.08399610108602     -1.41394005577992
  H   -0.37054942940599      1.14498972609569     -1.29151255573129
  N   1.90428359359084      0.49947289404574     -0.06499381189596
  O   2.55367139385180      0.33964864001807      0.95506112602818
  O   2.10686137829066      1.26899646119428     -0.99147715761337
  N   0.61928996754420     -1.36642204806731      0.87923357474182
  O   0.08021932677248     -0.91381022654890      1.87830837247916
  O   1.13956632861258     -2.45482191501579      0.71313753247494
  N   -0.93822053382738      1.25158464758116      0.73334732730379
  O   -2.06215391317125      1.11200074030433      1.18234125559224
  O   -0.05455221503350      2.00645468995257      1.11097072892730
  N   -1.72096986424081     -0.41448389116056     -0.88115565213789
  O   -1.75521143459262     -1.55408383049351     -0.43001839857830
  O   -2.54141987787247      0.13236279565605     -1.60735266055309
