16
Coordinates from ORCA-job run
  C   0.71703974902423      0.17923600756710      0.11127774925063
  C   -0.76342581949191     -0.12267715168045     -0.01632938669344
  F   1.00250393613329      1.46399767660214      0.06670053461983
  H   -0.99862785922792     -1.12829309508790      0.32417332706887
  N   1.26034172023729     -0.40604662398009      1.42778979828988
  O   0.91787580777597     -1.55584339739614      1.66013852196241
  O   1.99426455154721      0.32205744763261      2.07052291165280
  N   1.49850459217693     -0.56026516379527     -0.96973576147457
  O   2.52820128128156     -0.02437706558981     -1.34257339578536
  O   1.02348236720594     -1.63695897668822     -1.30678413114149
  N   -1.24989105809108      0.03132596027631     -1.42011583761269
  O   -2.25315915173903     -0.61265357818794     -1.69727166744964
  O   -0.62757488588690      0.80691106090942     -2.13772981876300
  N   -1.51318899680866      0.85966777010311      0.85810784944467
  O   -2.39483063830082      1.53008829569795      0.34752321994703
  O   -1.14151559583610      0.85583083361717      2.02430608668407
