16
Coordinates from ORCA-job run
  C   0.47862871021425     -0.56846805165992      0.07732574452356
  C   -0.52506719053879      0.53758811435099     -0.18322707177099
  F   -0.06065089574220     -1.76763131487379      0.15132744015939
  H   -0.04059152634507      1.44331496934474     -0.54019237284817
  N   1.55307429248484     -0.57330845255128     -1.02606295854961
  O   2.01062601048938      0.52492285686609     -1.30482326641618
  O   1.85236617683516     -1.66613426075658     -1.47118551288321
  N   1.26272403131391     -0.27611061694827      1.35189751760257
  O   1.44694651033829      0.91153966234542      1.58487153112599
  O   1.65876082417275     -1.25026540041628      1.96892400209859
  N   -1.32333537057505      0.87145651679093      1.03434020580689
  O   -1.45989992607548     -0.01935914545856      1.86597789663925
  O   -1.79397061871858      2.00113766558394      1.05478742796879
  N   -1.47584170351893      0.05549217178286     -1.25886265764673
  O   -2.67221646102027      0.07753240653754     -1.02312627402925
  O   -0.91055286331422     -0.30170712093783     -2.28397165178089
