16
Coordinates from ORCA-job run
  C   0.74560103450569     -0.02304286123217     -0.03926547911530
  C   -0.76884089685181      0.03761159165862     -0.07725117570711
  F   1.33163812665801      1.06830518152584     -0.48626837055925
  H   -1.21218719228093     -0.95250871643743     -0.00249984053236
  N   1.22352798565080     -0.32166117542919      1.37750012613564
  O   2.31426225012779      0.13245754840620      1.67853076626337
  O   0.47343230964828     -1.02847173093203      2.03818277590398
  N   1.24375639627789     -1.22718591459350     -0.86011821346740
  O   2.19062249851854     -1.01388863202293     -1.59491517164877
  O   0.64979385904864     -2.27447726426864     -0.65140206708395
  N   -1.17454490988057      0.63728753914124     -1.40735434347215
  O   -1.90397108980088      1.61466348186753     -1.40077777934569
  O   -0.71517206745761      0.03935214037099     -2.37142942683104
  N   -1.32533713141342      0.89328542365490      1.01329998706709
  O   -0.59739083180648      1.78135326580169      1.44370921859317
  O   -2.47719034094395      0.63792012248888      1.33905899379977
