16
Coordinates from ORCA-job run
  C   0.71470076663900      0.19250531581369      0.10047174761091
  C   -0.76177899201471     -0.13669989937570     -0.00432412331007
  F   0.97677929554937      1.48158977759062      0.04385647749267
  H   -0.97557584382966     -1.14269067642209      0.34883577094998
  N   1.28712451046168     -0.37461875723309      1.41285356017610
  O   0.96341937250819     -1.52644339925276      1.66149045934418
  O   2.02358768543368      0.36813701556628      2.03577612094353
  N   1.49398909412691     -0.54054358533952     -0.98634924638440
  O   2.50651951725127      0.01238873093800     -1.38077049901981
  O   1.03609378668891     -1.63016992021037     -1.30537899566903
  N   -1.26972915000874     -0.00310921717792     -1.40242468677495
  O   -0.67128649014748      0.77819468521062     -2.13419369911554
  O   -2.26471004301635     -0.66726406103192     -1.66140647775529
  N   -1.51601919789553      0.84104894042067      0.87162181033380
  O   -2.41471183960025      1.49343644229199      0.36733394396537
  O   -1.12840247214630      0.85423860821151      2.03260783721256
