16
Coordinates from ORCA-job run
  C   0.80007684496758      0.21518828309220      0.18375337286124
  C   -0.60740840251684      0.53555274996959     -0.28804158897074
  F   1.32754794900868      1.32018328864784      0.71134970494171
  H   -0.54264553428182      1.30330417616328     -1.06000951507766
  N   0.88586680557163     -0.91804667634665      1.18168927259556
  O   1.71001723510707     -0.79312884682456      2.06948397185104
  O   0.13692937215783     -1.85593581362094      0.95105394236656
  N   1.68037460838521     -0.16403131746024     -1.01484276525323
  O   2.23275121513315     -1.25133907426338     -0.99415796873851
  O   1.75587974051190      0.71974692381978     -1.85435443751652
  N   -1.43068008767839      1.08157271047600      0.83350428348970
  O   -2.29401859313478      1.88379489525863      0.50088394639602
  O   -1.18534271493413      0.66213066590395      1.95930330893335
  N   -1.32635991572214     -0.64462205619989     -0.89994528156465
  O   -0.73772345330650     -1.13537964975431     -1.85185686737216
  O   -2.40426506926844     -0.95999025886129     -0.42781337894170
