16
Coordinates from ORCA-job run
  C   0.79308416952005      0.01286945305742      0.33429526181726
  C   -0.70558206404639      0.29150291458163      0.38293709901115
  F   1.45793029278874      0.98202852989173      0.96017027032557
  H   -1.05023449532631      0.23593215674679      1.41495088983745
  N   1.10469286507526     -1.30135442080239      1.03321394290566
  O   2.23725834553991     -1.40596661480591      1.47297169030306
  O   0.18953224027822     -2.11473980914792      1.07484034410291
  N   1.35935985399134     -0.07098480229005     -1.08130560315708
  O   1.25759489571889      0.98171569428721     -1.69277056448867
  O   1.87031469849493     -1.12060420703297     -1.43056912155902
  N   -1.53486413964823     -0.65087224573952     -0.42606520888028
  O   -1.03707023618071     -1.09903947185812     -1.45026707267909
  O   -2.66522674710994     -0.83646782091669      0.00480947661700
  N   -1.01691601974291      1.70114813120728     -0.09881033725174
  O   -1.52775727285348      1.81587852915249     -1.20168474054431
  O   -0.73311638649936      2.57795398366901      0.70328367364015
