16
Coordinates from ORCA-job run
  C   0.74223008895196      0.08581768483311      0.01012468345479
  C   -0.76023514344108     -0.06520550247702     -0.12625360394077
  F   1.18637440001560      1.28322098426530     -0.31129867460647
  H   -1.05734382874296     -1.11081843253847     -0.15659896779469
  N   1.17795085871675     -0.26172012060131      1.42976474600216
  O   2.17332861318610      0.31286863140019      1.83660259325590
  O   0.50140588111916     -1.11862100394046      1.98348620049223
  N   1.45672492008788     -0.96129672150524     -0.86396117049703
  O   2.40063176552026     -0.55425291511521     -1.51612289136480
  O   1.01320174569290     -2.09640331602326     -0.77409741579229
  N   -1.17380037848939      0.58106193250124     -1.43155120465102
  O   -2.03850070731514      1.44057410985180     -1.40074212699974
  O   -0.57765072542166      0.13853975010957     -2.40464312538115
  N   -1.49667374621256      0.60805422343173      0.98504769982265
  O   -0.93298688510235      1.55157418322880      1.52888938757150
  O   -2.61465685856548      0.16460651257923      1.21235387042872
