16
Coordinates from ORCA-job run
  C   0.71641903209681      0.10024283011172      0.18684094226969
  C   -0.76650139031071     -0.05561093104071     -0.08785009718270
  F   1.09485364914603      1.34925001628397      0.36325322338136
  H   -1.09947963628226     -1.07794873561580      0.07478932356168
  N   1.10916389015742     -0.71916801712752      1.42994395211024
  O   1.84075286532238     -0.15954576860950      2.22590777189770
  O   0.66716444235021     -1.85810283792905      1.45688520052970
  N   1.52803931214099     -0.53006955845681     -0.94009812544964
  O   2.61951109800427     -0.03051179499372     -1.15359267615393
  O   1.00690713652029     -1.50157634062451     -1.47225963938030
  N   -1.12635885388761      0.34765374993526     -1.48014552262629
  O   -2.14799463504957     -0.16156540651257     -1.92191281029942
  O   -0.39460259648684      1.16776090391536     -2.02392072313046
  N   -1.51267726839504      0.84276871629608      0.87580737922999
  O   -1.23858654139243      0.63206648490258      2.04994916280110
  O   -2.29861050393393      1.65435668946521      0.41640263844131
