16
Coordinates from ORCA-job run
  C   0.68294146890958     -0.41584572838045     -0.28389194047101
  C   -0.56855543302491      0.41956157635948     -0.48921013756704
  F   0.89456419714575     -1.13215971782892     -1.38835645493621
  H   -0.39330930800123      1.09748154965285     -1.32545095280563
  N   1.90184158543325      0.50021907558445     -0.11233863224906
  O   2.56539909414945      0.38048768818277      0.90405187038539
  O   2.08950945333293      1.23514447178101     -1.06951589787271
  N   0.63642394979967     -1.33285564357801      0.91795228331165
  O   1.15960639870896     -2.42421918387106      0.78334688446099
  O   0.10915278358135     -0.84727279074524      1.90776643969218
  N   -0.93014936795392      1.27546909119756      0.70257505228269
  O   -0.04193520468382      2.04361245561408      1.04060453169932
  O   -2.04768325778474      1.15183248307933      1.17170442438199
  N   -1.73344239505999     -0.44898658974498     -0.83928352751270
  O   -1.75837562971903     -1.57159582250675     -0.34694839713290
  O   -2.56598833483331      0.07012708520388     -1.57200554566693
