16
Coordinates from ORCA-job run
  C   0.80348130542293      0.21111269313670      0.17162235844723
  C   -0.61103788741526      0.53969906841264     -0.27241989123321
  F   1.34268660405922      1.30937590186237      0.70170522511882
  H   -0.55801209538037      1.31458306809878     -1.03809346599536
  N   0.90316601127165     -0.93246749527516      1.15669510131425
  O   0.15002949348492     -1.86734006786794      0.92779629843348
  O   1.74081691980074     -0.81736431446322      2.03304931404882
  N   1.66226134746604     -0.15781894669412     -1.04509252423956
  O   2.21841565317701     -1.24341750063304     -1.04116987027691
  O   1.72111080584225      0.73189770013825     -1.87968837808682
  N   -1.41281306059867      1.07697092199959      0.86876972247286
  O   -1.15279754788016      0.64133285670199      1.98502391206806
  O   -2.27552824291365      1.88939387422623      0.56016539018971
  N   -1.34358438021013     -0.63264679691372     -0.88288019788820
  O   -0.77256703912026     -1.11710657869640     -1.84854624126826
  O   -2.41562788700624     -0.94720438403293     -0.39693675310490
