16
Coordinates from ORCA-job run
  C   0.75747872547195     -0.06503260339678      0.44713502000374
  C   -0.71476494608881      0.33136995954027      0.39129350083939
  F   1.32585835254756      0.46937013056059      1.52809212910123
  H   -1.06993404014357      0.46985261075947      1.41237532446673
  N   0.88520567004950     -1.58100227562612      0.60390706186208
  O   1.66349827410410     -2.17314291184643     -0.12361433434727
  O   0.20873441434885     -2.01775671874648      1.52522778804407
  N   1.55267815981820      0.33976418566278     -0.77865125396392
  O   2.73476650217505      0.57134128022301     -0.58919438588849
  O   0.92359367109920      0.35691629472842     -1.82769296831691
  N   -1.62729709159073     -0.66301534050443     -0.25567800796603
  O   -2.79402447972193     -0.58260142025236      0.10901301780991
  O   -1.14982847762136     -1.42772411341471     -1.08497043610010
  N   -0.86820169061793      1.66966025580844     -0.30800509347022
  O   -0.06761285938162      2.51006509206808      0.07817317605269
  O   -1.76115018444846      1.79293557443624     -1.12641053812691
