16
Coordinates from ORCA-job run
  C   0.71630934978136      0.12613161046060      0.17133021043719
  C   -0.76548445720921     -0.08393867207503     -0.07137700555900
  F   1.05095468816232      1.38666000277031      0.35331016306929
  H   -1.05557758623230     -1.11995031099409      0.08680263718952
  N   1.16841883372229     -0.69066107618319      1.39619150069341
  O   0.77230532410392     -1.84645603460293      1.41887883431600
  O   1.89423731610871     -0.11122953113200      2.18310229649318
  N   1.52548357064232     -0.46117531911348     -0.98010810388715
  O   1.02880311039504     -1.44484110699675     -1.51330444127931
  O   2.59403280246843      0.07950585941696     -1.20925727666289
  N   -1.17235606623014      0.31993281165776     -1.45065695611353
  O   -0.48495203123534      1.17325481458679     -2.00119200240791
  O   -2.18335185452230     -0.22367139598625     -1.87555306563490
  N   -1.52317286705059      0.77468199970758      0.91916453479874
  O   -1.21373595314034      0.56229871092554      2.08421139168949
  O   -2.35091417976418      1.55945763755819      0.48745728285786
