16
Coordinates from ORCA-job run
  C   0.66189154857187     -0.42276955249308     -0.32088712848923
  C   -0.56906879869318      0.45640023417025     -0.45495753220174
  F   0.82191737312611     -1.09740909747894     -1.45973819174636
  H   -0.39731945336452      1.16405444358903     -1.26688771846661
  N   1.91188222070052      0.44983559515317     -0.14646483224020
  O   2.60005363475821      0.26762163549886      0.84399082308368
  O   2.09427367817571      1.21973034577831     -1.07680517730932
  N   0.62115685690398     -1.38855335820230      0.84255056241083
  O   1.10910001631413     -2.48708008923415      0.64762405716961
  O   0.13569817698415     -0.93102471993774      1.86654738570655
  N   -0.87171829009551      1.27011390085371      0.78171795982180
  O   -1.97878586630821      1.15846184471480      1.27791468623221
  O   0.04826237565636      1.99728183732313      1.12561777229897
  N   -1.76864139806222     -0.36288703468266     -0.80729806184870
  O   -2.60547797808272      0.21053653303916     -1.49312619296954
  O   -1.81322409658469     -1.50431251809154     -0.36179841145195
