16
Coordinates from ORCA-job run
  C   0.83578714022902      0.14771425721412      0.14043443149153
  C   -0.55150543480781      0.55270448982011     -0.34673454717632
  F   1.45554991369786      1.19777953046576      0.67567601176699
  H   -0.45346273208119      1.26038781355094     -1.16921028828500
  N   0.82180119746609     -0.94825856615400      1.20365261634439
  O   1.37988705488905     -2.00040766864340      0.94595467209347
  O   0.26403574127260     -0.59990419981714      2.23318589912077
  N   1.67516356486351     -0.35258676736895     -1.02508621197815
  O   2.88225763370017     -0.25503316290227     -0.88220027672505
  O   1.05142415273084     -0.80395215861460     -1.97797852595725
  N   -1.32830959107357      1.27103201365619      0.74724610194853
  O   -0.96262650996665      2.41928449076106      0.94870849628870
  O   -2.23230814821070      0.65487359767610      1.28910586198407
  N   -1.39523375940605     -0.58452575115991     -0.82103302151511
  O   -1.24057902667419     -1.66606278648117     -0.26957721161872
  O   -2.20288119662897     -0.29304513200283     -1.69314400778284
