16
Coordinates from ORCA-job run
  C   0.83376800095974      0.17348234378706      0.12230512616316
  C   -0.59271820075902      0.56072845283214     -0.25339599606029
  F   1.42827446176501      1.18281185816414      0.75547552629860
  H   -0.56709200766442      1.36639789572864     -0.98630242068836
  N   0.92187422989317     -1.04137578349616      1.04311176521531
  O   0.39897428741844     -0.84821015713919      2.13019329660961
  O   1.51468316820625     -2.02483723793489      0.63537483454940
  N   1.63899392404301     -0.13893230333898     -1.12955108398322
  O   2.84559587573946      0.00428735721781     -1.02644449103156
  O   0.99230806888592     -0.50598830034929     -2.10313195772552
  N   -1.34900095457389      1.10063878696643      0.95200228834659
  O   -2.19541699145266      0.37684964186541      1.45217633661129
  O   -1.02943520620500      2.23448218731529      1.27611512999656
  N   -1.40370244242253     -0.55374340856801     -0.82756153003646
  O   -2.26488989472743     -0.20280437711947     -1.62326537767504
  O   -1.17321631910606     -1.68378695593095     -0.41810144659007
