16
Coordinates from ORCA-job run
  C   0.64828639908007     -0.04437937273073      0.56372885721115
  C   -0.80003076781870      0.24011392809374      0.17981789263392
  F   1.04993862193932      0.81630082083780      1.49699949635876
  H   -1.44617470851780      0.03915728880217      1.03364924054266
  N   0.77359323095543     -1.44971064141191      1.13164441324803
  O   -0.07888796586166     -2.25095967245285      0.76823185065957
  O   1.71563117065481     -1.62895384965037      1.88495145083695
  N   1.63013264055898      0.07271728903277     -0.59980911424718
  O   1.68838110260369      1.20462675631099     -1.05573968865476
  O   2.26034794021953     -0.92078115984298     -0.91706845142501
  N   -1.30230670616077     -0.56513260046406     -0.97291629027843
  O   -2.50324800714967     -0.79981330024943     -0.94860493660506
  O   -0.49477972541492     -0.86343650675561     -1.84279478207703
  N   -0.99545316943661      1.70832207077603     -0.17034495210921
  O   -1.13845657954433      1.98842171507254     -1.34999233143980
  O   -1.00897347610737      2.45550723463191      0.79624734534544
