16
Coordinates from ORCA-job run
  C   0.74516279384769      0.05372232745960      0.00802127378247
  C   -0.76256712303673     -0.03489821185769     -0.12473637735136
  F   1.24183349862760      1.22018326202419     -0.34792308408008
  H   -1.10575268516771     -1.06674350023308     -0.12478960178080
  N   1.16643311472648     -0.27193605821199      1.43691628436807
  O   2.18733595899152      0.26856278053550      1.82699068016353
  O   0.45302030994433     -1.08128274788177      2.01533072385685
  N   1.41194217837910     -1.04933752755061     -0.83533435059590
  O   0.91891638683750     -2.16056956154322     -0.71206093509435
  O   2.37177299996783     -0.70351164266670     -1.49929447986764
  N   -1.14823011033951      0.59108054657739     -1.44834900225669
  O   -1.97344087262000      1.48902285816024     -1.44314523570842
  O   -0.57347713933891      0.09393318051794     -2.40785261274190
  N   -1.46768188715499      0.70215905885244      0.96634621658070
  O   -2.60410842075334      0.31571616501436      1.20573398025607
  O   -0.86215900291086      1.63489907080340      1.48314652046947
