16
Coordinates from ORCA-job run
  C   0.80196371942145      0.21146319844625      0.17844934661663
  C   -0.60897815015569      0.53957236212517     -0.27749584631981
  F   1.33624701340563      1.31009373307249      0.71260996137011
  H   -0.54934600350652      1.31460012885423     -1.04255086026785
  N   0.89447153683934     -0.93183677031666      1.16413847096849
  O   1.72726875801480     -0.81737265608351      2.04519948958363
  O   0.14181102376897     -1.86611223216206      0.93128495998437
  N   1.67085270465988     -0.15731470751156     -1.03154967622089
  O   2.22458535239202     -1.24403110829331     -1.02454769872889
  O   1.73773338298555      0.73324911945070     -1.86454746633283
  N   -1.42027220093803      1.07660756720067      0.85709705178167
  O   -2.28203763021156      1.88713327134867      0.54101946930360
  O   -1.16825728953517      0.64256126827299      1.97575216124259
  N   -1.33617615449329     -0.63274501324559     -0.89397648822034
  O   -2.41202669000241     -0.94789771813241     -0.41706627409276
  O   -0.75683937264496     -1.11697044302606     -1.85481660066772
