16
Coordinates from ORCA-job run
  C   0.73969789834552      0.10573500258870      0.00287082701027
  C   -0.76033520550160     -0.07950793590129     -0.11791614414149
  F   1.14698076965891      1.32856271445071     -0.26692301927905
  H   -1.03022489484529     -1.13006409884809     -0.19522781982210
  N   1.20767503739849     -0.29803571784051      1.39675856306941
  O   0.56390100709137     -1.19946382655054      1.91798756067211
  O   2.19438764505985      0.28258582727492      1.81612255700880
  N   1.46704865554028     -0.87861728275173     -0.93216826954480
  O   1.05460145666385     -2.02814127466577     -0.89123458105941
  O   2.38893649410597     -0.41525348255657     -1.57808271908844
  N   -1.21223176752882      0.61842198150328     -1.38335778391514
  O   -0.61967032471522      0.24113881380868     -2.38566008171969
  O   -2.09924155976224      1.45104861889105     -1.29751439828586
  N   -1.49579614091950      0.51847191896735      1.03642030786909
  O   -0.94802565538180      1.44963018884682      1.61670314972489
  O   -2.59770341520978      0.03448855278296      1.25922185150142
