16
Coordinates from ORCA-job run
  C   0.71511291969692      0.13256331686286      0.17167398225870
  C   -0.76477539329533     -0.09096986492790     -0.07134202027608
  F   1.03872234117679      1.39644480120941      0.35044625227070
  H   -1.04580959585016     -1.12895146587553      0.09025531864421
  N   1.17351953192188     -0.67690952045600      1.39919032217199
  O   0.78574460723906     -1.83538480570826      1.42627233674786
  O   1.89543580775121     -0.08938985469469      2.18369890440137
  N   1.52960205330656     -0.45072920874299     -0.97789532123188
  O   1.04304096771655     -1.44213377392972     -1.50612194941594
  O   2.59161480427896      0.10075760891389     -1.21136928957691
  N   -1.17413685168343      0.30464936586738     -1.45222495962353
  O   -2.18053251353637     -0.24841110911777     -1.87572102562257
  O   -0.49352236382760      1.16191874205339     -2.00511106300685
  N   -1.53010384409499      0.76473205408725      0.91575818045784
  O   -2.36336235676921      1.54181351017306      0.48080963179149
  O   -1.21955011403085      0.55900020428562      2.08168070000959
