16
Coordinates from ORCA-job run
  C   0.71331647970426      0.13040961508531      0.18040732520316
  C   -0.76422118347740     -0.08844470439756     -0.08010136068383
  F   1.03855488574155      1.39340637550118      0.36272001342382
  H   -1.05047190853627     -1.12529739909617      0.07949233824452
  N   1.15481124740074     -0.68017415386400      1.41320093952170
  O   0.76003130194501     -1.83631554705990      1.43879202058455
  O   1.87343077650822     -0.09573001297984      2.20323564220917
  N   1.53938559511023     -0.45559274256972     -0.95956489692552
  O   2.60319998630655      0.09577022634954     -1.18489206819209
  O   1.05781453439080     -1.44855843127936     -1.48952899582631
  N   -1.15602531897674      0.30721876860562     -1.46604770632008
  O   -2.16153246962353     -0.24018091289496     -1.89904261055579
  O   -0.46413209973823      1.15914631258864     -2.01324582085954
  N   -1.53827188245063      0.77078094678358      0.89750543674435
  O   -1.24460602424043      0.56284248076075      2.06736617911325
  O   -2.36128392006412      1.55271917846691      0.45170356431866
