16
Coordinates from ORCA-job run
  C   0.74624344232841      0.03336213594953      0.01991678166305
  C   -0.76116597170675     -0.01184558614008     -0.13676507944824
  F   1.27834404347383      1.19467654648430     -0.30007824608455
  H   -1.13073443000287     -1.03403856410396     -0.16860646890843
  N   1.13667856771769     -0.33733316039730      1.44661656303133
  O   0.39651827814742     -1.14603149192055      1.99152186824613
  O   2.16147196571601      0.17139782732795      1.86788273297936
  N   1.39673272606348     -1.06607232605032     -0.84023003456578
  O   0.87058270102092     -2.16573529503731     -0.75611804005550
  O   2.37861535390796     -0.73051230588569     -1.47697828007285
  N   -1.10977466083749      0.65724649428024     -1.44974957532509
  O   -1.90934278772817      1.57807763616772     -1.43317559860248
  O   -0.53510264406661      0.16817773049945     -2.41339578506811
  N   -1.46336107343005      0.71578788402312      0.96249832310240
  O   -2.61430380113569      0.35613560047894      1.17263040129542
  O   -0.84040170946808      1.61670687432396      1.51403043781334
