16
Coordinates from ORCA-job run
  C   0.62235444200372     -0.11473360178913      0.58295096577945
  C   -0.79389855388895      0.26766786519343      0.16598427265158
  F   1.02753360890471      0.66095856535618      1.58640318120153
  H   -1.48336444320734      0.04172034451643      0.97868124305733
  N   0.65643352432425     -1.55908125777890      1.05799580132659
  O   -0.21635565592716     -2.29062556329384      0.60654131292519
  O   1.55534297744396     -1.83504252015403      1.83441623245757
  N   1.65466381344735      0.02805236175997     -0.53317074792634
  O   2.24806812944332     -0.97345438214550     -0.89328294364650
  O   1.78653986116595      1.18303173208008     -0.90870328596260
  N   -1.28685614976531     -0.43132113619470     -1.05807215847003
  O   -0.46029482167023     -0.71011565913246     -1.91645312725368
  O   -2.49764013890985     -0.60633630523601     -1.09452278678998
  N   -0.90484288085501      1.76416988952965     -0.08786255167883
  O   -0.98392718101918      2.13090086180880     -1.24961298933688
  O   -0.92375653149024      2.44320880548000      0.92770758166559
