16
Coordinates from ORCA-job run
  C   0.69706192168030      0.04488798752765      0.53895936713842
  C   -0.76615173505455      0.35845402882908      0.24098139052391
  F   1.11119232320298      0.77532242658167      1.57425672222798
  H   -1.24964272732920      0.64885166218476      1.17364836330726
  N   0.84324875227941     -1.41720553832868      0.96312719260644
  O   1.71982340618676     -2.08501587531989      0.44245194053281
  O   0.06982589468858     -1.72603501782633      1.85961104929242
  N   1.62890566708832      0.27901733161220     -0.63365075407828
  O   2.77075374828094      0.59690170123499     -0.34747273622886
  O   1.13670143112232      0.08895518580686     -1.73742015510154
  N   -1.56607690594702     -0.77050906415880     -0.32982106445017
  O   -0.97045301669140     -1.64071845310247     -0.95300186401482
  O   -2.77079865341926     -0.68296667900062     -0.12555443049850
  N   -0.86467829820145      1.55259950299951     -0.68992549192844
  O   -0.14211086820424      2.48248631167712     -0.35848232507218
  O   -1.64860093968248      1.49597448928295     -1.61970720425647
