16
Coordinates from ORCA-job run
  C   0.83800788079292      0.23775599042044      0.14147803806329
  C   -0.59783058370488      0.60598049314512     -0.22033181616991
  F   1.52487662094861      1.34209436878577      0.43387426742748
  H   -0.59423936381384      1.60465508547272     -0.65691470491102
  N   0.95210095369857     -0.73468714661472      1.29880389946424
  O   1.96026195937623     -0.63459554462704      1.97730101025631
  O   0.03220815290142     -1.53474664721847      1.40077577655050
  N   1.53670582392947     -0.39213973576347     -1.06440641050752
  O   2.16007572924412     -1.42583476255438     -0.89613097265832
  O   1.43153323919459      0.28759512917772     -2.07639942429565
  N   -1.44851092850003      0.68286470744120      1.03372730156306
  O   -2.55369287851202      0.17259087117056      1.01317542248259
  O   -0.91470851056799      1.30740420264294      1.94017578963022
  N   -1.26784443761778     -0.29740395670508     -1.20788932713951
  O   -0.87789023191811     -1.45600149397433     -1.28512485491795
  O   -2.17905342545130      0.23246843920102     -1.83211399483779
