16
Coordinates from ORCA-job run
  C   0.73288954040822      0.14031508002133      0.04491793470826
  C   -0.74921869983097     -0.10768873446453     -0.15948986061236
  F   1.08992515420812      1.39583289121146     -0.12884326723337
  H   -0.96102381875863     -1.16272179238378     -0.31618813121942
  N   1.15677410183236     -0.32881936076543      1.43266948019195
  O   2.08859166152580      0.27378446419766      1.93747232194400
  O   0.53957587940712     -1.29488377164765      1.86216186752874
  N   1.54981415405533     -0.74637405314498     -0.91313720542657
  O   2.47678706752831     -0.19963151209431     -1.48217717893361
  O   1.19256240614965     -1.91371080803666     -0.96628404897121
  N   -1.17785975572907      0.64880208572884     -1.39856791498003
  O   -0.52276576926396      0.36624102300549     -2.39309943357595
  O   -2.10916400622964      1.43059051356270     -1.30347171455962
  N   -1.56508055406630      0.37786221313338      0.99348988153298
  O   -1.09189564495778      1.29537652207303      1.65544918326718
  O   -2.64891171627856     -0.17297476039654      1.13409808633903
