16
Coordinates from ORCA-job run
  C   0.80977997671284      0.10580623548646      0.23032463405025
  C   -0.53539427863663      0.62625890611920     -0.24530569929131
  F   1.42750746880951      1.08371484828411      0.89343403866170
  H   -0.35818229796419      1.46031389097494     -0.92534583844274
  N   0.73426782390473     -1.13057242029822      1.09832915243110
  O   1.52894036594882     -1.19150917974163      2.01903467709743
  O   -0.09780205302898     -1.95177510126705      0.74221720100500
  N   1.69478334059576     -0.23601107687611     -0.97559817364934
  O   1.89475730185687      0.71831451417627     -1.71101107234572
  O   2.13231130416309     -1.37165337442991     -1.05715725154648
  N   -1.34236573966365      1.13580641777052      0.90496640181514
  O   -2.09884997116006      2.06123374981095      0.63887312172530
  O   -1.19249742316264      0.57131215984781      1.98304362832387
  N   -1.34793264929122     -0.39634040291117     -1.00487066495496
  O   -0.77442959361712     -0.84534192012153     -1.98615327994379
  O   -2.47289357546713     -0.63855724682465     -0.60478087493546
