16
Coordinates from ORCA-job run
  C   0.61496439795343     -0.10375032700520      0.59321765314027
  C   -0.80046075578883      0.25527558738659      0.15317935037906
  F   0.99159505901815      0.67897991805636      1.60236855879130
  H   -1.49892691031002      0.02066901875842      0.95570141917224
  N   0.66489745890036     -1.54704833086816      1.07052094237737
  O   1.55716182618662     -1.80803769342083      1.85964610309332
  O   -0.19021559337413     -2.29261842864619      0.60833145032477
  N   1.66235955497582      0.05569298874052     -0.50639649259418
  O   1.77861514461171      1.21211832409385     -0.88272095733500
  O   2.28004658921916     -0.93527411443030     -0.85451517777645
  N   -1.26275593526366     -0.45468870001148     -1.07641141697899
  O   -2.46972808637811     -0.64971131768068     -1.13139763737162
  O   -0.41819470189616     -0.72198077680296     -1.92081226700142
  N   -0.93136947022148      1.74921569686458     -0.10667035430993
  O   -1.00347373196933      2.11110435699689     -1.27035137325625
  O   -0.97251484566356      2.43105379796857      0.90631019934552
