16
Coordinates from ORCA-job run
  C   0.72318129660551      0.08468266063913      0.16737344538660
  C   -0.76986443019695     -0.03379406004141     -0.06849835885790
  F   1.14522110484258      1.32671223170166      0.28226153156728
  H   -1.13174255948371     -1.03666607315758      0.14561260324973
  N   1.11878749285617     -0.69496423015392      1.43501524298110
  O   0.63902925901859     -1.81535366834534      1.52247381460802
  O   1.88953256970013     -0.12796355466751      2.18782622722624
  N   1.48821221884957     -0.61910687321387     -0.94881858292699
  O   0.92531124751733     -1.59616800652702     -1.42534288753733
  O   2.58868501638581     -0.16360932501127     -1.20948965717986
  N   -1.14828305520975      0.32065808961204     -1.46941866316344
  O   -0.40238705673547      1.09130958059593     -2.06405323343849
  O   -2.19584024548486     -0.17231855103544     -1.86641440888727
  N   -1.46424976761997      0.92968452628078      0.87075622016538
  O   -1.17347872975389      0.75815152820669      2.04715719799989
  O   -2.23111436129108      1.74874572511714      0.39255950880704
