16
Coordinates from ORCA-job run
  C   0.73596551712517      0.01318162676845      0.42185082539432
  C   -0.75609312995463      0.27156743562047      0.30650240278264
  F   1.24476984350411      0.87798275708772      1.29990022345452
  H   -1.20970948866714      0.09476709594227      1.28246735031279
  N   0.98202343613100     -1.38973213888047      0.99134579927148
  O   0.48199111899463     -1.55587092425253      2.09315445476804
  O   1.66359479287202     -2.15932977456292      0.33490191471412
  N   1.49345544735063      0.10780142637190     -0.88443265712137
  O   0.90727184499198     -0.36308713122564     -1.84777087015289
  O   2.60697914277964      0.59721873013552     -0.82635750981497
  N   -1.45569408314220     -0.63964092488798     -0.67553789959656
  O   -2.09999334153009     -0.12158554214245     -1.57037382004243
  O   -1.31844440666512     -1.82748815959781     -0.42386124499095
  N   -1.01969725965720      1.69288231831293     -0.07190445501700
  O   -0.19443243884589      2.23819549565772     -0.79635944393078
  O   -2.06198699528690      2.16213770965280      0.36747492996903
