16
Coordinates from ORCA-job run
  C   0.80471895835732      0.10111189159079      0.24863190913097
  C   -0.52588126567268      0.62923124225460     -0.25821827501760
  F   1.41288097256196      1.07620312445381      0.92474010120981
  H   -0.32789808318843      1.46131457334892     -0.93494657734763
  N   0.70138087845825     -1.13351216701124      1.11656215242830
  O   -0.12948121291638     -1.94876169558076      0.74435875416395
  O   1.47622854177873     -1.19907628496861      2.05372007607241
  N   1.71506607281661     -0.24836692488264     -0.93559004784356
  O   2.14714870996556     -1.38692250257524     -1.00503412767169
  O   1.93837375813990      0.70344623264058     -1.66761196030656
  N   -1.35595499218012      1.14524631107363      0.87238099371532
  O   -1.23462129516469      0.58158874604081      1.95447731661672
  O   -2.10078355072718      2.07459537676010      0.58744019536563
  N   -1.32699668864071     -0.38933397240774     -1.03557426465277
  O   -0.73295210534525     -0.84450854800736     -2.00161526644323
  O   -2.46322869824288     -0.62225540272966     -0.66272097942008
