16
Coordinates from ORCA-job run
  C   0.72039824810097      0.10268833343383      0.16898832053409
  C   -0.76837528281052     -0.05711479200891     -0.06943484410389
  F   1.10130374877515      1.35331669343858      0.32676769104050
  H   -1.09643931400569     -1.07833853402861      0.10932835552729
  N   1.14353032149713     -0.70696110814437      1.40888888948398
  O   1.89308469973417     -0.14047993953037      2.18289299501581
  O   0.70366466319632     -1.84606655283255      1.45482323273070
  N   1.50627901599037     -0.53581644534972     -0.97142981569982
  O   2.59253215163968     -0.03768797072308     -1.21320184268125
  O   0.97402588642087     -1.51176063515575     -1.48407434631013
  N   -1.16143607468078      0.33460128705075     -1.45607428695742
  O   -2.19317182049510     -0.17830132085581     -1.86917530954475
  O   -0.44303046365686      1.15023729063227     -2.02384532015354
  N   -1.49241198940657      0.84849119213600      0.90445536315699
  O   -2.29017349942443      1.65560625661206      0.45780851892435
  O   -1.18978029087470      0.64758624532567      2.07328239903710
