16
Coordinates from ORCA-job run
  C   0.73727165649793      0.09591496385112      0.40746531548820
  C   -0.76946764773765      0.24702765505348      0.29240799964451
  F   1.19526122947997      1.06304521215019      1.20336329307174
  H   -1.20190495349245      0.12415157478124      1.28611786679666
  N   1.07905186106575     -1.23571472364178      1.08946759052316
  O   0.60125008881798     -1.33810393842296      2.20868562134262
  O   1.79897580032422     -2.01560410219248      0.48881442226551
  N   1.47647468472737      0.12878114186879     -0.91102246931672
  O   0.91090474451948     -0.45112273597389     -1.82624351987103
  O   2.55995818839255      0.68470651357029     -0.90691013628127
  N   -1.41620246710810     -0.78668901810987     -0.60021801572626
  O   -2.10372586820268     -0.38790900260208     -1.52350448890607
  O   -1.19786015565121     -1.93778841844904     -0.25343249696230
  N   -1.12864131714627      1.61223860294874     -0.19768426831521
  O   -0.34722081045873      2.14712522836073     -0.97632507052036
  O   -2.19412503402816      2.04894104680754      0.21901835676683
