16
Coordinates from ORCA-job run
  C   0.75759895524720      0.05961983402596      0.40401549320347
  C   -0.75567830054589      0.23166378006358      0.32325354334000
  F   1.29356007038906      1.05623309968223      1.10582391934119
  H   -1.18507542641980      0.12620617174471      1.31896009367904
  N   1.09947041337555     -1.24732407778715      1.10322426129424
  O   2.19297323783795     -1.28372294245490      1.64171140903268
  O   0.24487810990318     -2.12327713746215      1.04676475979266
  N   1.45147933810451      0.05161986233728     -0.95579714997740
  O   2.06773822370819     -0.94943984708198     -1.27668185374912
  O   1.32713361216798      1.10923367534318     -1.55466823378622
  N   -1.44063615692369     -0.74500837041042     -0.57500336600540
  O   -0.82238230570388     -1.13332878388559     -1.55720333629871
  O   -2.58956955244023     -1.01718366942749     -0.25298202884517
  N   -1.12371526800515      1.62803030521767     -0.15745526511348
  O   -1.54383680707910      1.73448743255780     -1.29881898641819
  O   -0.97393814361588      2.50219066753729      0.68285674051040
