16
Coordinates from ORCA-job run
  C   0.74447404054268     -0.05027977762101      0.04505552683917
  C   -0.75220642780921      0.07920294887040     -0.16104261325584
  F   1.41178954198362      1.05871143088942     -0.19772326969215
  H   -1.22923191519913     -0.89333095577035     -0.25676440070568
  N   1.03927468232924     -0.52957858006022      1.46259036584023
  O   0.19427810887060     -1.27343300474351      1.94341589916215
  O   2.09905433210154     -0.16115262401063      1.93947550535516
  N   1.30194388623912     -1.17266369327482     -0.84968644498497
  O   2.33378574975195     -0.91644692411853     -1.44254766180139
  O   0.65866687155140     -2.21145360224314     -0.83437438170640
  N   -0.97759244321438      0.84465445968959     -1.44779336482748
  O   -1.67283751203450      1.84585792661871     -1.40900342460118
  O   -0.42431655972984      0.34178624401307     -2.41683044520798
  N   -1.41080557136590      0.82680516774497      0.95154817584819
  O   -0.71515738503424      1.62876095361316      1.56531392945997
  O   -2.60011939898295      0.58456003040290      1.10936660427821
