16
Coordinates from ORCA-job run
  C   0.82933645197679      0.13748994706164      0.11510490152558
  C   -0.57551047768625      0.59119634126319     -0.24102648173276
  F   1.50162273832051      1.18690410856142      0.58895004334919
  H   -0.50216455478866      1.34917111072217     -1.02181501565403
  N   0.88937957504703     -0.99882902560952      1.11126519824133
  O   0.03833543907982     -1.86109301851919      0.95065132460132
  O   1.79300958867244     -0.95391245615818      1.92633208340620
  N   1.56684792829514     -0.32376312431075     -1.14917851785490
  O   1.65294292268400      0.54785650954526     -2.00026670274462
  O   2.01690250344002     -1.45726208285810     -1.16413609311145
  N   -1.24638884306485      1.21381703387704      0.94056050604604
  O   -2.05147278895036      2.09720224442663      0.67420547918406
  O   -0.95162891520603      0.77109610792837      2.04525894482413
  N   -1.45208660773278     -0.51472923935530     -0.78147616187324
  O   -2.51328924196396     -0.72315359414468     -0.22055930116118
  O   -0.99383571812287     -1.06099086243000     -1.77387020704567
