16
Coordinates from ORCA-job run
  C   0.84450599556891      0.07228763249624     -0.03815703626360
  C   -0.56212834148910      0.63673643649800     -0.13286929128876
  F   1.64248658048920      0.80108107783652     -0.81918243174235
  H   -0.54420629936446      1.66320790737147      0.23528085437908
  N   1.37381189251800      0.22147174215900      1.39404390747002
  O   1.74138409444411     -0.78714388196000      1.97306403600127
  O   1.40373110366183      1.38080621026182      1.77695758048719
  N   0.96152428616379     -1.38881541231015     -0.41184326442202
  O   1.96608727535658     -1.71068856210486     -1.02017322644775
  O   0.04140805058460     -2.08960953253148     -0.01707849219792
  N   -1.57457677382932     -0.11278538388534      0.70190489493292
  O   -1.29059592718286     -0.15931393471838      1.88953499066045
  O   -2.56276132175525     -0.54938975365179      0.13880564224314
  N   -1.02612891115976      0.66743202352851     -1.55331036033692
  O   -1.79946588635954      1.57663757029886     -1.82677664598890
  O   -0.61607581764674     -0.22091413928842     -2.29220115748586
