15

C	-0.489448	-0.133551	-1.448242
C	0.0	0.0	0.0
Br	-0.321517	1.568584	-2.406161
H	1.095115	0.0	0.0
H	-1.561962	-0.349198	-1.449858
C	0.302394	-1.203484	-2.172442
H	1.363034	-0.950462	-2.151249
H	0.16042	-2.147887	-1.646016
H	-0.033826	-1.309549	-3.205603
N	-0.401734	-1.222685	0.711976
H	0.335627	-1.462587	1.365607
H	-1.256979	-1.069121	1.233882
C	-0.514749	1.198766	0.672841
N	-0.98502	2.077897	1.295667
Cl	3.343561	0.0	0.0
