15

C	-0.442269	-0.111075	-1.469515
C	0.0	0.0	0.0
Br	-0.156656	1.579373	-2.421426
H	1.096049	0.0	0.0
H	-1.526123	-0.268061	-1.517453
C	0.323833	-1.212403	-2.18311
H	0.096304	-2.178379	-1.723259
H	0.048013	-1.260715	-3.237811
H	1.396275	-1.025655	-2.088933
N	-0.393145	-1.179714	0.774375
H	0.349129	-1.864711	0.720597
H	-1.25622	-1.584746	0.430758
C	-0.554396	1.192857	0.64906
N	-1.056975	2.114581	1.175371
Cl	3.344055	0.0	0.0
