15

C	-0.534959	-0.014677	-1.438272
C	0.0	0.0	0.0
Br	0.182132	-1.559286	-2.389762
H	1.093736	0.0	0.0
H	-0.127346	0.850137	-1.965428
C	-2.050646	-0.049762	-1.508854
H	-2.468782	0.831636	-1.013356
H	-2.419297	-0.949425	-1.014433
H	-2.392782	-0.060391	-2.545068
N	-0.457384	-1.156337	0.767041
H	-1.250824	-0.925081	1.350933
H	0.3042	-1.464006	1.359579
C	-0.435624	1.267311	0.614403
N	-0.852301	2.240384	1.126653
Cl	3.328818	0.0	0.0
