15
Coordinates from ORCA-job run
  C   0.81496419915436      0.53355775874986     -0.08471331588334
  C   -0.70640013890173      0.40069679802264      0.07620226658309
  Br  1.22258932496681      2.30135871727147     -0.81942138892372
  H   -1.16799800140402      0.60233024204146     -0.89775105980433
  H   1.28438604116585      0.52487565642394      0.90220784878883
  C   1.42048146173754     -0.53208370950450     -0.98083429006444
  H   1.32581006197680     -1.51819153563203     -0.52040171997894
  H   0.92579230161198     -0.54549288996212     -1.95510530875656
  H   2.48109685307674     -0.33546065288767     -1.13971302479494
  C   -1.20608033200123      1.40604030396683      1.01868786499971
  N   -1.58521875010258      2.19130644975377      1.80495545195197
  C   -1.12012251749072     -0.99760928124669      0.55726456660438
  H   -2.18939554528247     -1.01783764025078      0.77376438488672
  H   -0.58427130194972     -1.26635208647617      1.47093819720961
  H   -0.91463365655760     -1.74713813027002     -0.20708047281804
