15
Coordinates from ORCA-job run
  C   0.58912255724168      0.09064893609978     -0.67125391600376
  C   -0.57331904197312      0.16674738383774      0.32669844478193
  Br  0.75952378649017     -1.71658300106722     -1.39881016278002
  H   -0.59822078573258      1.21353220422587      0.66146332404579
  H   0.33022430115232      0.71400099198875     -1.53112585663849
  C   1.91513721849295      0.52203497525348     -0.07242811927063
  H   2.20805334475892     -0.14200843611444      0.74266326443543
  H   1.82677820012140      1.54057025846039      0.31944404295555
  H   2.70207094518949      0.50960901324800     -0.82736900574125
  C   -0.29782901412557     -0.64810500521476      1.51295652714663
  N   -0.08689565134708     -1.29900417349543      2.46697924199318
  C   -1.93926129308351     -0.17845429790567     -0.27064155310629
  H   -2.12379395972461      0.44023811171773     -1.15247107901092
  H   -2.72927954822782      0.01177167196744      0.45807993015758
  H   -1.98131105923264     -1.22699863300168     -0.56418508296474
