15
Coordinates from ORCA-job run
  C   0.59119067541662     -0.14134070603904     -0.66085779986430
  C   -0.57745212008182      0.26267587169841      0.24694609625377
  Br  0.78774921156934     -2.08629951091921     -0.71181628283178
  H   -0.61804943862460      1.35997515889292      0.19382023257739
  H   0.32904266363179      0.13939074942802     -1.68431565904461
  C   1.90858888908657      0.48968483349176     -0.24942207900982
  H   1.80496229494658      1.57955411570204     -0.23555035540358
  H   2.20644165837388      0.15422059366783      0.74550489644748
  H   2.69917501776585      0.22685965442933     -0.95317997869081
  C   -0.29669044208781     -0.08004362342089      1.64376701006347
  N   -0.08049157122216     -0.34891261040141      2.76597207458994
  C   -1.93530868692427     -0.28969423870522     -0.19158455292628
  H   -2.12243429436470     -0.02464805476038     -1.23499098935080
  H   -1.96256802057025     -1.37461217938063     -0.09625859741634
  H   -2.73215583691502      0.13418994631648      0.42196598460627
