15
Coordinates from ORCA-job run
  C   0.61367117329498      0.70321015029900     -0.53058795970000
  C   -0.74259459194897      0.52446963554441      0.17798370046182
  Br  0.31373010488974      0.82353907969198     -2.46237803577533
  H   -1.40396606179151      1.32868037910412     -0.16285382444767
  H   1.01593932786173      1.68243581735594     -0.26309310336554
  C   1.62627468636930     -0.38508742414212     -0.22863745672138
  H   1.77533303303988     -0.46012442589168      0.85276726322390
  H   2.58484052022668     -0.14765603962979     -0.69160192889214
  H   1.29807286829402     -1.35266001240791     -0.60960630226315
  C   -0.52314508057146      0.72007585481912      1.61569915628402
  N   -0.33441600923423      0.85231181743477      2.76745377681585
  C   -1.42347474046867     -0.82395893385609     -0.07130505731087
  H   -1.54585674823192     -0.98920790894260     -1.14221432376856
  H   -0.84359798692595     -1.64451072976647      0.35272383860129
  H   -2.40981049480362     -0.83251725961271      0.39565025685775
