19

C	-0.342025	-0.018541	-1.48799
C	0.0	0.0	0.0
F	-1.751704	-0.053619	-1.664261
H	1.097256	0.0	0.0
C	0.177287	1.236338	-2.157778
H	1.253628	1.308033	-1.969789
H	-0.316818	2.119556	-1.746674
H	-0.013642	1.195406	-3.234258
C	0.230829	-1.263041	-2.13725
H	-0.28188	-2.1564	-1.775915
H	0.10222	-1.210713	-3.221856
H	1.295523	-1.326664	-1.890222
C	-0.469681	-1.23317	0.773036
H	-0.302842	-1.083898	1.842346
H	-1.531107	-1.436053	0.606335
H	0.121439	-2.100148	0.472698
C	-0.497767	1.212042	0.633631
N	-0.903483	2.178298	1.167681
H	2.802496	0.0	0.0
