19

C	-0.442928	-0.049719	-1.468794
C	0.0	0.0	0.0
F	-0.138865	1.208232	-2.024755
H	1.096685	0.0	0.0
C	0.385579	-1.065855	-2.233147
H	1.441455	-0.911523	-1.991416
H	0.10507	-2.088181	-1.966967
H	0.218165	-0.929182	-3.305712
C	-1.938302	-0.231097	-1.660125
H	-2.265555	-1.213649	-1.312387
H	-2.484793	0.540562	-1.111197
H	-2.180307	-0.139901	-2.723076
C	-0.401885	-1.237532	0.808679
H	0.061639	-1.172833	1.795747
H	-0.007584	-2.136681	0.33034
H	-1.483921	-1.337041	0.934919
C	-0.517918	1.198168	0.64429
N	-0.973131	2.135945	1.188862
H	2.844282	0.0	0.0
