19

C	-0.441063	0.011284	-1.473753
C	0.0	0.0	0.0
F	-0.049521	-1.227139	-2.019569
H	1.096791	0.0	0.0
C	-1.944389	0.091225	-1.67309
H	-2.345291	1.012145	-1.24469
H	-2.436053	-0.761786	-1.199672
H	-2.174027	0.067998	-2.742556
C	0.319076	1.085218	-2.226068
H	1.38594	0.963926	-2.016777
H	0.005418	2.079117	-1.896374
H	0.128603	0.990704	-3.299601
C	-0.447859	-1.235019	0.781076
H	-1.529643	-1.278006	0.940505
H	0.051298	-1.235846	1.753139
H	-0.124391	-2.124002	0.238874
C	-0.461316	1.218606	0.646026
N	-0.855672	2.198386	1.164882
H	2.837256	0.0	0.0
