19

C	-0.339646	-0.019537	-1.488642
C	0.0	0.0	0.0
F	-1.749206	-0.053987	-1.665995
H	1.097261	0.0	0.0
C	0.179814	1.234098	-2.16083
H	1.25517	1.305804	-1.971621
H	-0.009202	1.19226	-3.237093
H	-0.31458	2.117295	-1.752679
C	0.232932	-1.264383	-2.135981
H	-0.278264	-2.157502	-1.772044
H	0.102675	-1.213349	-3.22059
H	1.297777	-1.326429	-1.890008
C	-0.468187	-1.233905	0.772908
H	-1.528727	-1.440668	0.603865
H	-0.304467	-1.083247	1.842779
H	0.127174	-2.09889	0.474754
C	-0.499969	1.211045	0.633391
N	-0.90879	2.17484	1.169632
H	2.803242	0.0	0.0
