17
Coordinates from ORCA-job run
  C   0.72168888805157      0.20704389934523      0.28791451844127
  C   -0.79256748302395      0.19942039578320      0.51304184711594
  F   1.20517867266200      1.25710761089412      1.02533912817525
  H   -1.02390790268185      0.39199630416488      1.55725743300954
  C   1.20687384149820      0.31264709976392     -1.12402331380352
  H   2.29476950658045      0.27554306569992     -1.12064366114747
  H   0.88802997905824      1.27103050964337     -1.53578581266967
  H   0.81830230553477     -0.49927866956324     -1.73417351022543
  N   1.26746491912431     -1.03546096520138      0.99731727437983
  O   0.69425682597741     -1.33534598803556      2.04084186039349
  O   2.25816169437089     -1.57286071569597      0.52402274010890
  N   -1.46191432636270     -1.07977000443715      0.12683996885539
  O   -2.62307328362301     -1.18029459643730      0.50291760886596
  O   -0.82184139150918     -1.89246661349828     -0.53195107579976
  N   -1.41167092333074      1.29234161159888     -0.31012695062711
  O   -1.39411282505210      2.40443251930921      0.20302481521207
  O   -1.82463849727431      0.98691453666615     -1.42281287028469
