17
Coordinates from ORCA-job run
  C   0.61737159871729      0.29511733005395      0.01624590605710
  C   -0.79939123724743     -0.26989358675491      0.01950452025119
  F   0.58932558669702      1.61980451801797     -0.25288765470644
  H   -0.80996303408493     -1.35226244054671      0.11144712194443
  C   1.55471946997525     -0.40726423172662     -0.93482387561300
  H   1.59854673005686     -1.47500696655725     -0.72001160052175
  H   1.22352218893161     -0.25691999699120     -1.96151632281136
  H   2.54633733784229      0.03252800924648     -0.81283929609685
  N   1.17515752516859      0.10284264261678      1.42280939750528
  O   1.87671921526290      0.99122287312299      1.87135674317242
  O   0.91319611703567     -0.98156532570140      1.93489358929809
  N   -1.45904292258910      0.08617342135790     -1.28423270602941
  O   -1.24380700712410     -0.69904904876855     -2.20195831791075
  O   -2.10942196544815      1.12118845766939     -1.32224960881945
  N   -1.67091197346134      0.27373266781215      1.11367099711927
  O   -2.76148621436778     -0.27705839682331      1.20344659269245
  O   -1.24087141536463      1.19641007397234      1.79414451446880
