17
Coordinates from ORCA-job run
  C   0.65521184980660      0.21679421762780      0.41517818013339
  C   -0.87582801600378      0.19158379089390      0.36644859017670
  F   0.99441781476655      1.25952619539344      1.23815504122059
  H   -1.29344906524886      0.38643164529272      1.35040868961023
  C   1.37833627073104      0.34196102283487     -0.88919245530073
  H   1.12864631496207      1.30416311141291     -1.33820949271053
  H   1.10685894464610     -0.46519527219264     -1.56564118313601
  H   2.44942534378262      0.31240863330350     -0.69689511389704
  N   1.08118631515254     -1.02809191218421      1.19766930997412
  O   0.31631867391164     -1.36919781998228      2.09549464909026
  O   2.15715982659267     -1.53627323024145      0.91715063601472
  N   -1.44396063665695     -1.10215829360238     -0.12037145550047
  O   -0.68375462760302     -1.89227014269233     -0.66999412536238
  O   -2.64802815315683     -1.23541650519071      0.06136849571960
  N   -1.34882789937800      1.27169682481274     -0.56506824167724
  O   -1.58676923258892      0.95166785285356     -1.72350405853473
  O   -1.38694372371547      2.39336988166055     -0.07399746582048
