17
Coordinates from ORCA-job run
  C   0.70809057661808      0.30356724776798      0.12587247553858
  C   -0.75668999801143      0.45502702740837     -0.28194827975253
  F   1.08994449704987      1.54555511242489      0.53466487082650
  H   -0.81385268315737      1.14292880083187     -1.12537884121331
  C   1.63266570058360     -0.18305679813895     -0.95916479181007
  H   1.55530372940420      0.46943932769718     -1.82952556842290
  H   2.65101514789133     -0.13345357869194     -0.56795955572179
  H   1.39658936594895     -1.20353161681117     -1.25039675496459
  N   0.85197858515178     -0.64075745499447      1.30942109531414
  O   0.32137152144515     -1.73312604465425      1.14228521084151
  O   1.52066941160998     -0.26792541315224      2.25613773530280
  N   -1.58495132304966      1.05522138922273      0.81100898534218
  O   -1.30825692756020      0.74602869913216      1.96330295058501
  O   -2.49226475495048      1.78764724136231      0.43130663946185
  N   -1.42977038786673     -0.81818948414729     -0.72987059743075
  O   -2.33052836294754     -1.26335311150501     -0.03681415948313
  O   -1.01031409815952     -1.26102134375216     -1.79094141441349
