15

C	-0.325944	0.042472	-1.482075
C	0.0	0.0	0.0
Br	-0.009174	-1.701516	-2.289308
H	1.099673	0.0	0.0
H	-0.330466	0.967141	0.39743
N	-1.802018	0.414718	-1.670773
O	-2.045428	1.604268	-1.447971
O	-2.639642	-0.434462	-1.93773
N	0.463825	1.013193	-2.188589
H	1.435537	0.813624	-1.922586
H	0.230731	1.919048	-1.790005
N	-0.660496	-1.079895	0.728512
H	-0.068672	-1.900687	0.647112
H	-0.655162	-0.83054	1.711116
H	2.930551	0.0	0.0
