15

C	-0.56044	-0.037173	-1.404201
C	0.0	0.0	0.0
Br	0.049661	1.645928	-2.313707
H	1.094167	0.0	0.0
H	-0.326493	0.959393	0.417474
N	0.028869	-1.166853	-2.255103
O	-0.277329	-1.179521	-3.442608
O	0.67218	-2.030009	-1.672272
N	-1.950204	-0.236396	-1.473241
H	-2.354611	0.085402	-2.340794
H	-2.415625	0.126413	-0.654228
N	-0.58892	-1.073373	0.825807
H	-0.139829	-1.930785	0.518409
H	-0.224881	-0.913506	1.761374
H	2.963164	0.0	0.0
