15

C	-0.628036	0.027802	-1.375058
C	0.0	0.0	0.0
Br	0.320139	1.426036	-2.491696
H	1.091428	0.0	0.0
H	-0.362433	-0.907536	0.490065
N	-0.406822	-1.26159	-2.146214
O	-0.994422	-1.358981	-3.221106
O	0.295626	-2.123753	-1.633855
N	-2.014095	0.235664	-1.31668
H	-2.159814	0.978155	-0.637797
H	-2.402582	0.460707	-2.222796
N	-0.496226	1.193044	0.723456
H	0.251938	1.879916	0.663701
H	-0.562429	0.948478	1.704043
H	2.911938	0.0	0.0
