15

C	-0.632674	-0.001497	-1.367733
C	0.0	0.0	0.0
Br	0.245181	1.436966	-2.488931
H	1.088495	0.0	0.0
H	-0.301998	0.948793	0.473811
N	-0.331218	-1.2776	-2.134196
O	0.723388	-1.842971	-1.903976
O	-1.168335	-1.622187	-2.973698
N	-2.036892	0.144709	-1.328541
H	-2.431052	0.048551	-2.256946
H	-2.261682	1.053352	-0.94505
N	-0.462993	-1.193082	0.697894
H	-1.291763	-1.013707	1.246417
H	0.290386	-1.507694	1.297625
H	2.92691	0.0	0.0
