15

C	-0.622005	0.019823	-1.378231
C	0.0	0.0	0.0
Br	0.320284	1.422135	-2.490621
H	1.091469	0.0	0.0
H	-0.363916	-0.904418	0.494192
N	-0.395432	-1.273439	-2.14408
O	-0.941493	-1.357969	-3.240981
O	0.261426	-2.154337	-1.602592
N	-2.010601	0.21769	-1.326488
H	-2.16308	0.961345	-0.650145
H	-2.393739	0.442842	-2.234782
N	-0.499951	1.196521	0.714887
H	0.242378	1.888575	0.643956
H	-0.557785	0.960179	1.698081
H	2.916127	0.0	0.0
