15

C	-0.577895	0.013567	-1.397263
C	0.0	0.0	0.0
Br	0.144449	-1.403164	-2.499293
H	1.092027	0.0	0.0
H	-0.331647	0.929017	0.481164
N	-2.12215	-0.273084	-1.224002
O	-2.664943	-1.268136	-1.678265
O	-2.700567	0.61826	-0.596888
N	-0.385441	1.252459	-2.049476
H	-0.819993	1.284698	-2.963138
H	-0.711334	2.009618	-1.46361
N	-0.463683	-1.185255	0.721084
H	-1.024932	-0.921804	1.518789
H	0.361807	-1.664786	1.062464
H	2.905541	0.0	0.0
