13
Coordinates from ORCA-job run
  C   0.35114886592240      0.15340185748392     -0.17157795953898
  C   -0.67802179356357     -0.90230808339457      0.24343618915455
  Cl  0.51907877238790      0.05639586434685     -1.99208630180889
  H   -0.32114237031900     -1.90087234983692     -0.02386978348768
  H   -0.77042931019825     -0.85770717219874      1.33291795499670
  N   1.57816677206993     -0.13031588893492      0.50489858463309
  H   1.92940252245814     -1.05278814257519      0.27415017283007
  H   2.28351128198801      0.55206067607852      0.25230821208373
  N   -0.15385541075237      1.46884358667848      0.11541763308092
  H   0.00071989465679      1.66911936328218      1.09718133614222
  H   0.30349597933937      2.17278883391474     -0.44858190549963
  C   -1.98696198061799     -0.68193522990952     -0.36083388560961
  N   -3.05611322337137     -0.54468331493483     -0.82236024697649
