13
Coordinates from ORCA-job run
  C   0.32823076171362      0.19899190758446     -0.17033062067561
  C   -1.13313748967418     -0.22189258094317      0.01189786143864
  Cl  0.81638242525899     -0.27003063114115     -1.87138604022399
  H   -1.43346203071685      0.07018530785158      1.02283571602003
  H   -1.77012619418482      0.31440158620965     -0.69703122543217
  N   1.17049448604476     -0.56130623500856      0.71302688654152
  H   2.12693469027601     -0.58397843738729      0.38513470391244
  H   1.13882799148465     -0.14003247456817      1.63465068742905
  N   0.41733925048714      1.60814296522452      0.05337048662029
  H   1.37462202519127      1.92100917274008     -0.05921348759375
  H   -0.16641430756989      2.12827825720045     -0.59180973913509
  C   -1.33148623748454     -1.65719900141527     -0.15418109753878
  N   -1.53920537082617     -2.80456983634714     -0.27796413136258
