13
Coordinates from ORCA-job run
  C   0.37466337756132      0.21998602218275     -0.31976277242211
  C   -0.81495772311001     -0.71224347720119     -0.57048034515318
  Cl  1.17234440738800      0.44056644362115     -1.96365288535039
  H   -1.43279182708312     -0.27395647184344     -1.35502192054206
  H   -0.46819182807683     -1.69160681278877     -0.91136562979950
  N   1.25265489679635     -0.36186435911244      0.63599157030964
  H   2.04107630303505      0.24505117908343      0.82431052064224
  H   1.59609446063673     -1.26865499384777      0.34326018715372
  N   -0.10453432738494      1.52129792078437      0.06242851910831
  H   0.61752088799376      2.22078553493053     -0.05633419010248
  H   -0.37881927381182      1.48863919207300      1.03910116382793
  C   -1.60856361259663     -0.86412172869939      0.64669405133735
  N   -2.24849574134788     -0.96387844918222      1.62483173099054
