13
Coordinates from ORCA-job run
  C   0.36182632834312      0.08736008533592     -0.29983284718740
  C   -0.67699440838259     -0.91564976225879      0.20930396714977
  Cl  0.43993932484351     -0.02083088586228     -2.08542084260155
  H   -0.38525714548455     -1.91084865962487     -0.12900962797149
  H   -0.65173554135978     -0.92066303922557      1.30596429653445
  N   1.65594159741360     -0.35886579001218      0.18984808470540
  H   2.39731284394008      0.16527087253930     -0.26119649942236
  H   1.70869148851269     -0.18393050659925      1.18850417744653
  N   -0.08228651305007      1.42462829696893      0.01246184144458
  H   0.55461697959179      2.11470197573653     -0.36750864304036
  H   -0.14075419053544      1.54609297447084      1.01783558558791
  C   -2.03606998422409     -0.61407929233271     -0.22769385450074
  N   -3.14423077960827     -0.41218626913585     -0.55425563814474
