14

C	0.0	0.0	0.0
C	-0.582647	-0.033428	-1.405766
Br	1.949939	0.0	0.0
H	-1.707422	-0.110772	-1.051335
H	-0.326254	-0.88932	0.54233
C	-0.426533	1.187632	0.747217
N	-0.557598	2.180085	1.364923
C	-0.158164	-1.218775	-2.114757
N	0.146015	-2.183568	-2.717652
C	-0.35924	1.242307	-2.203241
H	0.700905	1.499603	-2.290417
H	-0.88466	2.064692	-1.711886
H	-0.76815	1.130298	-3.210429
H	-2.730752	0.0	0.0
