14

C	0.0	0.0	0.0
C	-0.550096	-0.113611	-1.419867
Br	1.949617	0.0	0.0
H	-1.663096	-0.199818	-1.119406
H	-0.334701	-0.8556	0.586741
C	-0.418393	1.227137	0.701148
N	-0.510971	2.176505	1.395574
C	-0.079956	-1.320351	-2.072588
N	0.258149	-2.28958	-2.65043
C	-0.328587	1.127573	-2.270206
H	0.731158	1.385172	-2.367811
H	-0.862538	1.965466	-1.809808
H	-0.742095	0.964788	-3.268813
H	-2.72963	0.0	0.0
