14

C	0.0	0.0	0.0
C	-0.241725	0.046393	-1.566302
Br	1.948089	0.0	0.0
H	0.476644	-0.681145	-1.959713
H	-0.301215	-0.966799	0.393404
C	-0.645984	1.066573	0.747889
N	-0.682913	2.035841	1.436359
C	0.199027	1.35362	-2.072405
N	0.480794	2.394464	-2.539424
C	-1.578062	-0.288149	-2.244892
H	-1.384488	-0.354667	-3.328166
H	-2.332745	0.46681	-2.048698
H	-1.960607	-1.239355	-1.879262
H	-2.097817	0.0	0.0
