14

C	0.0	0.0	0.0
C	-0.420709	0.296632	-1.463009
Br	1.95021	0.0	0.0
H	0.3277	0.968353	-1.899617
H	-0.288928	-1.000517	0.305133
C	-0.498518	0.970408	0.97014
N	-0.553416	1.811089	1.800229
C	-1.742045	0.953511	-1.534142
N	-2.486719	1.693168	-2.096271
C	-0.47048	-1.003194	-2.258631
H	-0.636165	-0.792251	-3.318055
H	-1.304306	-1.599623	-1.882207
H	0.459732	-1.562918	-2.150643
H	-2.169643	0.0	0.0
