14

C	0.0	0.0	0.0
C	-0.281281	0.120579	-1.553921
Br	1.952391	0.0	0.0
H	0.556686	-0.412333	-2.015916
H	-0.289408	-0.987607	0.348088
C	-0.636916	1.021672	0.814795
N	-0.657423	1.948883	1.55877
C	-0.119459	1.517484	-1.967748
N	-0.01141	2.616018	-2.370875
C	-1.530263	-0.467607	-2.227889
H	-2.417429	0.130323	-2.043004
H	-1.717795	-1.468976	-1.840048
H	-1.327095	-0.528983	-3.308097
H	-2.084406	0.0	0.0
