14

C	0.0	0.0	0.0
C	-0.364473	0.070975	-1.50925
Br	1.952319	0.0	0.0
H	0.409964	0.665364	-2.010284
H	-0.286375	-0.948888	0.439793
C	-0.541354	1.096526	0.793433
N	-0.588402	2.05362	1.48955
C	-1.659674	0.719393	-1.773838
N	-2.425132	1.315847	-2.456507
C	-0.384431	-1.335318	-2.104905
H	0.545208	-1.861991	-1.875937
H	-1.229508	-1.879093	-1.674258
H	-0.507906	-1.287768	-3.189956
H	-2.120143	0.0	0.0
