14

C	0.0	0.0	0.0
C	-0.460201	-0.04262	-1.471618
Br	1.952513	0.0	0.0
H	-1.565506	-0.143026	-1.29157
H	-0.346996	-0.894793	0.516158
C	-0.484829	1.187843	0.702236
N	-0.557502	2.207048	1.292158
C	0.052296	-1.220995	-2.150048
N	0.420138	-2.167855	-2.744472
C	-0.158945	1.233252	-2.248947
H	-0.660003	2.072916	-1.761844
H	0.912735	1.440647	-2.30134
H	-0.543965	1.145693	-3.267693
H	-2.582462	0.0	0.0
