18

C	0.0	0.0	0.0
C	-0.658326	0.034563	-1.369887
Br	1.960389	0.0	0.0
H	-1.796084	-0.032547	-1.033521
N	-0.489562	1.083168	0.816443
H	-0.284536	1.962206	0.355057
H	-1.517125	0.946142	0.808835
C	-0.398513	-1.300733	0.692824
H	0.045914	-2.175596	0.222811
H	-0.063891	-1.226305	1.728174
H	-1.491148	-1.365837	0.662473
N	-0.287161	-1.077945	-2.270593
O	-0.847507	-2.157403	-2.078458
O	0.574861	-0.870239	-3.127375
N	-0.508321	1.275685	-2.157118
O	0.197977	2.195137	-1.735292
O	-1.176148	1.323538	-3.190261
H	-2.925452	0.0	0.0
