14

C	-0.616157	0.012039	-1.40034
C	0.0	0.0	0.0
Cl	0.021313	-1.312551	-2.414798
H	1.099131	0.0	0.0
H	-1.689725	-0.166681	-1.294172
C	-0.43113	1.281432	-2.102416
N	-0.289605	2.308728	-2.654453
N	-0.449195	-1.198704	0.679133
H	-1.194212	-0.957052	1.322529
H	0.336028	-1.577339	1.195755
N	-0.510342	1.198414	0.70071
H	-0.108775	2.015537	0.244001
H	-0.047349	1.172484	1.605914
H	2.890322	0.0	0.0
