14

C	-0.455637	-0.089168	-1.441651
C	0.0	0.0	0.0
Cl	-2.247345	0.109569	-1.632136
H	1.108122	0.0	0.0
H	-0.003005	0.747961	-1.973304
C	-0.080211	-1.344818	-2.089261
N	0.2055	-2.35531	-2.615478
N	-0.529478	-1.10795	0.808046
H	-0.438549	-1.973836	0.282413
H	0.129393	-1.205036	1.578064
N	-0.390445	1.288093	0.535809
H	-1.227752	1.165679	1.093484
H	0.3652	1.61077	1.131036
H	2.833961	0.0	0.0
