14

C	-0.616287	-0.007497	-1.394114
C	0.0	0.0	0.0
Cl	-0.202812	-1.484853	-2.345961
H	1.099908	0.0	0.0
H	-1.705365	-0.021607	-1.285043
C	-0.244851	1.170276	-2.17326
N	-0.008721	2.104789	-2.844046
N	-0.521478	-1.149728	0.757678
H	0.10985	-1.236011	1.551067
H	-0.348949	-1.987556	0.210752
N	-0.437019	1.24422	0.61424
H	-1.168391	1.036508	1.283413
H	0.358644	1.653566	1.091834
H	2.873568	0.0	0.0
