14

C	-0.449196	-0.016822	-1.449476
C	0.0	0.0	0.0
Cl	-2.226607	0.264234	-1.646869
H	1.102484	0.0	0.0
H	0.046324	0.81709	-1.947371
C	-0.120738	-1.264501	-2.133747
N	0.139915	-2.272149	-2.6778
N	-0.545392	-1.148269	0.737843
H	-0.254516	-1.999422	0.258437
H	-0.02601	-1.161586	1.613445
N	-0.394657	1.255692	0.599813
H	0.342673	1.534639	1.238063
H	-1.258899	1.121623	1.113407
H	2.848742	0.0	0.0
