14

C	-0.514719	-0.036797	-1.435198
C	0.0	0.0	0.0
Cl	-0.128807	1.454388	-2.363117
H	1.100445	0.0	0.0
H	0.005617	-0.854714	-1.934263
C	-1.959264	-0.262919	-1.495107
N	-3.118061	-0.44803	-1.541655
N	-0.406829	-1.259643	0.593188
H	-1.249376	-1.119969	1.138881
H	0.344353	-1.586901	1.189315
N	-0.571143	1.140763	0.726288
H	-0.064835	1.169748	1.608879
H	-0.289871	1.988723	0.239514
H	2.886956	0.0	0.0
