14

C	-0.444131	0.004324	-1.45087
C	0.0	0.0	0.0
Cl	-2.219769	0.291496	-1.650438
H	1.102532	0.0	0.0
H	0.05535	0.844515	-1.934354
C	-0.114607	-1.233933	-2.152669
N	0.124242	-2.234062	-2.719929
N	-0.547767	-1.159766	0.717979
H	-0.243488	-2.002717	0.234022
H	-0.040883	-1.179559	1.601252
N	-0.396588	1.247228	0.615624
H	0.334393	1.514589	1.265184
H	-1.266616	1.109401	1.116647
H	2.8529	0.0	0.0
