14

C	-0.534992	-0.035675	-1.428802
C	0.0	0.0	0.0
Cl	0.050006	1.347413	-2.395115
H	1.098677	0.0	0.0
H	-0.161814	-0.933797	-1.928688
C	-1.99773	-0.042828	-1.446946
N	-3.171599	-0.021343	-1.458493
N	-0.468316	-1.261511	0.626914
H	0.129455	-1.997265	0.252964
H	-0.1838	-1.185153	1.600605
N	-0.487623	1.158459	0.697456
H	-1.351067	0.947886	1.186703
H	0.219377	1.467012	1.352353
H	2.87608	0.0	0.0
