14

C	-0.416585	-0.014431	-1.478584
C	0.0	0.0	0.0
Cl	-0.057361	1.538187	-2.307786
H	1.101665	0.0	0.0
H	0.18753	-0.771201	-1.985999
C	-1.836381	-0.317536	-1.64941
N	-2.966253	-0.622815	-1.755829
N	-0.383945	-1.226916	0.665813
H	0.340786	-1.918894	0.520622
H	-1.28598	-1.582038	0.372971
N	-0.636756	1.125258	0.678411
H	-0.070259	1.950015	0.5027
H	-0.540469	0.914957	1.665436
H	2.892407	0.0	0.0
