14

C	-0.489925	0.024605	-1.42907
C	0.0	0.0	0.0
Cl	-2.303151	0.194545	-1.507092
H	1.096055	0.0	0.0
H	-0.093445	0.912374	-1.922347
C	-0.128964	-1.171401	-2.184005
N	0.141895	-2.10202	-2.846348
N	-0.409616	-1.231377	0.650783
H	-1.296317	-1.12354	1.128637
H	0.305999	-1.480255	1.325148
N	-0.351615	1.26919	0.62776
H	0.381296	1.480064	1.297301
H	-1.236757	1.202616	1.117653
H	2.795903	0.0	0.0
