14

C	-0.622266	0.02739	-1.391003
C	0.0	0.0	0.0
Cl	-0.205086	-1.418149	-2.385741
H	1.10326	0.0	0.0
H	-1.710676	0.003756	-1.276866
C	-0.263497	1.231175	-2.136095
N	-0.034793	2.183849	-2.783156
N	-0.518939	-1.168454	0.730001
H	0.119515	-1.278365	1.515455
H	-0.351055	-1.99185	0.158342
N	-0.435741	1.227946	0.646944
H	0.362491	1.628043	1.127627
H	-1.159351	1.00357	1.319914
H	2.873041	0.0	0.0
