14

C	-0.547137	0.068804	-1.428639
C	0.0	0.0	0.0
Cl	-0.04986	-1.339116	-2.428093
H	1.100718	0.0	0.0
H	-1.639135	0.011866	-1.368947
C	-0.178755	1.304348	-2.1172
N	0.051909	2.312491	-2.674125
N	-0.575676	-1.196655	0.625929
H	-0.495614	-1.01557	1.620008
H	0.060129	-1.965397	0.428488
N	-0.413618	1.169259	0.753458
H	-1.290839	1.56049	0.431467
H	0.312552	1.871583	0.673563
H	2.893074	0.0	0.0
