14

C	-0.567485	0.003165	-1.423796
C	0.0	0.0	0.0
Cl	-0.101043	-1.451972	-2.367668
H	1.100225	0.0	0.0
H	-1.659601	-0.009668	-1.349774
C	-0.197428	1.200364	-2.175316
N	0.04231	2.168949	-2.794611
N	-0.429524	-1.158473	0.758978
H	0.34953	-1.805644	0.787538
H	-1.219304	-1.628612	0.334763
N	-0.531965	1.233515	0.603388
H	0.235507	1.901273	0.615753
H	-0.722209	0.993995	1.569508
H	2.873028	0.0	0.0
