14

C	-0.435059	0.044274	-1.468173
C	0.0	0.0	0.0
Cl	0.018744	1.576915	-2.269162
H	1.094559	0.0	0.0
H	0.095279	-0.748446	-2.003561
C	-1.878685	-0.149812	-1.613028
N	-3.035037	-0.352535	-1.679465
N	-0.377132	-1.286275	0.590865
H	-1.059125	-1.79504	0.044587
H	0.468996	-1.842514	0.659994
N	-0.537032	1.13453	0.729996
H	-1.177431	0.774266	1.425032
H	0.240288	1.568064	1.220811
H	2.831746	0.0	0.0
