14

C	-0.487975	0.019808	-1.430941
C	0.0	0.0	0.0
Cl	-2.298719	0.186219	-1.51365
H	1.095393	0.0	0.0
H	-0.089134	0.906169	-1.925149
C	-0.119562	-1.178556	-2.18158
N	0.145937	-2.114637	-2.838333
N	-0.410281	-1.229531	0.653912
H	0.302773	-1.473336	1.33138
H	-1.30129	-1.125113	1.126977
N	-0.353315	1.270566	0.622337
H	0.378149	1.487972	1.292077
H	-1.239119	1.204197	1.110331
H	2.79883	0.0	0.0
