14

C	-0.460552	0.031984	-1.440334
C	0.0	0.0	0.0
Br	0.323395	1.51427	-2.35174
H	1.093657	0.0	0.0
H	-0.31178	0.93838	0.464196
N	-0.135902	-1.291508	-2.141818
O	0.828643	-1.350811	-2.880547
O	-0.897305	-2.200605	-1.824431
N	-1.979151	0.167136	-1.586422
O	-2.430735	-0.016063	-2.708642
O	-2.607733	0.480328	-0.582468
C	-0.532768	-1.114503	0.771344
N	-0.93547	-2.014696	1.408957
Br	3.396946	0.0	0.0
