14

C	-0.477916	0.001626	-1.425044
C	0.0	0.0	0.0
Br	-2.381074	-0.153169	-1.651532
H	1.092246	0.0	0.0
H	-0.342835	0.930505	0.463961
N	0.048216	1.287713	-2.100139
O	-0.737343	2.1555	-2.445981
O	1.26994	1.320431	-2.170143
N	0.175153	-1.11344	-2.254449
O	0.845651	-1.930903	-1.641158
O	-0.002877	-1.052464	-3.46553
C	-0.49937	-1.127237	0.75633
N	-0.907531	-2.01949	1.409097
Br	2.750882	0.0	0.0
