15

C	-0.408679	-0.079997	-1.522196
C	0.170855	-0.113104	-0.124528
Cl	-2.157516	-0.237568	-1.530886
H	1.261842	-0.175456	-0.200319
H	-0.179729	-1.038708	0.348516
N	0.026433	1.212231	-2.204761
O	-0.805152	2.045533	-2.514361
O	1.237532	1.272367	-2.372161
N	0.116358	-1.182247	-2.439459
O	0.024453	-0.991624	-3.647092
O	0.552501	-2.188614	-1.893845
N	-0.158658	1.125569	0.531922
H	-0.973075	0.990657	1.121077
H	0.682123	1.286658	1.187029
H	1.948527	1.121327	1.967904
