15

C	-0.474211	-0.169878	-1.490125
C	0.124843	-0.106543	-0.101981
Cl	-2.229245	-0.218644	-1.46569
H	1.208694	-0.242674	-0.183676
H	-0.272469	-0.960018	0.461269
N	0.027649	1.022729	-2.297157
O	-0.756709	1.872563	-2.677013
O	1.2374	0.991858	-2.481492
N	-0.031907	-1.384217	-2.303675
O	0.350926	-2.359766	-1.669325
O	-0.131162	-1.302749	-3.522965
N	-0.118115	1.207002	0.436361
H	0.7336	1.370227	1.076424
H	-0.936957	1.181205	1.034396
H	1.986959	1.192829	1.877503
