13

C	0.0	0.0	0.0
C	-0.340654	0.100379	-1.523689
Cl	1.793976	0.0	0.0
H	-1.302207	-0.384939	-1.675542
H	0.443968	-0.439165	-2.060757
C	-0.523702	1.120342	0.779676
N	-0.569714	2.088744	1.458412
C	-0.517587	-1.267863	0.533356
N	-0.541991	-2.377913	0.940886
N	-0.310926	1.500161	-1.922251
H	-1.162618	1.924696	-1.56532
H	-0.341364	1.55267	-2.93402
H	-2.204838	0.0	0.0
