13

C	0.0	0.0	0.0
C	-0.261518	0.024767	-1.541725
Cl	1.794895	0.0	0.0
H	-1.339562	-0.00897	-1.667606
H	0.183027	-0.906454	-1.923871
C	-0.449665	1.235294	0.651783
N	-0.522641	2.244552	1.25792
C	-0.705388	-1.154316	0.582377
N	-0.688869	-2.242513	1.069031
N	0.260159	1.235621	-2.154665
H	-0.277972	1.454291	-2.982425
H	1.230688	1.126614	-2.415442
H	-2.146083	0.0	0.0
