13

C	0.0	0.0	0.0
C	-0.260143	-0.020824	-1.542614
Cl	1.795	0.0	0.0
H	-1.337834	0.011481	-1.671285
H	0.183195	0.912147	-1.920515
C	-0.713316	1.148876	0.583994
N	-0.699317	2.235627	1.074596
C	-0.445129	-1.23951	0.646549
N	-0.51479	-2.253985	1.243668
N	0.266491	-1.227942	-2.15977
H	1.232494	-1.110034	-2.435681
H	-0.282958	-1.455881	-2.97811
H	-2.141061	0.0	0.0
