13

C	0.0	0.0	0.0
C	-0.275783	-0.135727	-1.534785
Cl	1.794665	0.0	0.0
H	0.173277	0.75415	-1.996642
H	-1.354522	-0.103642	-1.640777
C	-0.558032	1.246296	0.534588
N	-0.569274	2.337878	0.999046
C	-0.516083	-1.148169	0.74743
N	-0.552258	-2.140574	1.389839
N	0.245547	-1.398861	-2.032107
H	1.178595	-1.302253	-2.401925
H	-0.365253	-1.773836	-2.741547
H	-2.193308	0.0	0.0
