15

C	-0.388956	-0.035589	-1.474535
C	0.0	0.0	0.0
F	0.000882	-1.285843	-1.960345
H	1.09214	0.0	0.0
H	0.211967	0.714051	-1.993076
C	-1.868987	0.124238	-1.740656
H	-2.063244	0.054145	-2.814578
H	-2.421883	-0.671199	-1.234674
H	-2.214194	1.094629	-1.382635
C	-0.512152	-1.13113	0.737772
N	-0.90303	-2.09529	1.286592
N	-0.354029	1.246396	0.62666
O	-0.498735	1.278455	1.86009
O	-0.31539	2.260337	-0.098424
H	2.391918	0.0	0.0
