15

C	-0.459352	-0.066465	-1.45468
C	0.0	0.0	0.0
F	-0.12252	1.152446	-2.043673
H	1.091912	0.0	0.0
H	-1.54891	-0.14558	-1.520424
C	0.269806	-1.180287	-2.168281
H	0.058663	-1.128145	-3.239134
H	1.341699	-1.065263	-1.986209
H	-0.053317	-2.154577	-1.793629
C	-0.512211	-1.138718	0.739518
N	-0.92295	-2.082035	1.309393
N	-0.561072	1.247458	0.623214
O	0.213391	2.002221	1.199361
O	-1.776747	1.426178	0.50168
H	2.703087	0.0	0.0
