15

C	-0.460159	-0.078101	-1.453511
C	0.0	0.0	0.0
F	-0.107946	1.130144	-2.052822
H	1.091909	0.0	0.0
H	-1.550028	-0.14331	-1.51833
C	0.253517	-1.207386	-2.160044
H	0.03719	-1.161457	-3.230233
H	-0.080864	-2.174375	-1.776256
H	1.32849	-1.105336	-1.986021
C	-0.511266	-1.129161	0.753377
N	-0.920769	-2.065029	1.335762
N	-0.553048	1.252296	0.616673
O	0.214038	1.96819	1.250974
O	-1.75441	1.474723	0.437165
H	2.70005	0.0	0.0
