15

C	-0.470917	-0.067971	-1.450147
C	0.0	0.0	0.0
F	-0.126011	1.144638	-2.046427
H	1.091852	0.0	0.0
H	-1.561888	-0.133696	-1.505301
C	0.234434	-1.192888	-2.170044
H	0.010698	-1.138941	-3.23814
H	1.309978	-1.093606	-2.00232
H	-0.099154	-2.161298	-1.789817
C	-0.509168	-1.137383	0.743716
N	-0.918568	-2.078751	1.317318
N	-0.560375	1.248007	0.624388
O	0.217659	2.023714	1.164285
O	-1.780806	1.405694	0.540159
H	2.706162	0.0	0.0
