15

C	-0.455641	-0.079098	-1.455157
C	0.0	0.0	0.0
F	-0.1177	1.134611	-2.052105
H	1.091928	0.0	0.0
H	-1.544456	-0.159505	-1.524812
C	0.276502	-1.197012	-2.159559
H	1.347578	-1.08125	-1.974117
H	-0.049166	-2.168764	-1.780347
H	0.070234	-1.150834	-3.231341
C	-0.51028	-1.134127	0.747286
N	-0.920142	-2.072568	1.325557
N	-0.561333	1.249855	0.616343
O	-1.772157	1.441531	0.473546
O	0.208595	1.993076	1.213486
H	2.701923	0.0	0.0
