15

C	-0.465721	-0.082209	-1.45149
C	0.0	0.0	0.0
F	-0.125958	1.127479	-2.0563
H	1.09186	0.0	0.0
H	-1.555986	-0.155651	-1.510077
C	0.250473	-1.208431	-2.158519
H	0.033255	-1.164509	-3.228238
H	-0.079643	-2.175974	-1.772469
H	1.324404	-1.101131	-1.985007
C	-0.511035	-1.130975	0.752105
N	-0.92317	-2.066163	1.333976
N	-0.562496	1.253532	0.610309
O	-1.783323	1.407788	0.523916
O	0.214398	2.037158	1.141035
H	2.70644	0.0	0.0
