17

C	-0.480154	-0.010034	-1.452799
C	0.0	0.0	0.0
F	-0.047753	1.180755	-1.996188
H	1.094177	0.0	0.0
N	0.259554	-1.087395	-2.268247
O	1.468535	-1.145808	-2.124672
O	-0.388887	-1.708957	-3.107252
C	-1.960345	-0.143868	-1.672906
H	-2.46663	0.641031	-1.10815
H	-2.176135	-0.030633	-2.73424
H	-2.303304	-1.124418	-1.348026
N	-0.326911	-1.249984	0.717496
O	-0.630028	-1.175964	1.914061
O	-0.523319	-2.256152	0.011999
C	-0.516102	1.156151	0.693433
N	-0.95242	2.10792	1.230216
Br	2.89683	0.0	0.0
