17

C	-0.565869	-0.000643	-1.431627
C	0.0	0.0	0.0
F	-0.092742	1.147443	-2.017544
H	1.09417	0.0	0.0
N	0.047133	-1.129992	-2.265768
O	-0.712399	-1.762004	-2.997282
O	1.259093	-1.253137	-2.190122
C	-2.064549	-0.029515	-1.541825
H	-2.339428	0.087888	-2.589119
H	-2.45838	-0.979585	-1.186388
H	-2.478706	0.796389	-0.962412
N	-0.408613	-1.231455	0.749802
O	-0.586546	-2.246811	0.079134
O	-0.474973	-1.155462	1.970331
C	-0.482244	1.180351	0.700973
N	-0.903973	2.14725	1.217493
Br	3.342942	0.0	0.0
