17

C	-0.371768	-0.0013	-1.474886
C	0.0	0.0	0.0
F	0.283209	-1.003829	-2.107597
H	1.095867	0.0	0.0
N	-1.862316	-0.263775	-1.675587
O	-2.616519	0.187459	-0.81932
O	-2.191113	-0.83816	-2.70415
C	-0.02598	1.310773	-2.136027
H	-0.618617	2.129053	-1.72668
H	1.03708	1.496315	-1.963539
H	-0.212042	1.211191	-3.207019
N	-0.44871	-1.233271	0.724951
O	-0.895246	-2.158009	0.051933
O	-0.294886	-1.230233	1.939965
C	-0.453102	1.177158	0.721733
N	-0.774851	2.159273	1.279748
Br	3.289053	0.0	0.0
