17

C	-0.65633	0.027759	-1.387649
C	0.0	0.0	0.0
F	-0.231979	1.185503	-1.987873
H	1.094181	0.0	0.0
N	-0.111845	-1.085729	-2.282312
O	1.100288	-1.084113	-2.445833
O	-0.92744	-1.83887	-2.808218
C	-2.160857	0.005566	-1.36804
H	-2.532996	0.102918	-2.386911
H	-2.530569	-0.929532	-0.952594
H	-2.513281	0.848892	-0.772942
N	-0.385936	-1.234679	0.759449
O	-0.483261	-1.150312	1.977478
O	-0.509558	-2.261169	0.094618
C	-0.443506	1.174384	0.741541
N	-0.823525	2.141544	1.289262
Br	3.304408	0.0	0.0
