16

C	-0.516918	-0.018349	-1.442731
C	0.0	0.0	0.0
Cl	0.121736	-1.421545	-2.33202
H	1.09692	0.0	0.0
C	-1.974657	-0.035966	-1.526454
N	-3.14903	-0.067555	-1.55956
N	-0.007968	1.245227	-2.144891
O	1.192863	1.326619	-2.304298
O	-0.846631	2.08266	-2.45009
N	-0.555217	-1.183008	0.683691
H	-0.041905	-1.987591	0.333345
H	-0.247	-1.082048	1.646906
N	-0.46792	1.227563	0.589674
H	-1.342179	1.096884	1.085538
H	0.249957	1.582802	1.206682
F	2.617798	0.0	0.0
