16

C	-0.548593	0.014397	-1.423899
C	0.0	0.0	0.0
Cl	-2.332682	-0.066442	-1.487083
H	1.097741	0.0	0.0
C	-0.131048	1.20995	-2.150197
N	0.180242	2.20507	-2.691866
N	0.028794	-1.201447	-2.162455
O	1.153452	-1.031048	-2.614463
O	-0.634136	-2.224761	-2.204454
N	-0.437074	-1.201225	0.655947
H	-1.30272	-1.053511	1.161877
H	0.299124	-1.500994	1.281052
N	-0.494839	1.218161	0.680522
H	0.027511	2.001957	0.29042
H	-0.126639	1.130046	1.624272
F	2.590359	0.0	0.0
