16

C	-0.589192	-0.010624	-1.412855
C	0.0	0.0	0.0
Cl	0.127333	-1.279105	-2.416118
H	1.092322	0.0	0.0
C	-2.040343	-0.192317	-1.371762
N	-3.193284	-0.379426	-1.236526
N	-0.299319	1.335008	-2.077054
O	-1.265264	2.043422	-2.346823
O	0.873639	1.60232	-2.265028
N	-0.404445	-1.23463	0.645007
H	-1.249261	-1.121259	1.194344
H	0.355077	-1.530662	1.245129
N	-0.407849	1.258488	0.607291
H	-1.24292	1.167233	1.174317
H	0.361531	1.575116	1.183911
F	2.580392	0.0	0.0
