16

C	-0.52438	-0.027652	-1.432627
C	0.0	0.0	0.0
Cl	0.269767	-1.292603	-2.402154
H	1.096003	0.0	0.0
C	-1.971375	-0.24102	-1.476565
N	-3.113213	-0.508684	-1.402659
N	-0.2372	1.296487	-2.144515
O	0.794304	1.872347	-1.849228
O	-1.05463	1.646906	-2.993417
N	-0.375857	-1.195435	0.733123
H	0.417904	-1.824932	0.716206
H	-1.197773	-1.668145	0.371322
N	-0.57818	1.214096	0.581564
H	0.205097	1.795757	0.861286
H	-1.073697	0.934471	1.420954
F	2.595475	0.0	0.0
