17
Coordinates from ORCA-job run
  C   0.95218560906123     -0.18534251357537     -0.35550306539355
  C   -0.52441502649997     -0.30363275352582     -0.01012972063928
  F   1.32955284321177     -1.34351495062281     -1.05192051000773
  H   -0.62720362852162     -1.20130345020267      0.61400717226342
  H   1.09884337688357      0.64891909031612     -1.05416414468097
  C   1.88084186278113     -0.04900009717358      0.83120122779767
  H   1.69102540899262     -0.84656610483276      1.55367058266459
  H   2.91563924738972     -0.12863821968921      0.49349684477039
  H   1.75640430274982      0.91492262216643      1.32687425999160
  C   -1.35655041813517     -0.49192829554103     -1.27634906682610
  H   -1.28803507990888      0.39460460195187     -1.91537784366264
  H   -1.01134467493173     -1.35268043372982     -1.84950916423094
  H   -2.41007200092680     -0.64399759342218     -1.02796253768703
  C   -1.00267542952430      0.91129051894148      0.78237675381069
  H   -2.08222625463224      0.85916076743052      0.94276580874184
  H   -0.52658603667442      0.98148188553450      1.76209273382986
  H   -0.79538410131471      1.83722492597432      0.23543066925816
