17

C	0.0	0.0	0.0
C	-0.353775	0.001797	-1.540188
Br	1.940364	0.0	0.0
H	0.557915	-0.353823	-2.033658
C	-0.511426	1.096891	0.794996
N	-0.61118	2.041267	1.499636
N	-0.367406	-1.294724	0.663643
O	-0.497716	-1.28932	1.887773
O	-0.250008	-2.313192	-0.029512
N	-0.438471	1.445044	-2.00494
O	-1.228581	1.706442	-2.911701
O	0.340902	2.253292	-1.510881
C	-1.51734	-0.778383	-2.134608
H	-1.313374	-0.926378	-3.20212
H	-1.585117	-1.747444	-1.650607
H	-2.454575	-0.24533	-2.019947
H	-1.936699	0.0	0.0
