17

C	0.0	0.0	0.0
C	-0.341986	-0.015395	-1.539967
Br	1.970846	0.0	0.0
H	0.588656	-0.310404	-2.035741
C	-0.463555	1.126566	0.778343
N	-0.566027	2.088225	1.457899
N	-0.335524	-1.27496	0.711378
O	-0.474986	-1.224403	1.932095
O	-0.215419	-2.31612	0.056868
N	-0.513595	1.425589	-1.986124
O	0.324582	2.236309	-1.60468
O	-1.438559	1.689963	-2.752639
C	-1.45716	-0.861056	-2.131927
H	-2.430213	-0.409306	-1.972658
H	-1.26997	-0.951261	-3.210065
H	-1.436458	-1.850663	-1.685765
H	-1.888196	0.0	0.0
