17

C	0.0	0.0	0.0
C	-0.207667	-0.005345	-1.548054
Br	1.971328	0.0	0.0
H	0.472727	0.771199	-1.908119
C	-0.419238	1.223726	0.641808
N	-0.524553	2.28064	1.157484
N	-0.351077	-1.188485	0.830005
O	-0.435338	-0.999271	2.042299
O	-0.344667	-2.293043	0.285362
N	-1.549604	0.545299	-2.00379
O	-1.653675	1.771539	-1.966859
O	-2.381905	-0.214076	-2.493861
C	0.04973	-1.306097	-2.286802
H	-0.738669	-2.024385	-2.089897
H	1.005658	-1.726711	-1.984837
H	0.076352	-1.088332	-3.358139
H	-1.793653	0.0	0.0
