15

C	-0.57066	-0.058634	-1.371153
C	0.0	0.0	0.0
F	-1.901897	-0.338556	-1.408229
H	1.088193	0.0	0.0
H	-0.340879	-0.905472	0.512833
N	-0.36617	1.24647	-2.11343
O	0.783114	1.652891	-2.149687
O	-1.355009	1.775246	-2.605697
N	0.06401	-1.148413	-2.221578
O	0.122212	-2.245862	-1.683508
O	0.380827	-0.887892	-3.377318
N	-0.459139	1.247377	0.621431
H	-1.139784	1.074957	1.347592
H	0.361975	1.664867	1.041443
F	2.59654	0.0	0.0
