15

C	-0.425573	-0.011067	-1.426243
C	0.0	0.0	0.0
F	0.205169	0.91626	-2.160586
H	1.092527	0.0	0.0
H	-0.348127	0.950655	0.426668
N	-0.186625	-1.363927	-2.078982
O	-1.144539	-2.124181	-2.163947
O	0.958215	-1.580703	-2.437092
N	-1.925685	0.249619	-1.664092
O	-2.674947	0.174185	-0.694901
O	-2.256728	0.533166	-2.810993
N	-0.449618	-1.201146	0.68269
H	0.277427	-1.466832	1.332622
H	-1.320837	-1.058236	1.173053
F	2.601994	0.0	0.0
