15

C	-0.476898	-0.025504	-1.407586
C	0.0	0.0	0.0
F	-1.840769	-0.051313	-1.542771
H	1.08912	0.0	0.0
H	-0.384425	0.920073	0.450298
N	-0.046167	1.165502	-2.250039
O	-0.210739	1.047391	-3.461236
O	0.351615	2.163807	-1.665559
N	0.050207	-1.253843	-2.125226
O	-0.715905	-2.210293	-2.21821
O	1.21466	-1.202582	-2.491295
N	-0.43235	-1.185051	0.735938
H	0.306825	-1.873133	0.676365
H	-1.290661	-1.585063	0.379008
F	2.58127	0.0	0.0
