15

C	-0.437674	0.015696	-1.418823
C	0.0	0.0	0.0
F	0.038183	1.035972	-2.126537
H	1.094313	0.0	0.0
H	-0.374475	-0.911952	0.467317
N	-0.057795	-1.271682	-2.141184
O	-0.542894	-2.296294	-1.668321
O	0.674527	-1.187961	-3.115791
N	-1.968314	0.059585	-1.602975
O	-2.376197	0.434102	-2.699343
O	-2.663519	-0.300664	-0.660529
N	-0.470073	1.23977	0.620129
H	0.335302	1.66122	1.064886
H	-1.168899	1.048066	1.324282
F	2.600837	0.0	0.0
