15

C	-0.50629	-0.017926	-1.396159
C	0.0	0.0	0.0
F	0.054775	-0.983729	-2.141643
H	1.09257	0.0	0.0
H	-0.334844	-0.940104	0.46026
N	-2.023711	-0.250227	-1.533117
O	-2.437433	-0.480315	-2.665269
O	-2.702548	-0.214912	-0.511951
N	-0.29203	1.307505	-2.105937
O	-1.219023	2.109787	-2.079489
O	0.805239	1.4635	-2.620853
N	-0.42448	1.210433	0.687456
H	-1.235888	1.05806	1.267389
H	0.355581	1.511406	1.255561
F	2.590991	0.0	0.0
