18
Coordinates from ORCA-job run
  C   0.88323307605894      0.04226631112875      0.42099091925031
  C   -0.53143307053129     -0.47207317155486      0.13329548613588
  Cl  1.11924906632551      0.27773876826228      2.22687604979603
  H   -0.48451938087280     -1.51566186127455      0.47590562834768
  N   1.14932825245550      1.44485316115771     -0.13737637071965
  O   2.31871362555104      1.71939012624518     -0.37895176697542
  O   0.19367366500799      2.19871011424843     -0.26727409419287
  N   1.85508735724889     -0.79735680448373     -0.15076807816867
  H   2.78975964549235     -0.43727702132557     -0.00623547834151
  H   1.77507985438216     -1.73746408282443      0.21279636509653
  C   -0.79812806510295     -0.48403739576034     -1.37528552146907
  H   0.03165368070045     -0.92430029828886     -1.92752008889599
  H   -0.97191205421395      0.52837353823180     -1.74385567760316
  H   -1.69786803699082     -1.07049522646044     -1.57581135211157
  C   -1.68169620068494      0.19115471639792      0.88768853042457
  H   -1.80119129488018      1.23175447947232      0.59297414667459
  H   -2.60341887154045     -0.34305986593039      0.64307184053660
  H   -1.54661124840544      0.14548451275875      1.96747946221574
