16

C	-0.601163	0.053795	-1.388344
C	0.0	0.0	0.0
F	-0.025334	1.077692	-2.129951
H	1.094518	0.0	0.0
H	-1.658405	0.352824	-1.283072
N	-0.415042	-1.157676	-2.159083
H	-0.904415	-1.918323	-1.705361
H	-0.838255	-1.015878	-3.069979
C	-0.453499	-1.24705	0.742495
H	-1.548933	-1.315843	0.814964
H	-0.059917	-2.147243	0.265435
H	-0.039338	-1.225457	1.754756
N	-0.450354	1.226222	0.698868
H	0.381007	1.797945	0.806237
H	-0.74131	0.977836	1.634876
H	3.053431	0.0	0.0
