16

C	-0.516234	0.022023	-1.419731
C	0.0	0.0	0.0
F	-0.033997	-1.112534	-2.114493
H	1.095226	0.0	0.0
H	-0.112131	0.895093	-1.934144
N	-1.949495	0.049709	-1.485833
H	-2.300683	-0.830843	-1.127601
H	-2.237374	0.117725	-2.454921
C	-0.456588	-1.237366	0.767628
H	-1.533121	-1.220216	0.986568
H	0.081599	-1.278495	1.718156
H	-0.217972	-2.148502	0.212657
N	-0.383199	1.272521	0.616699
H	-1.30635	1.205937	1.029203
H	0.293325	1.477892	1.342627
H	3.041459	0.0	0.0
