16

C	-0.430849	0.008948	-1.453805
C	0.0	0.0	0.0
F	-0.075452	-1.216907	-2.061869
H	1.094971	0.0	0.0
H	0.123464	0.779821	-1.997075
N	-1.838884	0.24106	-1.617439
H	-2.07293	0.216157	-2.602344
H	-2.345073	-0.507696	-1.159616
C	-0.534918	-1.198846	0.766166
H	-1.619198	-1.133969	0.923836
H	-0.294941	-2.133866	0.25491
H	-0.061278	-1.208782	1.749426
N	-0.394318	1.254906	0.657996
H	0.407482	1.875734	0.627407
H	-1.158606	1.68311	0.148717
H	3.020208	0.0	0.0
