16

C	-0.400073	0.006057	-1.468935
C	0.0	0.0	0.0
F	-0.295805	-1.271444	-2.013961
H	1.096493	0.0	0.0
H	0.315044	0.622185	-2.033492
N	-1.792037	0.398937	-1.690008
H	-1.846585	1.40821	-1.630368
H	-2.015999	0.154111	-2.648352
C	-0.564023	-1.193226	0.744698
H	-1.659081	-1.192078	0.726679
H	-0.207253	-2.126839	0.3067
H	-0.224929	-1.139698	1.780545
N	-0.382317	1.246077	0.672158
H	-1.318804	1.538735	0.431343
H	0.284337	1.969838	0.439421
H	3.052964	0.0	0.0
