16

C	-0.361695	0.051908	-1.467208
C	0.0	0.0	0.0
F	-1.767761	0.044008	-1.604496
H	1.10091	0.0	0.0
H	0.001879	-0.84717	-1.975527
N	0.152	1.212844	-2.138621
H	0.035155	1.969661	-1.468012
H	1.157167	1.067513	-2.204429
C	-0.512827	-1.249006	0.697513
H	-0.118461	-1.294014	1.716492
H	-0.179347	-2.151062	0.17487
H	-1.608015	-1.260059	0.738234
N	-0.411808	1.254159	0.640199
H	0.26203	1.47137	1.365056
H	-1.325071	1.151821	1.066783
H	2.996243	0.0	0.0
