17

C	0.0	0.0	0.0
C	-0.578193	-0.164871	-1.420234
Br	1.965207	0.0	0.0
H	-1.658659	-0.331888	-1.239273
C	-0.497283	1.266002	0.683563
H	-0.106094	2.148348	0.175227
H	-0.162544	1.28233	1.721961
H	-1.592652	1.249711	0.646703
C	-0.346627	-1.181755	0.797596
N	-0.560106	-2.141046	1.442411
C	-0.025416	-1.34279	-2.085034
N	0.406523	-2.268038	-2.666491
C	-0.423025	1.076589	-2.298855
H	-0.768104	0.848897	-3.308808
H	0.619486	1.401685	-2.350442
H	-1.046448	1.880864	-1.907753
Br	-3.813046	0.0	0.0
