17

C	0.0	0.0	0.0
C	-0.433953	-0.004595	-1.51623
Br	1.969105	0.0	0.0
H	0.478733	-0.128483	-2.104418
C	-0.556969	1.150922	0.818943
H	-0.230156	1.062217	1.856815
H	-0.223539	2.105249	0.409413
H	-1.652125	1.087327	0.769153
C	-0.336326	-1.278515	0.633137
N	-0.533952	-2.316542	1.148812
C	-0.947098	1.309597	-1.912275
N	-1.274425	2.362235	-2.319023
C	-1.382809	-1.138637	-1.915846
H	-1.627595	-1.029375	-2.976784
H	-2.305927	-1.10186	-1.335255
H	-0.881506	-2.097884	-1.773024
Br	-4.090887	0.0	0.0
