15

C	-0.518622	0.185811	-1.412077
C	0.0	0.0	0.0
F	0.002112	-0.764996	-2.236367
H	1.090537	0.0	0.0
H	-0.322525	0.842453	0.615991
C	-2.024206	0.190748	-1.583493
H	-2.473549	0.968909	-0.967616
H	-2.2689	0.366603	-2.634677
H	-2.411837	-0.783973	-1.285335
N	-0.032783	1.540136	-1.923881
O	-0.332038	2.502174	-1.222666
O	0.517672	1.585564	-3.013463
C	-0.515477	-1.238056	0.555948
N	-0.935918	-2.243223	0.998023
H	2.731386	0.0	0.0
