15

C	-0.385026	0.153192	-1.449002
C	0.0	0.0	0.0
F	-1.762751	0.19237	-1.631764
H	1.091185	0.0	0.0
H	-0.369416	-0.946395	0.396393
C	0.265256	1.335308	-2.101135
H	0.02879	1.371494	-3.16368
H	-0.102858	2.237783	-1.609719
H	1.345484	1.256711	-1.944336
N	0.014133	-1.144048	-2.162732
O	-0.394839	-2.185615	-1.656739
O	0.647184	-1.065733	-3.210963
C	-0.503794	1.109512	0.786088
N	-0.889239	2.01532	1.428432
H	2.724846	0.0	0.0
