15

C	-0.383774	-0.053671	-1.461286
C	0.0	0.0	0.0
F	-0.179582	1.160645	-2.04638
H	1.093455	0.0	0.0
H	-0.319057	-0.922883	0.489661
C	0.386671	-1.113397	-2.206611
H	0.160629	-1.050232	-3.273775
H	1.447884	-0.923109	-2.016267
H	0.127645	-2.102695	-1.831083
N	-1.885928	-0.3336	-1.604841
O	-2.271259	-1.405368	-1.141292
O	-2.593296	0.499421	-2.160176
C	-0.563733	1.147884	0.685645
N	-1.011379	2.070689	1.258996
H	2.752808	0.0	0.0
