15

C	-0.381654	0.098626	-1.4594
C	0.0	0.0	0.0
F	-0.096996	1.373062	-1.889582
H	1.093298	0.0	0.0
H	-0.37615	0.87551	0.53361
C	0.331139	-0.898523	-2.323022
H	0.058874	-1.916725	-2.04775
H	0.091157	-0.730427	-3.373846
H	1.399058	-0.74918	-2.131053
N	-1.906038	-0.002016	-1.609198
O	-2.374072	-0.987484	-2.17747
O	-2.560925	0.914464	-1.119295
C	-0.500077	-1.221651	0.601275
N	-0.895873	-2.217951	1.084485
H	2.734104	0.0	0.0
