15

C	-0.457192	0.13743	-1.435343
C	0.0	0.0	0.0
F	-1.787339	0.500756	-1.512731
H	1.091016	0.0	0.0
H	-0.287692	0.928154	0.506175
C	0.394886	1.126306	-2.184035
H	0.201277	2.11729	-1.768588
H	0.141144	1.126617	-3.245935
H	1.447041	0.878973	-2.023564
N	-0.381498	-1.22462	-2.121264
O	0.697286	-1.535947	-2.615447
O	-1.394667	-1.916172	-2.103555
C	-0.572422	-1.122001	0.718736
N	-0.999385	-2.024347	1.339271
H	2.734366	0.0	0.0
