15

C	-0.379195	0.032533	-1.457106
C	0.0	0.0	0.0
F	-1.756921	0.024037	-1.653186
H	1.09321	0.0	0.0
H	-0.36224	-0.9115	0.474926
C	0.25077	1.17679	-2.188195
H	-0.128687	2.105557	-1.760249
H	0.017994	1.133754	-3.249595
H	1.330169	1.122654	-2.020768
N	0.046409	-1.29748	-2.093585
O	-0.074651	-2.311522	-1.411969
O	0.387554	-1.276687	-3.274268
C	-0.506569	1.169033	0.69131
N	-0.891997	2.122577	1.260539
H	2.726101	0.0	0.0
