16

C	0.0	0.0	0.0
C	-0.412653	-0.064826	-1.527184
Br	1.962055	0.0	0.0
H	0.278506	0.630595	-2.019865
C	-0.548955	1.254536	0.652544
H	-0.159194	1.360413	1.666946
H	-0.265448	2.132316	0.065165
H	-1.642368	1.144324	0.67406
C	-0.395571	-1.195135	0.739902
N	-0.631551	-2.16056	1.368811
N	-1.760576	0.294199	-1.86139
H	-1.821239	1.307106	-1.893726
H	-2.484208	0.014273	-1.112384
C	-0.081377	-1.403323	-2.054665
N	0.203916	-2.45172	-2.500939
H	-3.455524	0.0	0.0
