16

C	0.0	0.0	0.0
C	-0.42169	-0.039594	-1.507086
Br	1.960074	0.0	0.0
H	0.3571	0.51671	-2.043223
C	-0.515845	1.250673	0.694688
H	-1.608362	1.168412	0.740221
H	-0.241009	2.134656	0.119056
H	-0.095531	1.312654	1.701235
C	-0.393204	-1.202278	0.731952
N	-0.616123	-2.192056	1.326542
N	-1.689676	0.613377	-1.705697
H	-2.016163	0.429347	-2.650426
H	-2.456533	0.275471	-1.013153
C	-0.315848	-1.432727	-2.018164
N	-0.263918	-2.480474	-2.549556
H	-3.4414	0.0	0.0
