16

C	0.0	0.0	0.0
C	-0.405919	-0.050679	-1.528494
Br	1.971135	0.0	0.0
H	0.279354	0.658202	-2.010101
C	-0.549956	1.246633	0.664349
H	-0.164804	1.34075	1.681827
H	-1.643712	1.134741	0.680816
H	-0.26478	2.131622	0.088366
C	-0.393797	-1.202854	0.726762
N	-0.641973	-2.173052	1.343562
N	-1.756773	0.296283	-1.862974
H	-2.47731	0.012223	-1.113307
H	-1.827028	1.308053	-1.895361
C	-0.058333	-1.380703	-2.068168
N	0.222775	-2.430676	-2.513097
H	-3.45145	0.0	0.0
