16

C	0.0	0.0	0.0
C	-0.406195	-0.004993	-1.510699
Br	1.959473	0.0	0.0
H	0.344511	0.624103	-2.009697
C	-0.52939	1.232667	0.712632
H	-1.622279	1.140361	0.750533
H	-0.116437	1.282775	1.723452
H	-0.257652	2.129197	0.153068
C	-0.397219	-1.219904	0.701677
N	-0.635042	-2.19129	1.320516
N	-1.714284	0.56851	-1.699316
H	-2.059851	0.328244	-2.623805
H	-2.460961	0.233792	-0.97652
C	-0.205334	-1.365459	-2.072126
N	-0.089126	-2.407623	-2.605187
H	-3.462055	0.0	0.0
