16

C	0.0	0.0	0.0
C	-0.449468	0.0185	-1.481424
Br	1.958837	0.0	0.0
H	0.347085	-0.442873	-2.078929
C	-0.292081	1.265122	0.832474
H	-1.367053	1.383195	0.930181
H	0.168503	1.150953	1.817392
H	0.153244	2.120908	0.325211
C	-0.44029	-1.214126	0.687599
N	-0.530364	-2.227337	1.284979
N	-0.590437	1.400793	-1.932209
H	-1.48861	1.713374	-1.562163
H	-0.682986	1.374742	-2.943551
C	-1.69358	-0.766871	-1.69479
N	-2.298104	-1.469757	-2.444318
H	-2.389077	0.0	0.0
