16
Coordinates from ORCA-job run
  C   0.64288878216906      0.28961161420980      0.54987343960882
  C   -0.72679268478174     -0.40747568639915      0.39162388724239
  F   0.40955696287859      1.45210967764094      1.27920621432617
  H   -1.08076019801628     -0.61723871374885      1.40778214687790
  C   1.31050437730482      0.66757942468361     -0.75681889932336
  H   2.26372970468939      1.15364704205732     -0.54515116732209
  H   1.49185652345639     -0.21792966336114     -1.36818295494697
  H   0.67835211673017      1.36681619837884     -1.30445254109298
  C   1.53062895264899     -0.56531148033885      1.35935809768061
  N   2.23705175636133     -1.24992556731621      2.00082616564000
  C   -0.54340285628834     -1.68437388934622     -0.29876306391001
  N   -0.39539310377512     -2.69024485693641     -0.88648947322916
  C   -1.75769743999406      0.46718227988154     -0.32821248412436
  H   -2.73859125929670     -0.00744714158138     -0.27456790173677
  H   -1.50522015798376      0.59967369221250     -1.38064361102571
  H   -1.81571147610272      1.44232706996366      0.15561214533552
