16
Coordinates from ORCA-job run
  C   0.65901177951996      0.31032569560944      0.51894579406139
  C   -0.70603118013618     -0.40727893732742      0.42921545030380
  F   0.43726330013459      1.48647959349559      1.23071040350042
  H   -1.02014130540146     -0.59369835964090      1.46288840004998
  C   1.27043625909514      0.66784675889387     -0.82070423245318
  H   1.43732286018293     -0.22812525055474     -1.42092382003388
  H   0.60878382198677      1.34882494850141     -1.35640400822833
  H   2.22565797539113      1.16820868546936     -0.65725113768204
  C   1.58961371491819     -0.51287093439255      1.31247316051138
  N   2.33249213310013     -1.17204029124375      1.93921723070273
  C   -0.53191318032501     -1.70017566539251     -0.23312344362664
  N   -0.39515297932412     -2.71957664306224     -0.79993108778017
  C   -1.77322519748532      0.43546127090284     -0.27560491130321
  H   -2.74634116439043     -0.04657193724034     -0.17074865363629
  H   -1.82305764224370      1.42384157408357      0.18158448021831
  H   -1.56271919502261      0.53934949189837     -1.34034362460427
