14
Coordinates from ORCA-job run
  C   -0.57589825582404     -0.43787280814465      0.47232324208196
  C   0.75995131763467     -0.38797772544941     -0.27878076108877
  H   -0.52736359570163     -1.35433158529695      1.07187312464380
  H   0.83460102826640     -1.29147239870061     -0.88807887310752
  N   -1.64544882087277     -0.59567899271790     -0.49832812920922
  H   -1.92841176111366      0.30811753515851     -0.85505906630040
  H   -2.44830931070834     -1.03072013343873     -0.06255684279077
  C   -0.73308659249333      0.68504150362033      1.41505351907373
  N   -0.91448466361264      1.53677931331213      2.20412437686959
  C   1.90897328395611     -0.27209759223212      0.61226908648297
  N   2.80338342360285     -0.22962614751247      1.37363892978732
  N   0.80566578952341      0.75288621150328     -1.27896302350942
  O   -0.00539558973538      1.66266544455411     -1.14522477925270
  O   1.66682374707835      0.65528737534448     -2.14229080368057
