14
Coordinates from ORCA-job run
  C   -0.62537929839131     -0.51270395589106      0.18626765186354
  C   0.84004252781884     -0.21666021432709     -0.16846667758921
  H   -0.94977561886704     -1.30764326782648     -0.49016281703256
  H   1.46096292584986     -1.10553202396021     -0.02121265449639
  N   -1.41514593413107      0.66922692780406     -0.07666355325354
  H   -1.28954862026791      1.36393104598647      0.65172155807767
  H   -2.39859933926679      0.44002358517158     -0.13379148667319
  C   -0.67496148532852     -1.03245139307255      1.56788745857293
  N   -0.73208108189500     -1.45793169006637      2.66232296196592
  C   1.35088324082826      0.90983358491149      0.59995805230712
  N   1.70693191173372      1.80873230586313      1.26714562791539
  N   0.89743559235522      0.08656828977155     -1.65761629783055
  O   1.43826810451031      1.12172829016728     -2.01435165285472
  O   0.39196707505143     -0.76812148453180     -2.37303817097242
