14
Coordinates from ORCA-job run
  C   -0.64663038170601     -0.48153206685116      0.19433038336744
  C   0.84283882769541     -0.27037262035087     -0.12690127409072
  H   -0.98352987848899     -1.30613988915980     -0.43944773546612
  H   1.41875032629907     -1.17725944259635      0.07964223699237
  N   -1.37204271482835      0.71301807140027     -0.18214403826566
  H   -1.25501969247449      1.44948966290081      0.50492714522018
  H   -2.35985908849088      0.51787578127557     -0.28071628748353
  C   -0.77853013093026     -0.89052028138515      1.60582689661907
  N   -0.90584704142488     -1.18377304781356      2.73651546521699
  C   1.38161842997614      0.86775772912259      0.60571686437707
  N   1.75609193645719      1.77323159653914      1.25334739258849
  N   0.94535118704030     -0.04363966555002     -1.62437015394840
  O   0.49359112083571     -0.95561150807295     -2.30529091137768
  O   1.46321710004001      0.98847568054149     -2.02143598374950
