14
Coordinates from ORCA-job run
  C   -0.66409586140634     -0.46898162629159      0.16929775772773
  C   0.82861130862794     -0.28436337247608     -0.15296472163523
  H   -1.03053864184856     -1.23988631831149     -0.51370457709968
  H   1.37488255856233     -1.22186966310832     -0.01277475635416
  N   -1.35425610326728      0.76924048875279     -0.12012971362375
  H   -1.20632921988645      1.45494485851676      0.61156988098397
  H   -2.34887528296303      0.61303568905944     -0.21867699258332
  C   -0.79455222738500     -0.96961282214135      1.55107706351825
  N   -0.91787757904134     -1.34371475030847      2.65825912014240
  C   1.41643436656151      0.78159334409972      0.64680381574011
  N   1.84725247809362      1.61695723395287      1.35083974134331
  N   0.92801562786163      0.03494701095450     -1.63329295908091
  O   0.43888288727102     -0.81431961934584     -2.36750655275187
  O   1.48144568881995      1.07102954664707     -1.96779710632686
