14
Coordinates from ORCA-job run
  C   -0.54673883916758     -0.01557012615757      0.61343361059026
  C   0.44101037939388     -0.01847718284112     -0.59002371437253
  H   0.06648123287856     -0.00232607935946      1.52001404193005
  H   -0.09210245885669      0.09657538664251     -1.53622475247962
  N   -1.43715656635402     -1.14863417802772      0.67391978362672
  H   -2.00073392379021     -1.23713036396362     -0.16207620259445
  H   -0.92869569097788     -2.00813820673459      0.83865546005452
  C   -1.32039226399994      1.23164593455005      0.55978014359105
  N   -1.93524727574611      2.22813310063746      0.47413470164832
  C   1.22457118091899     -1.24624734385195     -0.57192565568123
  N   1.80620633574180     -2.26566733684562     -0.52398790416795
  N   1.36176576456917      1.17210876419543     -0.47058629253868
  O   2.07502081081887      1.19589712156331      0.52682843780830
  O   1.28601131457116      2.01883051019292     -1.35294165741476
