14
Coordinates from ORCA-job run
  C   -0.73485051067598     -0.35908195983286      0.14891338364044
  C   0.77628017410235     -0.41967644214255     -0.13108485305991
  H   -1.20415880135125     -1.05594609478982     -0.55058703821162
  H   1.16048961478248     -1.43362847120294      0.01413400343500
  N   -1.20245463976066      0.97791040263906     -0.14916959759270
  H   -0.96440570473780      1.62621550402558      0.59289030551256
  H   -2.20592007346709      0.98851034047918     -0.27678328434587
  C   -0.98540291241174     -0.83288240646789      1.52323991587963
  N   -1.19419387105926     -1.17325768795982      2.62840516087470
  C   1.50375826635211      0.53886563737235      0.68897379535281
  N   2.02970382328266      1.31201395810410      1.39980910157550
  N   0.96627096268655     -0.11535227405045     -1.60742689475430
  O   0.36712124803338     -0.87275309252356     -2.36041629045600
  O   1.68776242422428      0.81906258634962     -1.91989770785026
