18

C	-0.35399	0.029588	-1.474304
C	0.0	0.0	0.0
Br	-2.361181	0.180468	-1.750074
H	1.093745	0.0	0.0
C	0.325212	1.119098	-2.291614
H	-0.072007	2.09655	-2.036346
H	1.388947	1.084538	-2.02248
H	0.187548	0.924829	-3.357375
C	-0.012171	-1.266744	-2.060238
N	0.284821	-2.296345	-2.546241
C	-0.471574	-1.218514	0.755952
H	-0.097856	-1.161104	1.778669
H	-0.040434	-2.108815	0.294753
H	-1.559637	-1.302223	0.784246
N	-0.4071	1.235065	0.67344
O	-1.080295	1.155083	1.712487
O	0.019719	2.303784	0.219813
H	2.54574	0.0	0.0
