18

C	-0.361725	0.069952	-1.477054
C	0.0	0.0	0.0
Br	-2.33193	0.462447	-1.735483
H	1.093609	0.0	0.0
C	0.459284	1.056993	-2.297368
H	0.187484	2.07777	-2.050812
H	1.505959	0.889609	-2.008681
H	0.314752	0.871572	-3.363461
C	-0.193452	-1.258168	-2.068377
N	-0.041855	-2.302742	-2.587554
C	-0.476716	-1.232074	0.732536
H	-0.080276	-1.211583	1.746797
H	-1.567231	-1.291724	0.781756
H	-0.080392	-2.119497	0.236634
N	-0.379541	1.220715	0.714896
O	-0.801831	1.115929	1.875647
O	-0.170743	2.309212	0.165248
H	2.551382	0.0	0.0
