18

C	-0.359936	0.108514	-1.474664
C	0.0	0.0	0.0
Br	-2.327527	0.509959	-1.730649
H	1.095258	0.0	0.0
C	0.467157	1.111532	-2.270422
H	1.512409	0.928339	-1.987616
H	0.321969	0.953879	-3.340286
H	0.201849	2.127961	-1.996612
C	-0.190017	-1.205158	-2.098888
N	-0.035801	-2.232504	-2.650964
C	-0.471423	-1.254379	0.69809
H	-1.561457	-1.313181	0.753478
H	-0.066459	-1.26642	1.708471
H	-0.082194	-2.126435	0.17185
N	-0.373844	1.197338	0.752815
O	-0.237323	2.301265	0.211447
O	-0.708076	1.060902	1.938071
H	2.54183	0.0	0.0
