18

C	-0.455367	0.006122	-1.447958
C	0.0	0.0	0.0
Br	0.40051	1.481468	-2.471334
H	1.108364	0.0	0.0
C	0.006238	-1.284293	-2.129241
H	-0.184728	-1.229559	-3.201848
H	1.077713	-1.397624	-1.945715
H	-0.533689	-2.140168	-1.718274
C	-1.900507	0.163645	-1.603626
N	-3.069042	0.166208	-1.741851
C	-0.356889	-1.271322	0.753385
H	0.297018	-2.080093	0.420642
H	-1.406873	-1.562608	0.636466
H	-0.144834	-1.098341	1.807458
N	-0.452449	1.17154	0.744702
O	-1.02738	2.093294	0.145189
O	-0.152166	1.219052	1.945587
H	2.52562	0.0	0.0
