18

C	-0.34741	0.124916	-1.472839
C	0.0	0.0	0.0
Br	-2.341846	0.388417	-1.740104
H	1.096119	0.0	0.0
C	0.396336	1.215908	-2.230615
H	0.264028	1.080422	-3.305944
H	1.452823	1.110516	-1.950127
H	0.048575	2.199005	-1.930141
C	-0.067697	-1.154115	-2.12704
N	0.176501	-2.152683	-2.698298
C	-0.480284	-1.261616	0.675999
H	-0.053206	-2.124463	0.161852
H	-0.114069	-1.270892	1.702444
H	-1.569719	-1.339807	0.69201
N	-0.394219	1.191458	0.753563
O	-0.022589	2.293017	0.328142
O	-0.998186	1.044803	1.826308
H	2.545362	0.0	0.0
