18

C	-0.464589	-0.024967	-1.460832
C	0.0	0.0	0.0
Br	0.034826	-1.788592	-2.245043
H	1.092616	0.0	0.0
C	-1.972857	0.12267	-1.646662
H	-2.237327	0.033349	-2.702483
H	-2.271389	1.105485	-1.28189
H	-2.491821	-0.656391	-1.087602
C	0.234941	0.942354	-2.314554
N	0.705176	1.661056	-3.117783
C	-0.386083	-1.180534	0.864091
H	0.137467	-2.070141	0.516201
H	-1.464009	-1.371487	0.884648
H	-0.048397	-0.966131	1.876481
N	-0.363865	1.249801	0.607002
O	-0.520375	2.246704	-0.134898
O	-0.328278	1.336503	1.849903
H	2.423083	0.0	0.0
