18

C	-0.356038	0.079312	-1.477029
C	0.0	0.0	0.0
Br	-2.333263	0.438793	-1.738336
H	1.093607	0.0	0.0
C	0.445372	1.090428	-2.286329
H	0.30799	0.910885	-3.354635
H	1.49472	0.942312	-1.99613
H	0.151037	2.103534	-2.032813
C	-0.158976	-1.239419	-2.080422
N	0.015643	-2.267808	-2.623283
C	-0.480931	-1.236662	0.720624
H	-0.078067	-2.119797	0.222488
H	-1.571358	-1.298377	0.760684
H	-0.09297	-1.22251	1.738611
N	-0.385594	1.216433	0.718896
O	-0.881261	1.102464	1.849045
O	-0.111208	2.307804	0.204674
H	2.552482	0.0	0.0
