17

C	-0.34709	0.048074	-1.475364
C	0.0	0.0	0.0
F	-1.747502	0.161954	-1.645231
H	1.096623	0.0	0.0
H	-0.345215	-0.952767	0.413823
N	0.238473	1.23577	-2.049417
H	0.270118	1.147991	-3.05899
H	1.195607	1.310636	-1.713932
C	0.054015	-1.235841	-2.182133
H	1.13078	-1.38238	-2.071427
H	-0.47179	-2.093857	-1.754847
H	-0.200066	-1.16797	-3.245162
C	-0.555804	1.171704	0.796594
H	-1.648031	1.189823	0.757548
H	-0.243246	1.097648	1.841394
H	-0.187321	2.117511	0.398624
Cl	3.547454	0.0	0.0
