17

C	-0.397132	-0.023474	-1.47442
C	0.0	0.0	0.0
F	-0.221529	1.288031	-1.944997
H	1.096337	0.0	0.0
H	-0.366105	0.925336	0.455202
N	0.467936	-0.846997	-2.293551
H	0.312639	-1.820718	-2.060036
H	1.431036	-0.636666	-2.03033
C	-1.848482	-0.375011	-1.742133
H	-2.066646	-1.410808	-1.473722
H	-2.50393	0.281016	-1.164351
H	-2.045024	-0.236036	-2.806255
C	-0.47659	-1.217522	0.786524
H	-1.564187	-1.246367	0.906042
H	-0.025491	-1.213471	1.781225
H	-0.159824	-2.146153	0.301875
Cl	3.578302	0.0	0.0
