16

C	-0.438059	0.006099	-1.455047
C	0.0	0.0	0.0
F	-0.242942	-1.175225	-2.04214
H	1.100152	0.0	0.0
N	-1.921085	0.347721	-1.575559
O	-2.221748	1.481732	-1.920941
O	-2.678354	-0.5672	-1.278233
N	0.283558	1.061763	-2.274405
O	0.338587	0.843033	-3.478434
O	0.699991	2.042033	-1.673629
C	-0.465472	-1.235695	0.626495
N	-0.801327	-2.209376	1.190374
N	-0.566374	1.161171	0.695903
H	-0.619771	0.944133	1.683318
H	0.101195	1.91645	0.587169
Br	3.368659	0.0	0.0
