16

C	-0.474324	0.001583	-1.438377
C	0.0	0.0	0.0
F	0.106817	-0.955773	-2.158333
H	1.09575	0.0	0.0
N	-1.983818	-0.185943	-1.581421
O	-2.67504	0.046879	-0.596526
O	-2.373589	-0.543621	-2.685812
N	-0.197988	1.345835	-2.099038
O	-1.117479	2.154402	-2.104189
O	0.927449	1.480436	-2.551428
C	-0.430347	-1.25828	0.629266
N	-0.780803	-2.241768	1.168594
N	-0.390734	1.21236	0.684544
H	0.325094	1.443145	1.361643
H	-1.294348	1.12828	1.12769
Br	3.352321	0.0	0.0
