16

C	-0.399602	-0.001012	-1.45601
C	0.0	0.0	0.0
F	-0.342982	1.236587	-1.968651
H	1.102824	0.0	0.0
N	0.50165	-0.897474	-2.289001
O	0.568684	-2.049548	-1.879157
O	1.086679	-0.401944	-3.240462
N	-1.807952	-0.496882	-1.78179
O	-1.986192	-0.910177	-2.927029
O	-2.633301	-0.434435	-0.880307
C	-0.400407	-1.211738	0.702399
N	-0.5237	-2.065157	1.508583
N	-0.600939	1.162602	0.650296
H	-0.168952	2.00101	0.279947
H	-0.386725	1.116423	1.639374
Br	2.747454	0.0	0.0
