16

C	-0.453138	-0.036049	-1.447547
C	0.0	0.0	0.0
F	-0.295193	-1.249013	-1.991877
H	1.106117	0.0	0.0
N	-1.927985	0.303573	-1.632619
O	-2.65282	0.207679	-0.648767
O	-2.277946	0.558447	-2.779316
N	0.300987	0.970341	-2.303166
O	1.107407	0.509926	-3.095925
O	0.022176	2.144151	-2.10537
C	-0.449434	-1.216401	0.683419
N	-0.816382	-2.149334	1.297771
N	-0.391686	1.236113	0.646907
H	-1.207261	1.120236	1.227321
H	0.389692	1.576982	1.190535
Br	3.326132	0.0	0.0
