16

C	-0.445924	0.005521	-1.44907
C	0.0	0.0	0.0
F	-0.156488	-1.149979	-2.05466
H	1.097228	0.0	0.0
N	-1.945395	0.211214	-1.637933
O	-2.652174	0.251445	-0.636335
O	-2.321002	0.264872	-2.803205
N	0.191984	1.134589	-2.243833
O	-0.304302	2.241354	-2.079724
O	1.126756	0.824778	-2.964658
C	-0.460911	-1.244498	0.630019
N	-0.852698	-2.199506	1.190969
N	-0.376162	1.213465	0.688157
H	0.36179	1.460528	1.334632
H	-1.26189	1.124686	1.164959
Br	3.339178	0.0	0.0
