17
Coordinates from ORCA-job run
  C   0.48141258162310      0.30785967232264     -0.36941351555922
  C   -0.75377230588424     -0.30753504944636      0.30760979330196
  Cl  0.38524619826912      0.02520592995296     -2.14308406219548
  H   -0.59939003654669     -0.11415542813797      1.38489707818818
  N   0.42012422793067      1.75356414652681     -0.17891807993629
  H   0.65119537523572      1.95665144977041      0.78966318991349
  H   1.12093995047816      2.20076509570877     -0.75947381249599
  C   1.76670114351339     -0.33200291739416      0.12762889341306
  H   2.62528350299361      0.13426229606582     -0.36064257105538
  H   1.76835923042760     -1.40219280726454     -0.06683196025822
  H   1.85056857930488     -0.17619733903097      1.20848112127530
  N   -0.74789350047456     -1.74839096016214      0.14965618153399
  H   -1.39393460129151     -2.16241629349535      0.81100031538563
  H   -1.10419890827078     -1.94597710768322     -0.78029805582287
  N   -1.95793705087705      0.31395594973623     -0.21690502065193
  H   -2.72257287351394      0.18889367039845      0.43508414291110
  H   -1.78913151291747      1.30670969213262     -0.33845363794734
