17
Coordinates from ORCA-job run
  C   0.57648509878799      0.33440735288694     -0.30388905392687
  C   -0.73817341803378     -0.45075959933694     -0.19493739735655
  Cl  0.58754595405875      1.02184432284792     -2.05930664219762
  H   -0.74661904051197     -1.19572481374235     -1.00141283690465
  N   0.57873996350478      1.35312638024922      0.66721287321265
  H   1.40636135292455      1.93183366673284      0.62403287962554
  H   -0.26532523914885      1.90903104130411      0.60291773301233
  C   1.80407315784282     -0.54368149867479     -0.21103839056879
  H   2.70457699334756      0.04986811525079     -0.38443223054751
  H   1.83973994525152     -0.99236953496156      0.78039449130073
  H   1.76610141571201     -1.33322782834548     -0.96230411834602
  N   -1.85339204093783      0.49935374595846     -0.28235891707869
  H   -2.71334281947782      0.01852917001646     -0.04751716743217
  H   -1.93991027058785      0.84427186987227     -1.23222164692081
  N   -0.72247570881695     -1.16435845655897      1.06163802031264
  H   -0.76922961368453     -0.49165751527833      1.81826369458040
  H   -1.51415573023038     -1.79248641822059      1.12495870923539
