17
Coordinates from ORCA-job run
  C   0.50702822423095      0.56150792846164     -0.17910859108138
  C   -0.93196372077392      0.01870672894115     -0.05879779173323
  Cl  0.51112539468664      1.67663484223781     -1.63945793466457
  H   -1.59226419600240      0.90124836847006     -0.04038945012168
  N   0.83253053668983      1.28084562329955      1.01535610038640
  H   1.80162543062449      1.57515514363162      1.00195600695568
  H   0.25683728718603      2.11223998280943      1.09472753457611
  C   1.51806843733993     -0.53189480501561     -0.44261596406168
  H   2.51767805306470     -0.10454904930168     -0.55185852056380
  H   1.50991874114499     -1.23548843941890      0.39109454058096
  H   1.26237360973749     -1.05023758220853     -1.36516866144566
  N   -0.99076150177595     -0.78741586810956      1.15553230047412
  H   -0.55843750009673     -0.28275101176661      1.92039230488648
  H   -1.95816878537457     -0.97875975979364      1.38765616698701
  N   -1.28267770088221     -0.77860479040079     -1.21480605346840
  H   -2.23819498560266     -0.62045392538297     -1.49956585907045
  H   -1.16471732419659     -1.75518338645297     -0.97494612863592
