17
Coordinates from ORCA-job run
  C   0.50299376759284      0.40476895022192     -0.46249367812998
  C   -0.78575431312627     -0.42084758783211     -0.30157881843410
  Cl  0.60420647775208      1.00020819622959     -2.15385169085266
  H   -0.75775875402103     -1.23532495065244     -1.03816538311699
  N   0.38920438901325      1.55551416461777      0.41098227463514
  H   0.34812778248090      1.19921690526204      1.36101319896527
  H   1.20227596210656      2.15176138004825      0.31118216190799
  C   1.74128112619835     -0.44940241931744     -0.22064707743614
  H   1.75905332876777     -0.78255903328957      0.81921055702625
  H   2.64059094390902      0.13992152861635     -0.41034282064504
  H   1.76005563568299     -1.31841928262111     -0.88387859721828
  N   -1.92215045828686      0.40603122469349     -0.58824299066067
  H   -2.79252388406042     -0.08176990620559     -0.42483219303988
  H   -1.87273182067551      1.25517477824105     -0.03958167317453
  N   -0.76926988721547     -0.93185484258072      1.08901886095933
  H   -1.72479033120900     -1.05088626873614      1.40132140693381
  H   -0.32280996490920     -1.84153283669534      1.12888646228048
