17
Coordinates from ORCA-job run
  C   0.59340969764342      0.33869771781423     -0.32340664581965
  C   -0.73367637232674     -0.43887480624340     -0.28597668376218
  Cl  0.71006945548617      1.01614999392673     -2.05103660245972
  H   -0.73193536764346     -1.11827459415820     -1.14399249761468
  N   0.52640901782479      1.36840508714003      0.64831378918645
  H   1.37854504125051      1.91433711675400      0.67093812588109
  H   -0.25912556756575      1.97136894253413      0.42658052913630
  C   1.81299724778537     -0.53850244005680     -0.13561958493744
  H   1.81875932687506     -0.94058704222969      0.87637181210555
  H   1.79578106829690     -1.36680988660002     -0.84487088400310
  H   2.72291546968203      0.04048554270225     -0.30954841019954
  N   -1.84228103791774      0.51870697118124     -0.39977897585388
  H   -2.43277764578657      0.45667188323356      0.41826473290374
  H   -2.40534707940893      0.34555242717415     -1.22030451435874
  N   -0.73550676340477     -1.23119305477584      0.92711996246906
  H   -1.61327561338859     -1.72586172531020      1.02683848571344
  H   -0.60496087740169     -0.61227213308618      1.72010736161328
