17
Coordinates from ORCA-job run
  C   0.51121238015265      0.38463135867719     -0.42233346212084
  C   -0.74724326753915     -0.49350565361106     -0.31270580790446
  Cl  0.56161478329136      1.16196132749355     -2.03804087117771
  H   -0.62899463131811     -1.34064442228384     -0.99669977723654
  N   0.37860211292310      1.44929481601007      0.57231702751629
  H   0.72330784564361      1.09229084570496      1.45777149770365
  H   0.96116060060414      2.23562954236431      0.31060317546566
  C   1.78158394449160     -0.43782630250844     -0.27584894192513
  H   1.77194823886199     -0.93787114612067      0.69323017449763
  H   2.65469772111947      0.21390376489202     -0.34872188149559
  H   1.84929468817387     -1.19275296537259     -1.06234039947944
  N   -1.91567495049810      0.26060595385500     -0.70923393348419
  H   -2.75472761283976     -0.25683168256390     -0.47897232272003
  H   -1.91547675924489      1.13737019911140     -0.19876604509863
  N   -0.74280935029385     -1.02900939076310      1.05829096582838
  H   -1.21016071297918     -0.35867625705842      1.65895470043716
  H   -1.27733503054876     -1.88856998782648      1.09149590119380
