17
Coordinates from ORCA-job run
  C   0.58848852998693      0.34389514564693     -0.18949433985331
  C   -0.71165374210443     -0.22214265807646      0.39335825544867
  Cl  0.39253631224395      0.20548678061099     -2.07451823521535
  H   -0.58027142132056     -0.14886118125491      1.47854746235857
  N   0.72791294042479      1.67827153239206      0.22178692702342
  H   1.52243815451901      2.13591744519110     -0.20326028526502
  H   -0.12963565732539      2.19311215502341      0.06613363635212
  C   1.81217872992689     -0.47824263069145      0.14628569919689
  H   2.70102644135403     -0.02522083012628     -0.29870276220278
  H   1.70768734196094     -1.49840855891854     -0.21232224339248
  H   1.92976253430730     -0.48909987343532      1.23286092758813
  N   -0.84238997180646     -1.63036626928698      0.06976900892004
  H   -0.99577982276081     -1.74277534639538     -0.92595962176844
  H   -1.63663529943775     -2.02265883353079      0.56004142854635
  N   -1.80691544042027      0.67985376569642      0.04485084772671
  H   -2.61761871210185      0.47811355776301      0.61667568343615
  H   -2.06113091744631      0.54212579939222     -0.92705238889967
