17
Coordinates from ORCA-job run
  C   0.45939690145656      0.32221522066597     -0.38475515963207
  C   -0.73556925480164     -0.31793310194479      0.33990911942969
  Cl  0.25179555693395      0.11908544346851     -2.16030008930275
  H   -0.51321104886069     -0.17202588209910      1.41277388809185
  N   0.41912048647435      1.75793450884806     -0.12792640412527
  H   0.69665605623567      1.91614325097974      0.83686316194589
  H   1.09563341808984      2.22634332292692     -0.72052246196476
  C   1.76900016132200     -0.34399412060618      0.00196970913923
  H   1.91984248146128     -0.23972770668211      1.08174897954445
  H   1.75311710055333     -1.40386952536073     -0.24196186284813
  H   2.59863517461563      0.14251769769959     -0.51575390541889
  N   -0.74772274671226     -1.75032896871420      0.11924186686509
  H   -1.35680528055677     -2.19092778707112      0.79827562407623
  H   -1.15874625463306     -1.90541280288124     -0.79609699613667
  N   -1.96597394857352      0.33043873046196     -0.08112898550509
  H   -1.79733533443626      1.32611622259785     -0.17638535609956
  H   -2.68783346856840      0.18542549771088      0.61404887194077
