17
Coordinates from ORCA-job run
  C   0.58774303035994      0.36532387354699     -0.41537150885799
  C   -0.72442740116389     -0.41148427067672     -0.19386131714670
  Cl  0.53949731066694      0.91540368914413     -2.17204751847715
  H   -0.74964199222779     -1.23865825978156     -0.91706329131815
  N   0.69981625564451      1.51780717577288      0.41670365848859
  H   1.19509363212314      1.30707165060398      1.27137933062606
  H   -0.21394051370140      1.91049046636673      0.60778872640795
  C   1.80683652254699     -0.52134635328628     -0.27709507306583
  H   1.84725715466827     -0.92191566829002      0.73625602498757
  H   2.70344186648144      0.06271630462179     -0.48974561659629
  H   1.75709855614516     -1.35419353465054     -0.97952147541678
  N   -1.85038880349338      0.51240701390970     -0.32126942646950
  H   -2.71255648315559      0.01043247282039     -0.14451269824567
  H   -1.89512772616852      0.88537147851561     -1.26301351413877
  N   -0.68455854267472     -0.98876616747011      1.13734347964333
  H   -0.98073345076286     -0.28146936618940      1.80062768566867
  H   -1.32540941528823     -1.76919050495756      1.20440253391065
