17
Coordinates from ORCA-job run
  C   0.51590435478472      0.58033650949967     -0.21730060951812
  C   -0.95313811924392      0.14634653672108     -0.00368820243363
  Cl  0.48619445457873      1.72941793621886     -1.67321928182149
  H   -1.57849131350768      1.02298713432406     -0.19489683360491
  N   1.01578412196644      1.21391930482470      0.95061477101414
  H   0.35365648454212      1.87133565666391      1.34123471487085
  H   1.89654340726791      1.67699908620883      0.76693922182331
  C   1.43768059592951     -0.55661060191815     -0.61916997949102
  H   1.43896973751974     -1.32313232024666      0.16181127320014
  H   2.45852508311632     -0.18295561476687     -0.72208655317840
  H   1.12673042029073     -0.98817104470724     -1.56782431700564
  N   -1.14622668104230     -0.21352530734439      1.39935872102245
  H   -0.39113283316035     -0.79547441681600      1.73986125191757
  H   -2.02108463648587     -0.71375172739118      1.50127716874599
  N   -1.31475673844101     -0.83836420295674     -1.01244693608451
  H   -2.32021697907145     -0.87092036087575     -1.12230544656728
  H   -1.00094135904362     -1.75943656743814     -0.72915896288946
