17
Coordinates from ORCA-job run
  C   0.57026899310473      0.37852296049014     -0.23128547470508
  C   -0.75225155340827     -0.18572940718629      0.31156659049878
  Cl  0.41735379323444      0.48771242568388     -2.07831533238840
  H   -0.64104548636116     -0.11143525016034      1.40422139653199
  N   0.76496395119895      1.65178247220543      0.35976848454104
  H   1.56922630449807      2.12308110917728     -0.03363981375714
  H   -0.06813906380817      2.21324043464418      0.22408077919156
  C   1.75188650325307     -0.53132322669992      0.03661809911861
  H   1.82459129226883     -0.71722168404216      1.11209973601368
  H   1.65234813977763     -1.47109048890031     -0.50505134735487
  H   2.67615975198703     -0.05168658619444     -0.29201824126998
  N   -0.97344195781938     -1.55027323293141     -0.15371457314147
  H   -0.33269632433780     -2.19094904610848      0.30114725404839
  H   -1.91101950081030     -1.83155016918009      0.10769496253287
  N   -1.82988518884928      0.70605397589199     -0.05624309005208
  H   -2.07162808884429      0.54548844593670     -1.02789000427258
  H   -2.64569156508408      0.53637726737384      0.51796057446469
