17
Coordinates from ORCA-job run
  C   0.41637896321406      0.65448089246541     -0.26227838123721
  C   -0.96569011790925      0.01922828171406     -0.03244799846569
  Cl  0.25828439661272      1.82063433820936     -1.61644659056830
  H   -1.69492438521641      0.83730437609973     -0.08725091236249
  N   0.74425590311600      1.43095930789258      0.93247410651151
  H   1.42233387420468      2.14499967399406      0.69391629651033
  H   1.18599004669397      0.80302390859192      1.59710660904494
  C   1.47367117839153     -0.36884804188923     -0.63921859539625
  H   1.52989532857184     -1.12123733632998      0.15266076613802
  H   1.23057837729039     -0.85190745420220     -1.58522374856345
  H   2.44463934231397      0.12113361843073     -0.73547891385952
  N   -0.92790445817754     -0.61923558208908      1.28955320771896
  H   -0.94945303685343      0.10552825969582      1.99894897268741
  H   -1.76784455787460     -1.17586683497265      1.40043925190296
  N   -1.27548007784976     -0.92525262957511     -1.07975791243549
  H   -2.27486413726312     -1.05684703294267     -1.16050959574955
  H   -0.84986663926505     -1.82009774509275     -0.86648656187619
