17
Coordinates from ORCA-job run
  C   0.62133667482698      0.36661143293759     -0.45137577772049
  C   -0.75167085589368     -0.32586622490823     -0.28301292348218
  Cl  0.73392385579282      0.83816264087998     -2.18458626555155
  H   -0.86912195479426     -1.04720084219564     -1.10344369747218
  N   0.75888776528620      1.57272877024306      0.33081243537798
  H   0.02590971092523      2.21787715161033      0.05434018975183
  H   0.61366621689952      1.32355278591135      1.30518245595198
  C   1.78083265277659     -0.56442779099896     -0.14748915679442
  H   1.81694828825751     -0.78006641036321      0.92328193151712
  H   2.71288567235937     -0.07425990581871     -0.42595106773728
  H   1.69254306547057     -1.49974763964548     -0.70608068603394
  N   -1.80573962724329      0.65872536447317     -0.39697687750535
  H   -2.64555074882108      0.25874261974904     -0.79070894266141
  H   -2.01772159851789      1.02935355748256      0.52143533663379
  N   -0.78111127665940     -0.94377873795067      1.04803798940307
  H   -0.16431049586269     -1.74754721236869      1.08571495176343
  H   -1.72070734480249     -1.28385955903749      1.22082010455962
