17
Coordinates from ORCA-job run
  C   0.53697591488273      0.61909094438030     -0.31324017911677
  C   -0.89078087914390      0.08323749998037     -0.05977965160021
  Cl  0.42974137135980      1.69193299734527     -1.75674091719652
  H   -1.57174307527330      0.94439280268399     -0.12722067161568
  N   1.05360718753879      1.43165066589731      0.76554683029357
  H   0.40341455840502      2.16629663261489      1.02055891293238
  H   1.24868116240622      0.84669944623385      1.56896587115735
  C   1.52085049942928     -0.49526035462338     -0.60567507337303
  H   1.52400548729889     -1.20219034001304      0.22836258619621
  H   2.51631412772890     -0.06665312572791     -0.72218466833297
  H   1.24668783466490     -1.01417253178272     -1.52276750298030
  N   -0.89953450268697     -0.54761118502264      1.26881934608753
  H   -1.76396109227081     -1.06733497782125      1.36831726589004
  H   -0.89393171993357      0.15867232510863      1.99544747228422
  N   -1.27871079331533     -0.85368424266048     -1.08697597378078
  H   -2.28535259072028     -0.93019491889197     -1.14764656901188
  H   -0.89626349037038     -1.76787163770122     -0.87478707783314
