17
Coordinates from ORCA-job run
  C   0.56658444676903      0.59997621195625     -0.34258771211982
  C   -0.87591861333522      0.16077651490261      0.00425418869977
  Cl  0.50261468551599      1.52171641947720     -1.87982860808269
  H   -1.47335409915163      1.07768822940873      0.03125650852026
  N   1.12992119555722      1.48992817205356      0.65739088517790
  H   0.90415991112351      1.08234839191391      1.56053481432560
  H   0.65836795319798      2.38687947984748      0.60580925561274
  C   1.49787369330391     -0.58439202404659     -0.53004940249444
  H   2.49092397079511     -0.20868729765481     -0.77372264601319
  H   1.57490573915001     -1.15037733417581      0.40350660649927
  H   1.16128232273642     -1.23806064082902     -1.33588931334038
  N   -0.85265190886213     -0.37222690789137      1.37446877364182
  H   -0.58438419585705     -1.35012605878284      1.35529581740239
  H   -1.78259292692123     -0.32720327495902      1.77355581435498
  N   -1.43888251641511     -0.69119799490956     -1.02641981673454
  H   -1.03924287040337     -1.62098372532641     -0.97732940635829
  H   -2.43960678720346     -0.77805816098432     -0.90024575909138
