17
Coordinates from ORCA-job run
  C   0.44302421669142      0.30886623939160     -0.34422200685861
  C   -0.85299188358984     -0.26826694852497      0.27175689325864
  Cl  0.46894153460449     -0.00957965371390     -2.10983708362412
  H   -0.76524803365436     -0.01866547236020      1.34836033164861
  N   0.39776257935590      1.75663828835724     -0.17562567968018
  H   0.53107707164241      1.96945569759879      0.80896771560772
  H   1.15902316527974      2.18672617321430     -0.68934566896454
  C   1.68697695658602     -0.33759597354122      0.24900034451468
  H   2.58152347584234      0.13614239335920     -0.15996538119345
  H   1.68756159686305     -0.20406008787389      1.33612848535358
  H   1.73858096265941     -1.40315326002625      0.02303761434774
  N   -1.03066495796892     -1.69964012201638      0.19920152341439
  H   -1.05576015684191     -1.97750088367890     -0.77495610587167
  H   -0.29486850455581     -2.19939167445544      0.68010000768943
  N   -1.99352181684702      0.32916865605009     -0.37763280960340
  H   -2.82873818805853      0.09974194503185      0.14424102976805
  H   -1.87167801800839      1.33211468318806     -0.42920920980687
