17
Coordinates from ORCA-job run
  C   0.41324386282835      0.55948729306539     -0.16524394777924
  C   -0.98870361542508     -0.06824548841726      0.02444085274506
  Cl  0.30320394451660      1.57692696384894     -1.71629640083482
  H   -1.68786585327960      0.78250730253559      0.10624101806306
  N   0.69451981063161      1.37962837433221      0.96382404964616
  H   0.02832149596929      2.14082241140615      1.03163168954090
  H   1.62599303947939      1.77372901788195      0.91340295307184
  C   1.51396126969520     -0.45430508352483     -0.38201544340608
  H   1.56879480996790     -1.10740160249419      0.48871258700284
  H   1.31770350960527     -1.05225045612027     -1.27117889210761
  H   2.47091567368325      0.05238226655126     -0.52680735538833
  N   -0.92093238479161     -0.90154201682095      1.21049822503843
  H   -0.61110959243850     -0.35102192736796      2.00063514944179
  H   -1.84524300565589     -1.27270380023384      1.39266367618604
  N   -1.48596479871889     -0.91084075641546     -1.03596460824962
  H   -1.49949048891871     -0.41666362493915     -1.91827037377503
  H   -0.89634767714856     -1.73050887328758     -1.11527317919540
