17
Coordinates from ORCA-job run
  C   0.51518971364053      0.31636272822657     -0.32142958512196
  C   -0.75937459721510     -0.55247345946424     -0.26894779112852
  Cl  0.56715811470377      1.02612852614566     -2.03887322043736
  H   -0.69461418657416     -1.25925943613056     -1.10181054636835
  N   0.44184287017518      1.34141742670871      0.66335928854341
  H   -0.27255879760506      2.01962583824718      0.43091308213353
  H   1.32495802679826      1.82849255438382      0.75151398432312
  C   1.78194503427206     -0.49828732183837     -0.16136202185836
  H   1.79336183690669     -1.31947325195077     -0.87837832473931
  H   1.81865886726784     -0.91332009479382      0.84466456080257
  H   2.65988909884326      0.12707791193585     -0.34128986045967
  N   -2.01986265138114      0.16186088749270     -0.42117758896882
  H   -2.16495916991319      0.79486058403959      0.35659292050242
  H   -2.04824519304435      0.68397256158844     -1.28896467480389
  N   -0.71105183463083     -1.29709498672408      0.97240533685138
  H   -0.66087362235438     -0.63761915260646      1.74208071691449
  H   -1.57346350988938     -1.82227131526022      1.05870372381534
