17
Coordinates from ORCA-job run
  C   0.53647878192915      0.30472256037432     -0.32654821861720
  C   -0.70696045861931     -0.29597824585917      0.37376808510155
  Cl  0.27813054874803      0.11928044388411     -2.11837046224973
  H   -0.51135150493465     -0.15109991816247      1.44502003153217
  N   0.71990007568359      1.71542538416979     -0.09130099776610
  H   1.04322910211790      1.86538322072605      0.85753157949343
  H   -0.14256733971882      2.22430653048202     -0.23817368531615
  C   1.80834660578407     -0.42850849004833      0.04826644670258
  H   1.94640550499076     -0.37526238718156      1.13368436234709
  H   1.74842591355047     -1.47721168788499     -0.22961522132062
  H   2.65744261757441      0.04798586822146     -0.44292076662496
  N   -0.77214021652734     -1.72171792716832      0.13154687230819
  H   -0.88639399698348     -1.88385017580489     -0.86340905569770
  H   -1.60688523992227     -2.07143727148601      0.58782134264659
  N   -1.97277560230278      0.37177408981963      0.10002430244863
  H   -2.11566244621935      0.46934247630039     -0.89898015032844
  H   -2.02262234515038      1.28584552961798      0.53165553534066
