17
Coordinates from ORCA-job run
  C   0.44504159854601      0.55921012187650     -0.18034044988220
  C   -1.01510871334537      0.09829015805426      0.05590821978830
  Cl  0.36985993403677      1.53976753671395     -1.77545669585864
  H   -1.64248798128047      0.98494684330288     -0.09123839667958
  N   0.88878812152479      1.34291670001605      0.90719301192271
  H   0.18267793559824      1.99064343825168      1.23123366331953
  H   1.74820610774768      1.83450218840811      0.69936484436965
  C   1.43034319698738     -0.56123671277834     -0.45488175584454
  H   1.45400970981433     -1.24980879359952      0.39391420846759
  H   1.17795753525262     -1.10521651104850     -1.36344110690428
  H   2.43283080300091     -0.14743210298734     -0.58046780401927
  N   -1.16164843241442     -0.32894221499988      1.43622235743134
  H   -0.35692699575913     -0.85092784154504      1.75644608171583
  H   -1.98447522871723     -0.91669223193055      1.49418032065819
  N   -1.51466575070622     -0.90168512711650     -0.87212304011534
  H   -0.94488023267872     -1.73869985841553     -0.83359195498698
  H   -1.50952160760715     -0.54863559220222     -1.82192150338231
