17
Coordinates from ORCA-job run
  C   0.50277896219389      0.57321991220952     -0.30349175137995
  C   -0.92953699560104      0.10017333698362      0.06009499077567
  Cl  0.40329882807177      1.34544961313324     -1.93051368940398
  H   -1.53619566829833      1.01172092527874      0.10564314865422
  N   1.00123496271446      1.58457439252920      0.60890512682458
  H   0.83388546060895      1.22596005398909      1.54537355249845
  H   0.44436854944259      2.42728642503060      0.50775600305939
  C   1.50522665337836     -0.56274155310285     -0.37435125389452
  H   1.64670597346411     -0.99115330967571      0.62156135331368
  H   1.19041334796502     -1.34417201226001     -1.06815399413390
  H   2.46365673302392     -0.16582316665790     -0.70677542621241
  N   -0.86165630405760     -0.44732915469400      1.40883541968311
  H   -1.80864581735044     -0.52406346916889      1.76205894690981
  H   -0.49845022772647     -1.39437039704936      1.36735470168544
  N   -1.60165742119330     -0.80550739902482     -0.85889671627766
  H   -1.05974647586401     -1.65477991763839     -0.97474084021998
  H   -1.69668056077188     -0.37644427988209     -1.77165957188195
