17
Coordinates from ORCA-job run
  C   0.55003618627894      0.35002891949005     -0.40207966960432
  C   -0.72892104143610     -0.51256852072097     -0.24117948728156
  Cl  0.50489960421163      0.99905929504341     -2.10063266896951
  H   -0.65771609382154     -1.31927660039784     -0.97764947508594
  N   0.63814357439746      1.48309789398187      0.47913731694294
  H   -0.22200250585417      2.01389435011841      0.51923580699895
  H   0.93522969393264      1.20371088223983      1.40457596150820
  C   1.80754538196571     -0.48674043708022     -0.27115943696863
  H   1.79201101557516     -1.30754727218860     -0.98932296164365
  H   2.68052703663777      0.13761747353233     -0.46447892764038
  H   1.86181271464076     -0.91118906858187      0.73187020328618
  N   -2.00249787344015      0.15386413927807     -0.47729085444432
  H   -2.03829827925157      0.54457902916228     -1.41131856683352
  H   -2.13877652270617      0.90823165242168      0.18689801703502
  N   -0.68109921584180     -1.10993802595948      1.08224110101782
  H   -1.45673755316906     -1.75849016503263      1.15663266289610
  H   -0.84415612211953     -0.38633354530632      1.77552097878662
