17
Coordinates from ORCA-job run
  C   0.38600284295638      0.63696213386948     -0.29956330690979
  C   -0.99852967169787      0.05499556718481      0.07352272247032
  Cl  0.22177102800531      1.40053738774528     -1.93965014494224
  H   -1.66673283720204      0.91998145084165      0.10940916858817
  N   0.66761921950047      1.68690791942974      0.64006572349385
  H   0.49065236720997      1.31958374202119      1.56872711602712
  H   1.62828512259755      1.99833675870722      0.56400216291267
  C   1.47343618071580     -0.42193771414011     -0.42002980800291
  H   1.23228360560533     -1.18568325771740     -1.16224572376334
  H   2.41050986486169      0.04732701855234     -0.72684854298585
  H   1.63455223363680     -0.89144774263100      0.55427636225582
  N   -0.89010374876349     -0.47584699144072      1.42763230267379
  H   -0.47316593683508     -1.40079874066688      1.39242510657373
  H   -1.82920151795944     -0.60318186138855      1.78684546584114
  N   -1.58497908260572     -0.90702256553177     -0.84282961558587
  H   -1.73771688556715     -0.48237184666352     -1.74957914612163
  H   -0.96468278445850     -1.69834125817177     -0.97415984252498
