17
Coordinates from ORCA-job run
  C   0.56244604301611      0.22127888151169     -0.53229439710461
  C   -0.88240240996083     -0.25315967127446     -0.23436222261787
  Cl  1.01470440550437     -0.54704637960327     -2.11339554875378
  H   -1.47648269107046     -0.00676181524439     -1.12942778631589
  N   0.66929460779766      1.64781454103322     -0.72134531394267
  H   0.61765418207979      2.11689571150274      0.17473139061325
  H   -0.05886891267827      1.99481734153232     -1.33561302287069
  C   1.56319772461097     -0.21565601233907      0.51681691192706
  H   1.24031434598107      0.15071367419786      1.49371877053829
  H   2.54109027401646      0.19788216610347      0.26923449116781
  H   1.64801229362993     -1.30109491193719      0.55463384724931
  N   -1.33396732064525      0.43693250090756      0.96932977776270
  H   -2.18299260697000     -0.02566044864026      1.27396306310416
  H   -1.56945340754902      1.39770383014782      0.75721189829218
  N   -1.06842390995883     -1.66556443327363      0.01662676225145
  H   -0.76620058598806     -2.20871529530839     -0.78156624448702
  H   -0.51892203181565     -1.94037967931602      0.82273762318633
