17
Coordinates from ORCA-job run
  C   0.53039564419393      0.56346537962121     -0.32335717161143
  C   -0.95456552269937      0.14662855065769     -0.14312502308626
  Cl  0.62578999581728      1.49425375240929     -1.86158923334507
  H   -1.54514820564077      1.05752239644734     -0.29267585334297
  N   1.01795906865913      1.45309535200597      0.70991024311057
  H   1.08974261933815      0.96019351874176      1.59148148462013
  H   0.40252370566980      2.25149380211560      0.81953899973654
  C   1.46891443753913     -0.62440430421652     -0.42759065041418
  H   1.24382897098168     -1.21910992812990     -1.31168759763932
  H   2.49331972147428     -0.25949264657598     -0.49945484259198
  H   1.39260447805042     -1.25632580931498      0.46434989819644
  N   -1.28466939891190     -0.34273532758296      1.19543076999294
  H   -0.73765756885541     -1.16400000493474      1.42860570808399
  H   -1.12507768224977      0.36390797760636      1.90247949624089
  N   -1.34127969071811     -0.79899589259335     -1.16714247017029
  H   -2.34628501479982     -0.91899976957381     -1.12054206024858
  H   -0.93239555784865     -1.70549704668298     -0.96663169753141
