17
Coordinates from ORCA-job run
  C   0.53193377547828      0.31684065678153     -0.29888795741309
  C   -0.83494575044522     -0.39306034599449     -0.21960943745863
  Cl  0.64240698073192      0.96097934057700     -2.06356849276906
  H   -0.85849731533749     -1.14758988060393     -1.01847484852514
  N   0.56631617510319      1.34918769969001      0.65698313406274
  H   -0.25984246970452      1.93023421487094      0.57320792976846
  H   1.41281190890510      1.89983515515291      0.61142600937145
  C   1.70729220986737     -0.62606184043583     -0.15239512909183
  H   2.64432331830094     -0.09584263899667     -0.33375715194866
  H   1.63898736744257     -1.44449955990007     -0.87103824682038
  H   1.72754777785528     -1.02468463238854      0.86325997628571
  N   -1.88061484429781      0.61340428272151     -0.33366628102699
  H   -1.96007469810908      0.93444271745232     -1.29042957882086
  H   -2.75140265621206      0.17881639969573     -0.05582651119498
  N   -1.05212515930029     -1.07394343226095      1.04146670940815
  H   -0.49886231225209     -1.91873802000489      1.09358989274594
  H   -0.77525430802609     -0.45632011635659      1.79671998342719
