17
Coordinates from ORCA-job run
  C   0.48396773717747      0.31250835750782     -0.28324805453890
  C   -0.82821397123412     -0.27787542906099      0.32539029278766
  Cl  0.36852831822337      0.13517762122876     -2.08255355169181
  H   -0.70844780109606     -0.13667378338271      1.40881408767351
  N   0.68240071300910      1.72071060557861     -0.02337999320248
  H   0.86525066150912      1.86488490828244      0.96378182696866
  H   -0.13251082122042      2.25699456683512     -0.29300507115481
  C   1.71873304327469     -0.43458096194496      0.18529387541709
  H   1.71618788115022     -1.46756006792955     -0.15835343837886
  H   1.76116574166462     -0.42790266852079      1.28034075262276
  H   2.60786179639162      0.06135498905121     -0.20422982461078
  N   -1.02407548670369     -1.69656455514026      0.09917330967152
  H   -0.28630127951761     -2.23245511505090      0.53606809317175
  H   -1.00816155591859     -1.89499813451738     -0.89471139833369
  N   -2.03990620416130      0.42038766626293     -0.05652945647223
  H   -2.14741110852055      0.41581259806978     -1.06415727865933
  H   -2.02806766402788      1.37977940273085      0.26130582872995
