17
Coordinates from ORCA-job run
  C   0.42290035522848      0.22994129954111     -0.53386645749146
  C   -0.98138122820202     -0.39685237958576     -0.31284516155438
  Cl  1.07594470590156     -0.46260752466618     -2.06689557319398
  H   -1.52335030128801     -0.19948591640875     -1.24288393767781
  N   0.23663264348173      1.65808194490773     -0.77186654369521
  H   1.01864618296477      2.02244860983506     -1.30356621424952
  H   0.23278125142575      2.13741383451932      0.12226827727341
  C   1.41989103186515     -0.08957172469239      0.56873163277722
  H   1.06191101238135      0.31207716577160      1.52240717576498
  H   1.57484418417700     -1.16322170568230      0.67717322315163
  H   2.38211077868498      0.37605364596887      0.34791105509370
  N   -1.71693163340340      0.25899661433455      0.75037894101429
  H   -1.20405892802521      0.25896017582310      1.62410904997484
  H   -1.92881127205913      1.21154537188372      0.48748251080305
  N   -0.99018935176650     -1.82499021566218     -0.06754395953755
  H   -0.73004274363948     -2.02731018834177      0.88953330268354
  H   -0.34989668772702     -2.30147900754575     -0.68952732113673
