18

C	0.0	0.0	0.0
C	-0.379556	0.300317	-1.464195
Cl	1.824514	0.0	0.0
H	0.023241	1.286681	-1.688151
N	-0.426027	1.12955	0.791718
H	0.060009	1.124677	1.680592
H	-1.421902	1.003947	0.966923
N	-0.540599	-1.223445	0.447204
H	-0.300046	-1.417812	1.409078
H	-0.307239	-1.996569	-0.160596
C	-1.862942	0.198337	-1.752382
H	-2.450925	0.852832	-1.110855
H	-2.239573	-0.804791	-1.56677
H	-2.049274	0.481048	-2.791732
N	0.336219	-0.61268	-2.415795
O	0.243297	-1.828361	-2.239362
O	0.936846	-0.089781	-3.352139
Br	-4.885206	0.0	0.0
