18

C	0.0	0.0	0.0
C	-0.498177	-0.177938	-1.459073
Cl	1.782728	0.0	0.0
H	-1.580196	-0.017284	-1.403261
N	-0.447108	1.277226	0.467268
H	-1.455754	1.323544	0.315882
H	-0.284602	1.299495	1.469032
N	-0.436726	-1.065884	0.871005
H	-1.459069	-1.039327	0.869879
H	-0.123279	-1.968858	0.535353
C	-0.18645	-1.523872	-2.076783
H	-0.47232	-1.521459	-3.130578
H	-0.777777	-2.293311	-1.577832
H	0.875677	-1.761544	-2.011519
N	0.019898	0.913478	-2.34367
O	1.055633	0.6999	-2.978797
O	-0.630648	1.954839	-2.399122
Br	-3.738517	0.0	0.0
