18

C	0.0	0.0	0.0
C	-0.342291	-0.01553	-1.509674
Cl	1.857956	0.0	0.0
H	0.047624	0.909279	-1.93796
N	-0.428262	1.18491	0.676547
H	-0.130577	2.020838	0.190461
H	-1.443368	1.155339	0.747721
N	-0.547974	-1.093607	0.674037
H	-0.323163	-1.978172	0.244632
H	-0.340304	-1.066136	1.661264
C	-1.815095	-0.208972	-1.806734
H	-2.161452	-1.180889	-1.460942
H	-1.984252	-0.117497	-2.883922
H	-2.443614	0.514406	-1.28943
N	0.407252	-1.08532	-2.247236
O	1.021763	-0.75088	-3.25797
O	0.320516	-2.240914	-1.830984
Br	-4.79438	0.0	0.0
