18

C	0.0	0.0	0.0
C	-0.339693	-0.089237	-1.511319
Cl	1.82928	0.0	0.0
H	-0.044702	0.868236	-1.937395
N	-0.489867	1.277335	0.443156
H	-0.916718	1.219282	1.356086
H	0.20366	2.008677	0.408625
N	-0.50574	-1.109217	0.731395
H	-0.311668	-0.98528	1.718443
H	-1.515066	-1.156553	0.597131
C	-1.78279	-0.404619	-1.821805
H	-1.955244	-0.272471	-2.892777
H	-2.027023	-1.433355	-1.556153
H	-2.465242	0.244198	-1.274305
N	0.51397	-1.082187	-2.244673
O	0.423583	-2.265428	-1.935245
O	1.220109	-0.641976	-3.154452
Br	-4.682545	0.0	0.0
