12

C	-0.522136	-0.034264	-1.425493
C	0.0	0.0	0.0
F	-0.153654	1.161633	-2.060813
H	1.091856	0.0	0.0
H	-0.021581	-0.833076	-1.976127
H	-0.320281	-0.918621	0.500138
N	-1.934672	-0.228367	-1.476178
H	-2.246678	-0.196733	-2.439045
H	-2.393456	0.52328	-0.972978
C	-0.555152	1.140467	0.720584
N	-1.061114	2.053366	1.257952
Cl	3.406111	0.0	0.0
