12
Coordinates from ORCA-job run
  C   0.09692121797082      0.34167540140595      0.08506690111315
  C   1.19211569042522     -0.42445074751009     -0.15704021328923
  H   2.18754699397717      0.01051776312676     -0.14679900029784
  C   -1.30100458205914     -0.19861116757199      0.09481211943120
  H   -1.32033920359720     -1.26523963079542     -0.12239323429879
  H   -1.75684691047040     -0.02793267462677      1.07359242460380
  H   -1.91192791239695      0.31669989177170     -0.65332026652625
  N   0.20011563263387      1.67284499428786      0.43288959113484
  H   -0.59576010571837      2.24675056318315      0.20500828434587
  H   1.08258674476835      2.11837056896691      0.23470376429038
  C   1.09872675438404     -1.81807814215024     -0.41362058049271
  N   1.02786568008258     -2.97254682008782     -0.63289979001442
