12
Coordinates from ORCA-job run
  C   -0.12141856081592      0.07551158919977      0.00455264316796
  C   0.55970372688967     -1.08647716827902     -0.18326397306426
  H   0.06055963637501     -2.04127196420318     -0.08516954487056
  C   -1.57374303062533      0.08215356386826      0.37438177929681
  H   -2.15492784306045      0.60256550306374     -0.39121698441574
  H   -1.72580006319377      0.60721807108422      1.32279033662144
  H   -1.95817071141734     -0.93140689717900      0.48008390877074
  N   0.43023453630698      1.31470301013816     -0.21386024702198
  H   1.43597606526884      1.35537406668013     -0.29255323265782
  H   0.02557103007443      2.08188187919342      0.29696137428079
  C   1.93923591819838     -1.06897072011434     -0.52156995100209
  N   3.08277929599950     -0.99228093345216     -0.79313610910529
