12
Coordinates from ORCA-job run
  C   -0.12112626963618      0.07551709460726      0.00768245343941
  C   0.58058587121482     -1.02663465565781     -0.36950675768713
  H   0.07348799686587     -1.95914367772571     -0.57876503999280
  C   -1.61072367760100      0.03980018319235      0.16836788743032
  H   -2.08008538597985      0.75148740003648     -0.51569901329641
  H   -2.00479351758822     -0.95541658488919     -0.03307301326453
  H   -1.89413627756883      0.32071999313987      1.18770257674403
  N   0.45442036537306      1.31162046491993      0.17837326677129
  H   1.46143908789823      1.33552598509410      0.24995430511528
  H   -0.01802776744705      1.94127796242941      0.80607914701437
  C   1.99360900010987     -0.97098351669051     -0.50618216903002
  N   3.16335057435928     -0.86477064845619     -0.59393364324382
