12
Coordinates from ORCA-job run
  C   0.08902629921063      0.35455664280522      0.01179187102299
  C   1.16068777291432     -0.39851325192839     -0.34811880413821
  H   2.13806098108457      0.05571583582127     -0.48441646025785
  C   -1.28522574518989     -0.20966826474471      0.20996452430450
  H   -1.62748327777175     -0.02067031364240      1.23272926660918
  H   -1.98767982305466      0.27611681052443     -0.47231038177865
  H   -1.30763206145198     -1.28382742289389      0.03385163514639
  N   0.16989824364705      1.72659779284076      0.13654129449649
  H   1.09758138926840      2.11112955899096      0.22623595273217
  H   -0.49604610245461      2.14598551611123      0.76557127532543
  C   1.06172485995256     -1.79786458839992     -0.56925647282587
  N   0.98808746384535     -2.95955831548454     -0.74458370063657
