12
Coordinates from ORCA-job run
  C   0.08073131362029      0.35085027528173     -0.06096321803254
  C   1.07781716279086     -0.45816401926399     -0.50412507341691
  H   1.99311578601346     -0.03861749865681     -0.91210693538990
  C   -1.20918936986316     -0.16356015739775      0.50245841812021
  H   -2.04730287582549      0.20519280299661     -0.09463715536809
  H   -1.34515455151792      0.19588509555015      1.52755115664455
  H   -1.23618661148751     -1.25183037773041      0.51406580693122
  N   0.14751144847347      1.72394708613311     -0.18167694812251
  H   1.06291793901942      2.11151966625317     -0.35053516837771
  H   -0.38697056461852      2.24713217313596      0.49328238387636
  C   0.97125591545762     -1.87404580384150     -0.47819670771423
  N   0.89145440793749     -3.04830924246028     -0.45411655915043
