12
Coordinates from ORCA-job run
  C   0.09762949674874      0.34932764046736     -0.04137473590845
  C   1.14387943084622     -0.47844609873162     -0.29665343129252
  H   2.12795533621604     -0.07578810235125     -0.51983055918913
  C   -1.28585496100940     -0.13997450250717      0.26240669038306
  H   -1.60670812369741      0.21539954919148      1.24697564590128
  H   -1.98768310276635      0.25120601945255     -0.47893386443215
  H   -1.33642644615547     -1.22753680220771      0.25740104653097
  N   0.21456809148340      1.72119403311691     -0.13096167004952
  H   1.15309600560388      2.08941983428199     -0.12259437454281
  H   -0.42631486079060      2.25215661838271      0.43657848484444
  C   1.00574815354631     -1.89181429206652     -0.30539231098988
  N   0.89911097997464     -3.06414389702873     -0.30762092125530
