12
Coordinates from ORCA-job run
  C   0.07749533806550      0.33734882881898     -0.11589299975214
  C   1.11235919142458     -0.50710692746518     -0.36318579249408
  H   2.04057088550881     -0.13797729361755     -0.79026208951567
  C   -1.23095466955263     -0.10972784063078      0.46222221395732
  H   -1.23728348747465     -1.18027156769400      0.65998503097362
  H   -2.04247623746020      0.12729442560345     -0.23075360718481
  H   -1.42937183717285      0.41588503661894      1.40186704043511
  N   0.12443909560443      1.67099081356640     -0.46626241126789
  H   -0.45717412163445      2.28677677577723      0.07900361501748
  H   1.03911628121198      2.05034829056488     -0.65593284176088
  C   1.03103886913981     -1.90032503262571     -0.10057875940986
  N   0.97224069233969     -3.05523550891666      0.11979060100182
