12
Coordinates from ORCA-job run
  C   0.05871592242052      0.25539365877610      0.25367752948760
  C   1.21381285383259     -0.38570964886138     -0.06218835098387
  H   2.15890621087482     -0.07216435311248      0.37170374589833
  C   -1.27740600998226     -0.12938714415269     -0.30524816909959
  H   -1.72332279872223      0.71715064661168     -0.83704567153585
  H   -1.19710799167480     -0.96552627079669     -0.99760878785360
  H   -1.95358478877911     -0.40622066129917      0.50789039097474
  N   0.01848772553588      1.26370773567788      1.19459134537959
  H   -0.72798192873802      1.93173144080762      1.08808411748381
  H   0.90195598404997      1.68711432906300      1.43252292298955
  C   1.24697663413899     -1.49143899472439     -0.95264968057687
  N   1.28254818704365     -2.40465073798947     -1.69472939216384
