12
Coordinates from ORCA-job run
  C   -0.12547326026443      0.06747413078373      0.01314951644193
  C   0.65109707777456     -0.92792516513214     -0.49248037388710
  H   0.20612685191095     -1.84625024523285     -0.85197665466047
  C   -1.61410259195825     -0.07377084044221      0.11414662898545
  H   -1.94247865238655     -1.04994053963207     -0.24029015892680
  H   -1.94054888769965      0.04080152863802      1.15287197464677
  H   -2.10762203134640      0.70199596686274     -0.47712398411195
  N   0.37037223676203      1.29521351512585      0.38080751158280
  H   -0.15540884524380      1.79991741146208      1.07540495377160
  H   1.37177209688639      1.36330532060105      0.49126564739738
  C   2.06147842470691     -0.77591510315259     -0.56783706091398
  N   3.22478758085823     -0.59390597988160     -0.59593800032562
