12
Coordinates from ORCA-job run
  C   -0.12541172835094      0.06718242835777      0.01399273449510
  C   0.62270184574251     -0.99393341654591     -0.39115912515296
  H   0.16877075621325     -1.96425319025389     -0.54188717894551
  C   -1.59296904578902     -0.06651889539917      0.28692820081785
  H   -2.16136560176104      0.58749731024243     -0.37925040047768
  H   -1.92798013282453     -1.09291694540337      0.14388599618084
  H   -1.82048535760895      0.22690387007889      1.31671182134062
  N   0.37343926303180      1.34341002325505      0.11616673415409
  H   -0.09536337956873      1.95646250739717      0.76260311337627
  H   1.37833745593162      1.43958631584208      0.10880039094961
  C   2.01469956374771     -0.84402046562040     -0.63149373312964
  N   3.16462636123631     -0.65739954195065     -0.80529855360860
