12
Coordinates from ORCA-job run
  C   0.08923820918034      0.34802062866529     -0.06387582339587
  C   1.07037744382579     -0.48811824256242     -0.49197834740981
  H   1.94414920304946     -0.10033206845786     -1.00798909038860
  C   -1.13511575139889     -0.12091136323262      0.66219338709697
  H   -1.13594626617749     -1.20209388407434      0.78984452720548
  H   -1.18453665416340      0.35207913904755      1.64665262393606
  H   -2.03677672177769      0.16213657727045      0.10942010700829
  N   0.19417732029936      1.71855973142449     -0.18699539435762
  H   -0.67791859694288      2.22100528576525     -0.23118225415686
  H   0.88039752076689      2.05503337373607     -0.84463706340180
  C   1.01636937429755     -1.89070918291752     -0.27669804005757
  N   0.97458491904098     -3.05466999466434     -0.10575463207865
