12
Coordinates from ORCA-job run
  C   0.10575617237411      0.34925939907028     -0.00557142180901
  C   1.16619397330102     -0.47858550569023     -0.19285256445604
  H   2.17384248386010     -0.08035868054685     -0.27178500895589
  C   -1.30864595759638     -0.13430353062153      0.10215099156960
  H   -1.36914262364561     -1.21832549664794      0.02193106200721
  H   -1.73999115263267      0.16536285095966      1.06261883396762
  H   -1.91401788187179      0.31372875957928     -0.69010675831416
  N   0.24541462840607      1.72186721080732      0.00818755471617
  H   1.17948215604230      2.07394968003731      0.14974932931944
  H   -0.45365134638387      2.22677108366080      0.52887782889086
  C   1.01627565059230     -1.88580853248079     -0.31064382847554
  N   0.89948389755442     -3.05355723812730     -0.40355601846028
