17

C	0.0	0.0	0.0
C	-0.389245	-0.005827	-1.527356
Br	1.940031	0.0	0.0
H	0.353391	0.598135	-2.043011
N	-0.271805	1.480643	0.499705
O	-0.514642	1.604363	1.693145
O	-0.173125	2.397647	-0.30928
N	-0.642103	-0.947645	0.771857
H	-0.459846	-0.781925	1.756704
H	-1.669965	-0.825248	0.591198
N	-1.69354	0.366004	-1.912098
H	-2.422447	0.13573	-1.166689
H	-1.705175	1.368029	-2.048308
N	-0.124508	-1.423704	-2.018616
O	0.921781	-1.62133	-2.642289
O	-0.984102	-2.266581	-1.794342
H	-3.23273	0.0	0.0
