15

C	-0.290352	0.043492	-1.472023
C	0.0	0.0	0.0
F	0.034423	-1.121668	-2.089054
H	1.096627	0.0	0.0
H	0.244556	0.87004	-1.939412
N	-1.758298	0.288549	-1.759056
O	-2.11188	1.469461	-1.773019
O	-2.496828	-0.681006	-1.895829
C	-0.576169	-1.165654	0.63316
N	-1.0132	-2.103207	1.192976
C	-0.363492	1.296203	0.721436
H	-1.436251	1.501251	0.764777
H	0.13589	2.127044	0.219149
H	0.035711	1.243478	1.736136
F	2.516749	0.0	0.0
