15

C	-0.262187	0.047225	-1.478495
C	0.0	0.0	0.0
F	-0.014902	-1.150119	-2.073105
H	1.096576	0.0	0.0
H	0.348417	0.821132	-1.944126
N	-1.69881	0.402432	-1.802201
O	-1.946586	1.606857	-1.889522
O	-2.519837	-0.505803	-1.890961
C	-0.588071	-1.16684	0.621561
N	-1.061245	-2.090421	1.17588
C	-0.373226	1.295947	0.716477
H	0.159904	2.122612	0.243328
H	-1.444498	1.515504	0.715687
H	-0.021767	1.229471	1.747439
F	2.521326	0.0	0.0
