17

C	-0.377778	0.064138	-1.4727
C	0.0	0.0	0.0
F	-1.763873	0.25999	-1.603211
H	1.097441	0.0	0.0
N	0.284226	1.165216	-2.098309
H	0.236031	1.082764	-3.106076
H	1.261935	1.165628	-1.814392
C	-0.120882	-1.232946	-2.152553
N	0.13793	-2.190912	-2.780056
N	-0.476151	-1.255377	0.564177
H	-1.404394	-1.132553	0.953868
H	0.150067	-1.540358	1.307284
C	-0.486627	1.244411	0.73583
H	-0.118734	1.211084	1.764222
H	-0.118357	2.156326	0.264595
H	-1.580569	1.279361	0.749833
Br	3.580918	0.0	0.0
