17

C	-0.499625	-0.038021	-1.441232
C	0.0	0.0	0.0
F	-0.090004	-1.188728	-2.070329
H	1.096265	0.0	0.0
N	-1.951723	-0.050223	-1.489669
H	-2.302158	0.857068	-1.205067
H	-2.232363	-0.196795	-2.453736
C	0.04736	1.099372	-2.236956
N	0.358382	2.055495	-2.844921
N	-0.425725	-1.226557	0.657022
H	0.283598	-1.493799	1.325729
H	-1.310249	-1.103044	1.131119
C	-0.451319	1.279902	0.704745
H	0.037706	1.325273	1.680034
H	-0.164581	2.180702	0.154178
H	-1.536012	1.287582	0.869738
Br	3.583551	0.0	0.0
