17

C	-0.304652	0.051139	-1.504152
C	0.0	0.0	0.0
F	-1.655276	0.385441	-1.722766
H	1.095968	0.0	0.0
N	0.511914	1.038959	-2.128006
H	1.466886	0.972943	-1.775149
H	0.517523	0.933319	-3.133154
C	-0.175564	-1.30498	-2.109995
N	-0.074824	-2.373449	-2.590956
N	-0.495946	-1.184114	0.681837
H	-1.437357	-1.400085	0.373921
H	0.098282	-1.975914	0.469205
C	-0.514834	1.259269	0.678318
H	-0.116025	1.284562	1.693501
H	-0.19653	2.153089	0.141119
H	-1.607799	1.249651	0.729858
Br	3.553961	0.0	0.0
