17

C	-0.347415	0.107929	-1.483735
C	0.0	0.0	0.0
F	-1.687559	0.504029	-1.652304
H	1.095744	0.0	0.0
N	0.48864	1.094784	-2.090783
H	1.444724	0.985402	-1.752271
H	0.480763	1.008933	-3.099364
C	-0.280052	-1.21715	-2.1578
N	-0.230907	-2.186518	-2.820712
N	-0.491662	-1.253729	0.555989
H	-1.306382	-1.090722	1.133962
H	0.232401	-1.666216	1.12952
C	-0.478268	1.239158	0.745125
H	-0.056935	1.230909	1.753447
H	-1.571077	1.251072	0.812724
H	-0.154164	2.149143	0.238622
Br	3.543417	0.0	0.0
