15

C	0.0	0.0	0.0
C	-0.401005	0.599627	-1.363596
Br	1.949109	0.0	0.0
H	0.310285	1.404411	-1.572206
H	-0.240152	0.741112	0.770479
N	-0.561339	-1.2945	0.205222
H	-1.527326	-1.295098	-0.116621
H	-0.569565	-1.52867	1.189572
C	-1.806985	1.201971	-1.382644
H	-2.006454	1.611992	-2.375786
H	-1.862923	2.016418	-0.656044
H	-2.607324	0.503866	-1.135168
C	-0.217275	-0.39072	-2.430334
N	-0.092163	-1.140915	-3.324949
Br	-4.785019	0.0	0.0
