15

C	0.0	0.0	0.0
C	-0.516611	0.243392	-1.424766
Br	1.950768	0.0	0.0
H	-1.611306	0.292127	-1.303305
H	-0.256047	0.869305	0.614594
N	-0.510209	-1.252873	0.481008
H	-1.531895	-1.17356	0.412812
H	-0.283296	-1.347414	1.464602
C	-0.169265	-0.874311	-2.40821
H	0.904621	-0.909653	-2.601435
H	-0.485672	-1.827691	-1.987003
H	-0.692922	-0.708897	-3.352132
C	-0.072883	1.541249	-1.929417
N	0.279918	2.572814	-2.367263
Br	-3.729118	0.0	0.0
