15

C	0.0	0.0	0.0
C	-0.22341	-0.241258	-1.524169
Br	2.025684	0.0	0.0
H	0.66556	-0.733364	-1.919387
H	-0.263228	1.019705	0.273318
N	-0.536066	-0.935318	0.884168
H	-0.978289	-1.709711	0.405351
H	-1.242037	-0.511884	1.477285
C	-0.3956	1.091914	-2.26534
H	0.449294	1.744689	-2.02464
H	-1.333218	1.55423	-1.951773
H	-0.415674	0.925647	-3.3458
C	-1.314462	-1.149101	-1.897641
N	-2.142349	-1.851295	-2.358905
Br	-3.642105	0.0	0.0
