15

C	0.0	0.0	0.0
C	-0.348187	0.248985	-1.518044
Br	2.026882	0.0	0.0
H	0.581867	0.328271	-2.08566
H	-0.268377	0.887675	0.571944
N	-0.514319	-1.141758	0.655964
H	-0.421226	-1.962378	0.066963
H	-1.517573	-0.96912	0.786089
C	-1.111223	1.561672	-1.716473
H	-0.482218	2.38477	-1.361408
H	-1.31819	1.719471	-2.778436
H	-2.052888	1.535446	-1.169677
C	-1.01745	-0.916506	-2.094045
N	-1.389386	-1.889622	-2.63863
Br	-3.748157	0.0	0.0
