10
Coordinates from ORCA-job run
  C   1.13432798537482      0.00149646695272      0.07762197874623
  C   -0.25997746618814     -0.42551854100941     -0.32344067120483
  Cl  1.22936715159528      0.29855155076419      1.84246691348466
  H   -0.52773844127234     -1.33406959934693      0.23542012741283
  H   1.86748064984615     -0.77127038543780     -0.15213277441832
  H   1.39438925351596      0.93483501256317     -0.41930974306721
  H   -0.22321999814169     -0.68887062259810     -1.38583214108418
  N   -1.19569659670582      0.68093632080702     -0.16373768358935
  H   -1.31706371255668      0.88164449401188      0.82124444983648
  H   -2.10186882546754      0.42226530329326     -0.53230045611630
