10
Coordinates from ORCA-job run
  C   1.02381845783402     -0.08419840148748      0.28509803154510
  C   -0.29657129184875     -0.51865224589099     -0.33816710323101
  Cl  1.55954380320089      1.49067862143222     -0.37466066937757
  H   -0.16542378452585     -0.60246827610276     -1.41999012231121
  H   0.92538278777777      0.04013091218920      1.36466307280944
  H   1.81520697926485     -0.80518794323310      0.07486123118627
  H   -0.52036147392289     -1.52343786652833      0.03718319063053
  N   -1.44820702145974      0.32942775488034     -0.08677096010425
  H   -1.27901776724673      1.25924358380761     -0.44860310828670
  H   -1.61537068907357      0.41346386093329      0.90838643713938
