15
Coordinates from ORCA-job run
  C   0.62733088347952      0.13625822423287     -0.30996502688979
  C   -0.67877036174597     -0.60316809268309      0.04284022989135
  Br  1.38381668618631     -0.72476487956232     -1.89891042187816
  H   -0.44684846355811     -1.64915867632899      0.25509734576380
  C   0.40041105690890      1.54549969045551     -0.61402431284745
  N   0.30173086601642      2.70275906203904     -0.79801039525404
  C   1.61754602501570      0.00481439208342      0.84734588688151
  H   1.80558695991132     -1.04910751112538      1.06128377220765
  H   2.55932806916636      0.48345181860680      0.57865768744150
  H   1.21524189362717      0.49602056644607      1.73688795193917
  N   -1.64563958312646     -0.62910314641324     -1.12272976483080
  O   -2.05427582484195      0.45693638031043     -1.51249192722687
  O   -1.92266996015969     -1.73687901412054     -1.56592124851855
  C   -1.33534135133457      0.02912172445306      1.18135911340338
  N   -1.82944689554495      0.53731946160636      2.11858110991730
