15
Coordinates from ORCA-job run
  C   0.56170137602273      0.37684736953754     -0.25700551091464
  C   -0.90809475002709      0.03275540783467      0.09510108704842
  Br  0.92184292308996     -0.03834794465806     -2.13376512533786
  H   -1.07691685394927      0.32267797442214      1.13674214215815
  C   0.69600658962255      1.82157319854781     -0.08555538095512
  N   0.80640165332614      2.97710622247614      0.10358797926616
  C   1.56526678555914     -0.35929889512438      0.62769504683621
  H   2.56862572845896      0.00743508556646      0.41094504624811
  H   1.33629980838650     -0.17891070433683      1.68084507164462
  H   1.53406862645855     -1.43100094587644      0.43613139359598
  N   -1.11952789488613     -1.46594485184059      0.06504336471043
  O   -1.51553679127701     -1.96499271739058     -0.97973958429288
  O   -0.83880935708710     -2.04936092467087      1.10808898540011
  C   -1.87115915322908      0.69339531200841     -0.77338122195755
  N   -2.66216869046885      1.25506641350458     -1.43573329345014
