15
Coordinates from ORCA-job run
  C   0.73875443895911     -0.09226638578843     -0.34208279313986
  C   -0.69194663010994     -0.68531141155830     -0.33467082872859
  Br  1.93493550484773     -1.61621332765113     -0.66693092017092
  H   -0.87663872357211     -1.21291829061024     -1.27217055460313
  C   0.87389998096481      0.82138942520029     -1.47241796923312
  N   0.99349294349399      1.59042562733968     -2.35426208610950
  C   1.13354389459557      0.58665835333469      0.96393314843349
  H   2.16384554805937      0.93604180585918      0.89163858769229
  H   1.05380356947600     -0.11899712146583      1.79196520798493
  H   0.47968494249546      1.43919609254672      1.15444045009462
  N   -1.70253376356275      0.44955425576259     -0.30100755566560
  O   -2.18100882298895      0.76212818838938     -1.38528953261383
  O   -1.92243810587991      0.96857948947295      0.78757343639215
  C   -0.91158138179558     -1.55761415074935      0.81046859168392
  N   -1.08681339498281     -2.26865255008221      1.72881281798317
