15
Coordinates from ORCA-job run
  C   0.53017123024202      0.38818863467842     -0.29945641158717
  C   -0.88948416676471      0.02886606288260      0.20898028397400
  Br  0.65393434498967      0.08352952979817     -2.22734668920181
  H   -0.92532237503191      0.25292009504543      1.27949686685491
  C   0.70030197878496      1.81988352055989     -0.06260436382478
  N   0.84753074194744      2.96174169822120      0.17749504148100
  C   1.62673613629666     -0.40219295258581      0.41083766927981
  H   2.59971928474772     -0.02830319563136      0.09161165787232
  H   1.55946900437923     -1.46112395675005      0.16502110569185
  H   1.53190950319250     -0.28033811757130      1.49276391907450
  N   -1.12218232258505     -1.46366188070494      0.11152688923692
  O   -0.72093048606541     -2.11423102085819      1.07233092109109
  O   -1.65515904386953     -1.89281099826040     -0.90311505690996
  C   -1.94166455912661      0.74860981765985     -0.49328058280387
  N   -2.79402927113697      1.35792276351647     -1.02426125022880
