15
Coordinates from ORCA-job run
  C   0.73694407482075     -0.12999073581318     -0.33720953490547
  C   -0.71093866184024     -0.67928970789455     -0.30160946712390
  Br  1.88641364810119     -1.70204699634761     -0.59136494732949
  H   -0.91212979091547     -1.24434679133783     -1.21352449509277
  C   0.89418123712621      0.72537745259316     -1.50943125562685
  N   1.02480941598762      1.44751214628589     -2.42850940422992
  C   1.15409267814565      0.59716314640230      0.93540198253935
  H   1.05357114351014     -0.06592890309484      1.79564300707146
  H   2.19459008941526      0.91055230235877      0.84702905092142
  H   0.52735573570342      1.47761255539757      1.08567537873878
  N   -1.68790472169519      0.48481511724409     -0.32091129289816
  O   -1.88911274412313      1.06175308811892      0.74183416817851
  O   -2.16120509228822      0.75880774303199     -1.41784606153881
  C   -0.95595831573191     -1.49055457971880      0.88260629349148
  N   -1.15570869621609     -2.15243583722588      1.83221657780438
