15
Coordinates from ORCA-job run
  C   0.54385241189401      0.42028196787419     -0.22149457344731
  C   -0.89589546210249      0.00984586259758      0.18038766167394
  Br  0.73350627496548      0.39359890888551     -2.16770123162878
  H   -0.96882231151724      0.07620503133672      1.27028218277295
  C   0.71613470460826      1.80090741279653      0.22483317537793
  N   0.86397940424697      2.89450774597550      0.63158643576502
  C   1.60884569547315     -0.47695384437456      0.40490541402372
  H   1.54217236900813     -1.48939696070065      0.00882113431893
  H   1.47768013937303     -0.50905025185658      1.48940707088356
  H   2.59498657851298     -0.07332717127697      0.17474910727010
  N   -1.13758515913333     -1.44956602700550     -0.14148636854823
  O   -0.77236719883513     -2.23824422935247      0.72572123467129
  O   -1.64213358288052     -1.71947980584508     -1.22323649370502
  C   -1.91688612385852      0.83722523251223     -0.44517356778828
  N   -2.74746773975480      1.52444612843356     -0.91160118163983
