15
Coordinates from ORCA-job run
  C   0.73580394607691     -0.03329766285953     -0.36170522056841
  C   -0.64528753629936     -0.73397990418918     -0.32200986603795
  Br  2.03550273706723     -1.45893114507173     -0.72937571384754
  H   -0.81319744264720     -1.26814446448464     -1.25895553699321
  C   0.76854314257092      0.89420704461184     -1.48832893007098
  N   0.79687488863166      1.67340533065344     -2.36879537260466
  C   1.11162807411625      0.66661463852099      0.93887016267014
  H   0.40204462628338      1.46797939140540      1.15095453392592
  H   1.10429021359679     -0.04682795896770      1.76402024967967
  H   2.11141582937456      1.09096287721652      0.84380476337460
  N   -1.73818026730497      0.31951851704675     -0.25206819230241
  O   -2.26995223622284      0.60059733567347     -1.32007139006823
  O   -1.96727678445324      0.81339295338156      0.84631227945879
  C   -0.76755322327478     -1.62856266776282      0.82054383079786
  N   -0.86565596751533     -2.35693428517437      1.73680440258643
