15
Coordinates from ORCA-job run
  C   0.71493375121327     -0.11728138102971     -0.39207539328005
  C   -0.73939163991235     -0.61259699594812     -0.24973760364118
  Br  1.75330342347273     -1.75028507318028     -0.76819021478123
  H   -1.02726848477754     -1.18087299771197     -1.13839743957679
  C   0.82220610802546      0.73183306461314     -1.57436014952335
  N   0.91785892840310      1.40762116857337     -2.53175404380614
  C   1.29048645412467      0.54609918072453      0.85304196346748
  H   1.23302146100905     -0.14042585551058      1.69915555296283
  H   0.73624525437185      1.45749020085301      1.07500595905706
  H   2.33680171368299      0.79783015281766      0.67797585181767
  N   -1.76191220809911      0.52475644253921     -0.18432795162408
  O   -1.34922488712668      1.67130035778769     -0.06841501225224
  O   -2.92603583031884      0.16035793087725     -0.26259344306169
  C   -0.92850358973863     -1.42920568914256      0.94371266510422
  N   -1.07052045432997     -2.06562050626265      1.92095925913749
