15
Coordinates from ORCA-job run
  C   0.63124960568177      0.15953412581457     -0.29420910670349
  C   -0.65773630829569     -0.62521836557465      0.02189896248861
  Br  1.45448743444901     -0.66511983229481     -1.86915848971799
  H   -0.39629677245578     -1.66477157626226      0.23141148216568
  C   0.36354458978256      1.56214907457924     -0.59552560867353
  N   0.22325451348350      2.71566922889149     -0.77563838327498
  C   1.59651774036775      0.05329872160913      0.88651542604474
  H   1.15821373383963      0.52907032740453      1.76747674726648
  H   1.81055872927209     -0.99543376308158      1.10202446510760
  H   2.52986744467834      0.56062983500020      0.64204736786275
  N   -1.59603285646154     -0.67286778358293     -1.16607328019270
  O   -1.82057586279487     -1.78456193656665     -1.62864462142300
  O   -2.03696036000745      0.40179327450617     -1.55227177860396
  C   -1.36196188384988     -0.02587394366607      1.14976182836344
  N   -1.89912974768945      0.45170261322363      2.07938498929034
