15
Coordinates from ORCA-job run
  C   0.63409543085073      0.14739181567265     -0.29524498417261
  C   -0.66644047288464     -0.61431462026580      0.02957635833211
  Br  1.44849340228772     -0.71162484396866     -1.85603853933352
  H   -0.41954549545057     -1.65359415451108      0.25740966659257
  C   0.38744883726268      1.54961609808146     -0.61586497525282
  N   0.26514628512999      2.70363988005414     -0.80514586803975
  C   1.59532291250550      0.04452491751781      0.88916034163572
  H   1.16193033118698      0.53925767796640      1.76205394488918
  H   2.53632671349371      0.53502651419394      0.63969120659996
  H   1.79416193544391     -1.00386719196182      1.12020526755159
  N   -1.60056812493849     -0.66943365985754     -1.16113669908243
  O   -2.01918825628325      0.40477222568646     -1.57199360608109
  O   -1.84196300566283     -1.78598284545868     -1.60277475270497
  C   -1.36730700600880      0.01139379379465      1.14511209117752
  N   -1.90691348693263      0.50319439305607      2.06599054788853
