15
Coordinates from ORCA-job run
  C   0.75200578623531     -0.03008001689565     -0.32721525644860
  C   -0.61531171783172     -0.75804829142223     -0.32382863412850
  Br  2.09468185536903     -1.44006539961274     -0.58544173219684
  H   -0.73069328728530     -1.32756102265274     -1.24778538207430
  C   0.81755084024871      0.85785244645573     -1.48391335542536
  N   0.87020066711740      1.60602906484177     -2.38980612434293
  C   1.05519055764383      0.72251994102278      0.96283158333221
  H   1.02475453138359      0.03822689260338      1.81173982902075
  H   2.04975748690750      1.16429894710008      0.89702181519479
  H   0.32141395969766      1.51570645917641      1.11451058207402
  N   -1.73098490159356      0.27393117708248     -0.34002986142426
  O   -2.21964187034450      0.50612225332786     -1.43987989126369
  O   -2.01929448545481      0.80052134235287      0.72879782913911
  C   -0.77159136577291     -1.61468533022854      0.84335552865834
  N   -0.89703805632024     -2.31276846315146      1.77964306988526
