15
Coordinates from ORCA-job run
  C   0.53778392967825      0.45697975543322     -0.15362712094373
  C   -0.89577093110990     -0.03066277523069      0.17899553210120
  Br  0.72625125421744      0.73567116006680     -2.07997307443248
  H   -0.96814482777720     -0.13298978027845      1.26611188732117
  C   0.69085027566855      1.75359115423196      0.50231277997909
  N   0.81034381964590      2.77300378179776      1.07648224491057
  C   1.61521121584447     -0.51253890648391      0.32677399797199
  H   2.59566948804877     -0.06503617882137      0.16314473791335
  H   1.56166666957796     -1.45181235375866     -0.22206564463634
  H   1.48574779104626     -0.71468811289915      1.39296900860957
  N   -1.11601211957627     -1.42707752592312     -0.36288308178177
  O   -0.74164936714574     -2.33416640109508      0.37493409339484
  O   -1.61360410139023     -1.53477685993283     -1.47577084924101
  C   -1.92894451446609      0.86821321220282     -0.31357946059718
  N   -2.75939858226217      1.61628983069070     -0.67482505056927
