15
Coordinates from ORCA-job run
  C   0.63047159389014      0.13127411242356     -0.30972070754589
  C   -0.67805825227351     -0.60140633316289      0.04811649364428
  Br  1.39386405324571     -0.75550932036578     -1.88120430808814
  H   -0.44812261844982     -1.64474524324455      0.27517190041800
  C   0.40531767211628      1.53538548483057     -0.63731062177144
  N   0.30093262112819      2.68887707414649     -0.84059782800600
  C   1.61468314703551      0.01710803710885      0.85454869676035
  H   2.55940271164188      0.48759279181850      0.58172134433613
  H   1.20979080340442      0.52548948445077      1.73325583993784
  H   1.79796202132062     -1.03353342327356      1.08820733395625
  N   -1.64106811308590     -0.64178244461706     -1.12015350710314
  O   -2.05270858522746      0.43897786906126     -1.52128647506465
  O   -1.91236536096666     -1.75459860969436     -1.55406597782172
  C   -1.33870978447692      0.04566723027587      1.17606791137403
  N   -1.84039190930247      0.56120329024233      2.10524990497409
