15
Coordinates from ORCA-job run
  C   0.75809763201616     -0.08999240027566     -0.30812653653230
  C   -0.64762432220127     -0.71895576474318     -0.22150829568124
  Br  1.98318790766244     -1.63420244994162     -0.35108373550607
  H   -0.78945063719055     -1.43019926019879     -1.03983944169572
  C   0.90425390614384      0.59848202991519     -1.58664706863665
  N   1.03586961043640      1.14851800109835     -2.61746552172175
  C   1.13665758006228      0.79550709225127      0.87268476149530
  H   1.06205655244878      0.22747988581045      1.80133131600973
  H   0.47590992498367      1.66108553879204      0.91140572803994
  H   2.16533690380202      1.13692930715424      0.75383474096916
  N   -1.77781907188076      0.29718760199691     -0.40932816663200
  O   -1.49184555835921      1.48718333951067     -0.43205310500975
  O   -2.88775975820163     -0.20086611665232     -0.52785290734903
  C   -0.87561782386193     -1.38287620717188      1.05691264900913
  N   -1.05225284586023     -1.89628059754565      2.09873558324124
