15
Coordinates from ORCA-job run
  C   0.63861365928343      0.02905251033200     -0.31859241785292
  C   -0.73365457637226     -0.52219573788683      0.11717217781625
  Br  1.30539175985383     -1.11746234904292     -1.76058155111646
  H   -0.60616492121716     -1.54689613038097      0.47305989745957
  C   0.55061356812749      1.39635865849395     -0.82108282043469
  N   0.56195194938453      2.51970702782995     -1.16858240897786
  C   1.61178917431132     -0.03335439479823      0.85878098798890
  H   1.69225125506013     -1.05897124538495      1.22436815456893
  H   2.59688797008328      0.30436196659259      0.53662907092313
  H   1.26249239480854      0.61873306122300      1.66330108957183
  N   -1.70141987644902     -0.61211801781719     -1.04440596533294
  O   -2.00825936564996      0.44607771159553     -1.57777335672250
  O   -2.08245729546845     -1.73807747790591     -1.33972464837851
  C   -1.32237384564595      0.32069341845371      1.15163234557281
  N   -1.76666185010969      0.99309099869629      2.00679944491442
