15
Coordinates from ORCA-job run
  C   0.74998092496239     -0.08148464087175     -0.32382013085129
  C   -0.64799707358170     -0.74748086939040     -0.28268294847179
  Br  2.02930081679679     -1.56140996084176     -0.49944952911351
  H   -0.78868586411570     -1.36179886382071     -1.17385403274781
  C   0.85428589547670      0.73641400842299     -1.52836324680118
  N   0.93916410875868      1.42966107824973     -2.47461136093465
  C   1.08602261990691      0.72848642907141      0.92259117654783
  H   0.38923519966306      1.56166183672847      1.02619131206553
  H   1.02328878025460      0.09602921535120      1.80904839232079
  H   2.09976884834028      1.11999234015795      0.83553878299656
  N   -1.71748367392235      0.32950081281004     -0.35749988586174
  O   -1.98200592005183      0.92623917649894      0.68028331565717
  O   -2.19711272685141      0.52159695323856     -1.46909027831841
  C   -0.84080859152721     -1.53038972389639      0.93002294723672
  N   -0.99695334410923     -2.16701779170827      1.90469548627578
