15
Coordinates from ORCA-job run
  C   0.62928294064119      0.14989513866485     -0.30332491726204
  C   -0.66163868107326     -0.62028714404527      0.03920191138744
  Br  1.43377346896088     -0.71106779706458     -1.86861580771878
  H   -0.40493853644333     -1.65732400778763      0.26643209512128
  C   0.36771427608657      1.54802170936901     -0.62975749986548
  N   0.23314282245419      2.69914891010726     -0.82855284079436
  C   1.60420245208452      0.06089574624024      0.87087199951137
  H   1.81500594773431     -0.98465808418174      1.10392629602345
  H   2.53778910255131      0.55898463011557      0.60908552244186
  H   1.17602715711782      0.55511063009695      1.74660200030734
  N   -1.61092177078186     -0.68472664545451     -1.13911077658427
  O   -2.04840295607592      0.38515254459939     -1.54208898345644
  O   -1.84658460350145     -1.80364440044005     -1.57811866501506
  C   -1.35157055564753      0.00433748006051      1.16221875974531
  N   -1.87488106410743      0.50016128972000      2.09023090615839
