15
Coordinates from ORCA-job run
  C   0.51759276208292      0.39808019218668     -0.30848554061011
  C   -0.90197577865320     -0.02518987185401      0.14856110891241
  Br  0.80094150967020     -0.10103575526915     -2.17804908153972
  H   -1.03295089667695      0.31110694838391      1.18165227815087
  C   0.55676618793657      1.85635229598053     -0.22550108382764
  N   0.59392247901345      3.02591924573756     -0.10757378415484
  C   1.62032403900280     -0.21315317641133      0.55286931997328
  H   2.58047463875623      0.20721442091402      0.25337521602500
  H   1.65477464031980     -1.29428441190361      0.42528159794197
  H   1.44040467636897      0.01589707680191      1.60620333835800
  N   -1.00725675539328     -1.53408671367626      0.20934976300344
  O   -1.43024216030144     -2.11685128713449     -0.78018299600472
  O   -0.62402788715380     -2.03777891537874      1.26139378971277
  C   -1.95506390817549      0.51882998122393     -0.69599517212558
  N   -2.81468354679679      0.98897997039905     -1.34389875381514
