15
Coordinates from ORCA-job run
  C   0.62399705966671      0.15142506461013     -0.30940493833254
  C   -0.66833059819533     -0.61721898472245      0.03410511472934
  Br  1.39292938702942     -0.66716296225442     -1.91453103407608
  H   -0.41756171487726     -1.66280781465276      0.22600051246635
  C   0.36876183362864      1.56096711579271     -0.58898828496355
  N   0.24506132739385      2.71849854683693     -0.75536883173987
  C   1.61939083966583      0.01911151437709      0.84335716969967
  H   2.55141313510695      0.51935755862597      0.58015345028562
  H   1.82749080142906     -1.03452446995527      1.03967948359573
  H   1.21047823758835      0.48789512695933      1.74195094102649
  N   -1.63794918784495     -0.63681129711999     -1.12872535916924
  O   -2.08216750324548      0.44763612859290     -1.48284804085517
  O   -1.87896330882167     -1.73781165342964     -1.60866968734058
  C   -1.32954478242990     -0.01603262498094      1.18669147424252
  N   -1.82500552609424      0.46847875132040      2.13559803043131
