15
Coordinates from ORCA-job run
  C   0.74384045953903     -0.17727051241577     -0.29756180459555
  C   -0.72566911564446     -0.66735657907340     -0.29367765484200
  Br  1.83798756149421     -1.80418664712559     -0.41286927633214
  H   -0.91253756547426     -1.27526498724003     -1.18076009920069
  C   0.98406533189311      0.60197373309434     -1.50822707556995
  N   1.18234881434468      1.26398981121246     -2.45984234952110
  C   1.13776498696694      0.60577123656668      0.94911995141262
  H   0.97399368296564     -0.00178612911465      1.84016106258630
  H   2.19335846284539      0.87175527805138      0.88906665876728
  H   0.54254587007568      1.51734116470050      1.02206774098445
  N   -1.65229979426213      0.53086882419112     -0.41928814913864
  O   -1.87400338032803      1.17407350098250      0.60044743505475
  O   -2.06909651445567      0.76001325108671     -1.54895829395376
  C   -1.05089292095363     -1.39985875894914      0.92206864300418
  N   -1.31340587900652     -1.99806318596711      1.89825321134423
