15
Coordinates from ORCA-job run
  C   0.48063523230982      0.41464093940313     -0.34455571231482
  C   -0.87280589381076     -0.02438266098393      0.27073393948888
  Br  0.49004893719738      0.06956362983457     -2.26960272978440
  H   -0.84933643771178      0.22387546949273      1.33624977997936
  C   0.56943665961121      1.86003250387555     -0.15032817516535
  N   0.65341401686634      3.01490764217602      0.05560581562042
  C   1.67510248044254     -0.28283467994557      0.30219894277812
  H   1.64877998196660     -0.13893364453243      1.38525011267033
  H   2.59559963750021      0.14589062173004     -0.09428238556125
  H   1.66263068082870     -1.35016297620375      0.08542769256859
  N   -1.00984583047970     -1.53121660948402      0.22081206967207
  O   -1.58287889780764     -2.02032103912438     -0.74358704578170
  O   -0.49784315377273     -2.12913439906568      1.16305758783962
  C   -2.01803665768129      0.60574138602637     -0.36918318257257
  N   -2.94690075545890      1.14233381680134     -0.84779670943729
