15
Coordinates from ORCA-job run
  C   0.70445146861215     -0.18819554242685     -0.37663475540327
  C   -0.78120597555918     -0.61329985179022     -0.27106536939340
  Br  1.70221780609367     -1.84852675835693     -0.70045961005385
  H   -1.07647022725168     -1.14492385685652     -1.17747421187462
  C   0.87552901309878      0.66497967419588     -1.54856435592722
  N   1.02469082672923      1.38886292548002     -2.46334680046930
  C   1.24530380124274      0.48722598978485      0.87796676871570
  H   0.70834276154041      1.41910976265028      1.06245319104644
  H   1.12713826212379     -0.17164294108440      1.73929010847958
  H   2.30419996423865      0.70725131175420      0.74025225190753
  N   -1.65374165136551      0.63025240669438     -0.22530686658729
  O   -2.15359615778894      0.96413344819367     -1.29380930396392
  O   -1.75343509171964      1.20226412292770      0.85450265130247
  C   -1.03355305560912     -1.41963573924740      0.91529061771181
  N   -1.24087174438536     -2.07785495191867      1.86590568450934
