15
Coordinates from ORCA-job run
  C   0.51347394540979      0.39951572156418     -0.31713926207701
  C   -0.89723932978308     -0.02022109218510      0.16858940934451
  Br  0.74825728198373     -0.07481603143252     -2.19958513599987
  H   -1.00000065141745      0.30216232061588      1.20928183311065
  C   0.56614788271665      1.85602423060324     -0.21355313771561
  N   0.61948977530511      3.02268793552560     -0.07499317230041
  C   1.63153014503896     -0.23170175698517      0.50960972851041
  H   1.65438810174626     -1.31129170432609      0.36693677861815
  H   2.58777628404646      0.18536821753314      0.19335940374447
  H   1.47802569199978     -0.01550849615104      1.56984094126093
  N   -1.01218866011422     -1.52935578466537      0.21168833987505
  O   -1.46235583051269     -2.09572416148132     -0.77527573485732
  O   -0.60994336896452     -2.04987296340515      1.24848644785266
  C   -1.96871370623028      0.54129748360499     -0.64056745486219
  N   -2.84764756122450      1.02243608118473     -1.25367898450443
