15
Coordinates from ORCA-job run
  C   0.75429859061990     -0.14207604119329     -0.29037436211080
  C   -0.68632458595374     -0.71173439043737     -0.28429407089133
  Br  1.93609841025612     -1.70890652536121     -0.36806149457897
  H   -0.83421108406701     -1.34613388899843     -1.16009332233611
  C   0.95930261648418      0.62559176380703     -1.51480860502317
  N   1.12700295100927      1.27907949017751     -2.47814676025127
  C   1.09734561743901      0.68543261091892      0.94250856349825
  H   0.45376176308548      1.56509217722990      0.99382564701816
  H   0.96044030943357      0.08795782697980      1.84482370866912
  H   2.13737149683743      1.00697484979618      0.88261827934387
  N   -1.67618146593435      0.43102883563478     -0.43761974215008
  O   -1.93886267043378      1.08041962069821      0.56839947029796
  O   -2.09801736649687      0.61539442689105     -1.57363957637284
  C   -0.97789835677877     -1.43735589103538      0.94412939018011
  N   -1.21312622550045     -2.02976486510770      1.93073287470710
