15
Coordinates from ORCA-job run
  C   0.74374582756761     -0.06684471816323     -0.34008314111591
  C   -0.64155027884909     -0.75633067371716     -0.27326670111584
  Br  2.04374776565319     -1.52366387625981     -0.55418817610852
  H   -0.79099863623523     -1.36913214874743     -1.16398154330228
  C   0.80840426374920      0.76126373145670     -1.54044341084796
  N   0.86196025049812      1.46222214858884     -2.48329487451559
  C   1.09373664499597      0.73979822449655      0.90472010381763
  H   1.06380864556898      0.09912627508866      1.78708624884817
  H   0.38408586681908      1.55895272256322      1.03158756309696
  H   2.09772565499745      1.15104402615820      0.79721847624794
  N   -1.73007820756503      0.30319953763766     -0.32084044583362
  O   -2.23587203492168      0.49167597862152     -1.42131232402494
  O   -1.98224254929457      0.89131033740402      0.72479840378864
  C   -0.79582436923953     -1.54802234131068      0.93910929315739
  N   -0.91964884374447     -2.19459922381707      1.91189052790795
