15
Coordinates from ORCA-job run
  C   0.53190765609047      0.45009426348234     -0.18940913286994
  C   -0.90816821095810     -0.05156624451632      0.08784408682453
  Br  0.92647559574430      0.34321003324801     -2.10198463524802
  H   -1.10014468201406      0.06339997019222      1.15908604918577
  C   0.55576520644412      1.86015088287101      0.19281871549719
  N   0.57844076257354      2.98049861600821      0.54985395603049
  C   1.58786045406439     -0.32939065648404      0.59121617048870
  H   2.56058630065002      0.13857606483047      0.43912062654146
  H   1.34647928622611     -0.31818096455783      1.65707481937565
  H   1.63684919262039     -1.36219583029545      0.24874337441796
  N   -1.00703419663433     -1.53970708749047     -0.17211616521500
  O   -1.37126414037208     -1.90184482256186     -1.28289118045757
  O   -0.67981047669824     -2.25300589561288      0.77207638071334
  C   -1.91566359355138      0.66119629800629     -0.68371740158104
  N   -2.74127915418514      1.25976537288030     -1.26671566370350
