15
Coordinates from ORCA-job run
  C   0.49494600652011      0.45800694649951     -0.26193185994077
  C   -0.88019400275343     -0.05608125620110      0.23595194943779
  Br  0.56319614407303      0.41916751257360     -2.21584805173216
  H   -0.88965391491814      0.02415647811991      1.32723051188998
  C   0.58569115761662      1.85388001765518      0.16035808312987
  N   0.66298468995135      2.96045905087872      0.55048618425675
  C   1.66295535245765     -0.34666569127424      0.30354678419941
  H   1.64961220067052     -1.36654210392686     -0.07897462216635
  H   2.59904963587131      0.12749689081531      0.00790975119595
  H   1.60257147483296     -0.37406968712547      1.39445274602147
  N   -1.02489924727910     -1.53529961925736     -0.05079294003637
  O   -1.56380641817998     -1.86251043798532     -1.09966271636193
  O   -0.55285012496404     -2.27760643830096      0.80580282438666
  C   -2.00034261526845      0.67875506622876     -0.33285237416893
  N   -2.90926033863038      1.29785327130032     -0.74567627011134
