15
Coordinates from ORCA-job run
  C   0.73410914364179     -0.09509685916774     -0.35404842496452
  C   -0.66866469649561     -0.74313866748375     -0.24322236395708
  Br  1.98741699851164     -1.59292102714515     -0.56314269660547
  H   -0.85377650823982     -1.36950760026877     -1.11780402396102
  C   0.79577507234155      0.70411236218228     -1.57388313248455
  N   0.84841832999438      1.38253591862948     -2.53317184450278
  C   1.13340207544790      0.72766788907933      0.86506736323303
  H   1.10559641107764      0.10649574535377      1.76135782568828
  H   2.14553076551145      1.10854570892282      0.72683753474682
  H   0.44892649658078      1.56825915832604      0.98963216264418
  N   -1.72701733513438      0.34594105245405     -0.29004581396578
  O   -2.24984398185217      0.52776069656231     -1.38367550123386
  O   -1.94032970650359      0.96163488699061      0.74836588560924
  C   -0.81854376307207     -1.50555249428460      0.98844044005241
  N   -0.93999930180948     -2.12773677015069      1.97729258970110
