15
Coordinates from ORCA-job run
  C   0.50302991081736      0.43161759622209     -0.28647320775116
  C   -0.88933593454940     -0.03513490526146      0.21007776571550
  Br  0.64141138095145      0.19952211920190     -2.22305311014155
  H   -0.93750171128502      0.14925320059203      1.28766215698250
  C   0.58126386538274      1.86259664029551     -0.00174939393561
  N   0.65351154909606      3.00275865950439      0.27750583803463
  C   1.65056278417001     -0.30863288916624      0.39707157600692
  H   2.59593300434070      0.13761385977077      0.08811446773747
  H   1.55206301972770     -0.22714194850394      1.48239576190376
  H   1.65113470186349     -1.36155444293341      0.11855465838159
  N   -1.02416919699405     -1.53626510686852      0.06208129909916
  O   -1.53143365575861     -1.96480995076383     -0.96585290482171
  O   -0.57722846482553     -2.19112484220747      0.99951242357982
  C   -1.98786520993903      0.63660928609825     -0.46801965062236
  N   -2.88137604299786      1.20369272401995     -0.97782768016896
