15
Coordinates from ORCA-job run
  C   0.63157891683516      0.15837444163767     -0.29432948995746
  C   -0.66146612219263     -0.62123464431870      0.01815113855037
  Br  1.44568192626872     -0.65703386244921     -1.87864262385123
  H   -0.40619111029971     -1.66423779705426      0.21788370935475
  C   0.37144511952592      1.56527691797488     -0.58203720858091
  N   0.23788532685761      2.72120886170074     -0.75135449343418
  C   1.59916890816586      0.03559993692292      0.88288841469615
  H   1.80876139650492     -1.01623223898197      1.08716857075411
  H   2.53432791736657      0.54091861986630      0.64135705878876
  H   1.16536448683014      0.50435566656955      1.76973860002850
  N   -1.60288231198934     -0.65271453714502     -1.16786858968559
  O   -2.03744910337476      0.42798724166278     -1.54425878863872
  O   -1.83613425275682     -1.75907267533581     -1.63898776236639
  C   -1.35922267338508     -0.02784551028950      1.15317495840586
  N   -1.89086842435658      0.44364957923962      2.08911650593598
