15
Coordinates from ORCA-job run
  C   0.62943728688145      0.15593720515653     -0.29940677278024
  C   -0.65775281161011     -0.62502302719046      0.03378369557598
  Br  1.44302788155361     -0.68685177287595     -1.86975040304002
  H   -0.39532426990265     -1.66222804154413      0.25350108591856
  C   0.35962960825035      1.55483067193991     -0.61563275912948
  N   0.21668623551119      2.70580277636247     -0.80955366031270
  C   1.60222048288375      0.06356689996058      0.87624962958843
  H   1.81981966261061     -0.98253965311892      1.10079352931782
  H   1.16863553101010      0.54725538178131      1.75521595994889
  H   2.53300252686641      0.57020014871249      0.62067175303638
  N   -1.60283015746582     -0.68582946455465     -1.14814653321221
  O   -1.82927727270842     -1.80239075717042     -1.59794499457076
  O   -2.04631968700074      0.38452574867377     -1.54343901839528
  C   -1.35480111300252     -0.01228673741454      1.15886919762088
  N   -1.88615390387721      0.47503062128203      2.08678929043372
