13

C	0.0	0.0	0.0
C	-0.48522	0.221258	-1.410379
Cl	1.783493	0.0	0.0
H	-0.158945	-0.634359	-2.003085
H	-1.575669	0.27782	-1.404223
H	-0.062617	1.135717	-1.819707
N	-0.312205	1.272032	0.868908
O	-0.387391	1.086061	2.078278
O	-0.406086	2.352914	0.303555
N	-0.520257	-1.164085	0.57427
H	-1.542114	-1.115136	0.477667
H	-0.281948	-1.205323	1.557885
Br	-3.781073	0.0	0.0
