11

C	0.0	0.0	0.0
C	-0.462535	0.071542	-1.437735
F	1.394933	0.0	0.0
H	-1.553187	0.146767	-1.391213
H	-0.273136	0.933078	0.514184
H	-0.151184	-0.846321	-1.945275
H	-0.011566	0.933952	-1.938761
N	-0.556218	-1.15895	0.623682
H	-0.399844	-1.081312	1.624227
H	-1.581001	-0.957721	0.468573
F	-2.879261	0.0	0.0
