17

C	-0.517185	0.146519	-1.416698
C	0.0	0.0	0.0
Br	0.369529	1.651696	-2.325287
H	1.107647	0.0	0.0
N	-0.052266	-1.076969	-2.275908
O	-0.815583	-1.41114	-3.186598
O	1.022178	-1.595732	-2.025847
N	-1.911456	0.327876	-1.5195
H	-2.389171	-0.307803	-0.893087
H	-2.22327	0.181528	-2.471094
C	-0.384048	-1.335709	0.6515
H	-0.006026	-1.319652	1.675246
H	-1.46193	-1.540715	0.691649
H	0.12943	-2.146412	0.135079
C	-0.495285	1.10455	0.797833
N	-0.895613	1.955514	1.505376
F	2.51519	0.0	0.0
