17

C	-0.092001	-0.080957	-1.52362
C	0.0	0.0	0.0
Br	-1.846191	-0.790833	-2.225994
H	1.10671	0.0	0.0
N	-0.089519	1.35822	-2.167488
O	0.778275	1.569489	-3.010374
O	-0.943253	2.157519	-1.80779
N	0.962316	-0.86228	-1.970463
H	1.114794	-0.768585	-2.964715
H	1.810273	-0.627477	-1.398405
C	-0.419837	-1.306665	0.672958
H	-0.052503	-1.301122	1.701776
H	0.047036	-2.13769	0.144167
H	-1.504548	-1.439193	0.677997
C	-0.589768	1.138005	0.667282
N	-1.044267	1.98866	1.341024
F	2.62062	0.0	0.0
