14

C	0.0	0.0	0.0
C	-0.328653	0.276287	-1.477341
F	1.39972	0.0	0.0
H	0.138966	1.237528	-1.722307
H	-0.316408	0.837098	0.632821
H	0.229992	-0.478681	-2.043154
C	-0.567551	-1.292894	0.513646
H	-0.228372	-1.501373	1.530848
H	-0.275555	-2.122048	-0.13677
H	-1.658357	-1.199714	0.516723
N	-1.698158	0.290037	-1.937731
H	-2.263432	0.940848	-1.404264
H	-2.158366	-0.595173	-1.767574
Cl	-4.330244	0.0	0.0
