14

C	0.0	0.0	0.0
C	-0.483551	0.188072	-1.420124
F	1.40657	0.0	0.0
H	-1.576143	0.150598	-1.381192
H	-0.314864	0.861915	0.597058
H	-0.18743	1.194128	-1.759418
C	-0.48593	-1.280569	0.632144
H	-0.181493	-2.130041	0.019914
H	-1.576262	-1.243585	0.69104
H	-0.068002	-1.385533	1.637157
N	0.028322	-0.881661	-2.281728
H	1.011152	-0.716375	-2.45975
H	-0.45899	-0.856793	-3.168492
Cl	-3.913986	0.0	0.0
