14

C	0.0	0.0	0.0
C	-0.460848	0.467985	-1.40414
Br	1.934873	0.0	0.0
H	0.400896	0.86106	-1.950457
H	-1.18478	1.258216	-1.226243
N	-0.389311	1.003417	1.077479
O	-0.396798	2.181321	0.744957
O	-0.553168	0.576087	2.209416
C	-0.450008	-1.327922	0.397333
N	-0.574726	-2.448927	0.730703
N	-1.029976	-0.673012	-2.111545
H	-1.233395	-0.379046	-3.060676
H	-1.914279	-0.77572	-1.603087
F	-2.411061	0.0	0.0
