14

C	0.0	0.0	0.0
C	-0.382098	-0.180638	-1.553684
Br	1.942152	0.0	0.0
H	-0.742237	-1.213601	-1.60266
H	0.557268	-0.108405	-2.110717
N	-0.380524	1.332985	0.603652
O	-0.657466	1.362144	1.7924
O	-0.274702	2.308583	-0.132553
C	-0.461928	-1.085685	0.848255
N	-0.597351	-2.052096	1.50482
N	-1.357062	0.670494	-2.173207
H	-2.15381	0.591502	-1.525682
H	-1.019353	1.623868	-2.146145
F	-2.3851	0.0	0.0
