14

C	0.0	0.0	0.0
C	-0.465802	0.386651	-1.420002
Br	1.934757	0.0	0.0
H	0.358252	0.874646	-1.947975
H	-1.297202	1.067881	-1.271705
N	-0.386968	1.074303	1.007327
O	-0.406328	2.224594	0.589543
O	-0.538192	0.729231	2.169111
C	-0.459816	-1.294294	0.485713
N	-0.605736	-2.387765	0.894351
N	-0.86365	-0.837457	-2.109488
H	-1.013974	-0.614431	-3.087143
H	-1.770911	-1.024902	-1.679617
F	-2.412931	0.0	0.0
