14

C	0.0	0.0	0.0
C	-0.461365	-0.104023	-1.476755
Br	1.930513	0.0	0.0
H	0.404175	0.036903	-2.128877
H	-1.171933	0.705035	-1.617575
N	-0.391658	1.340602	0.611406
O	-0.555735	1.3785	1.820846
O	-0.397834	2.302074	-0.145343
C	-0.457865	-1.072952	0.873554
N	-0.559516	-1.9833	1.611555
N	-1.040101	-1.422278	-1.695103
H	-1.93237	-1.323964	-1.198231
H	-1.223007	-1.526223	-2.687593
F	-2.41476	0.0	0.0
