15
Coordinates from ORCA-job run
  C   -0.56730990606819      0.00348811484059     -0.14585999187322
  C   0.71716924369323     -0.15072436225851      0.27848073622666
  N   -0.87822024641073      0.86590454820005     -1.18225147613208
  H   -1.83785017729780      1.17201849897032     -1.21235794761424
  H   -0.22354347881456      1.61235424417215     -1.35638093434500
  C   -1.72511227285744     -0.79264973282307      0.37425116551206
  H   -1.40915816866530     -1.52572190150266      1.11488680711416
  H   -2.46537580457131     -0.13191706060343      0.83780682176466
  H   -2.21575809163389     -1.31714936494285     -0.45084830279765
  C   1.01352490672224     -1.09718958563071      1.29890193282118
  N   1.29004789619789     -1.87076686783494      2.14345761851140
  C   1.85233442916168      0.65161311478283     -0.30958982506770
  H   2.80966653808556      0.33053593760550      0.10045885894906
  H   1.89472378285168      0.52817105791894     -1.39683830049736
  H   1.74486134960693      1.72103335910578     -0.09311716257194
