15
Coordinates from ORCA-job run
  C   -0.57995947459239      0.08106876754311      0.00728420782071
  C   0.73578611758277     -0.26501193121867      0.05964198304371
  N   -0.96545350094105      1.40437690256490     -0.11309843371808
  H   -1.89535494941565      1.54969770764196     -0.47351603971137
  H   -0.28709971293810      2.03366661238034     -0.51337265281099
  C   -1.71090910913967     -0.88916388335331      0.16231409399524
  H   -2.37305935632858     -0.56310266701727      0.96966928152851
  H   -2.30202719406274     -0.93501037331718     -0.75833880139597
  H   -1.35261315204409     -1.89209033720547      0.38945374305577
  C   1.09894671721403     -1.62683987381579      0.25398191719217
  N   1.42999949652269     -2.74694432982880      0.40883942690382
  C   1.83445250888110      0.76098650786611     -0.07320736771282
  H   1.81959968272937      1.24364945862632     -1.05784275648578
  H   2.81459553936171      0.30102525266111      0.04931566819376
  H   1.73209638717059      1.54169218647261      0.68787573010131
