15
Coordinates from ORCA-job run
  C   -0.60810577356427      0.19737920554861      0.11282125892506
  C   0.73830536368829      0.10067019118457      0.30920462429655
  N   -1.42356151813049      0.98247146876381      0.90926502829403
  H   -0.95983689003964      1.66882233422596      1.48845612163870
  H   -2.24728794698715      1.33903359635569      0.45190338206437
  C   -1.37216579298697     -0.61964216401454     -0.88597265877171
  H   -0.73252063026220     -1.23255449837299     -1.51606080508191
  H   -1.95312948217650      0.03591904899244     -1.54256597971664
  H   -2.07712949992518     -1.26971458899237     -0.36017268850774
  C   1.32050394049011      0.98285352422544      1.26847249929515
  N   1.77714118891731      1.72894834444003      2.05827548075140
  C   1.69028713037674     -0.80602993751743     -0.43272949429479
  H   1.19055295860212     -1.68260885098480     -0.84284410946186
  H   2.17628188715331     -0.26406746975049     -1.25172123010605
  H   2.47966506484454     -1.16148020410392      0.23366857067545
