15
Coordinates from ORCA-job run
  C   -0.63391183224436     -0.01460756545512     -0.15324460885023
  C   0.70904266827880     -0.14927572833258     -0.35280158982564
  N   -1.56574044163306     -0.32619154463459     -1.12658656380887
  H   -1.20646871534187     -0.44055867546691     -2.06402341989275
  H   -2.42087063870012      0.20569668363275     -1.09166344824831
  C   -1.24094471505138      0.34998678864007      1.16990930647433
  H   -0.52162721125501      0.81169719752260      1.84205339157364
  H   -2.06076208615957      1.05988947112198      1.02429155631047
  H   -1.65940303298072     -0.53730720060178      1.65369828718429
  C   1.13829927093692     -0.45497937192153     -1.67833289711404
  N   1.45761404469458     -0.69915039005845     -2.78646968957444
  C   1.78509323963385      0.02156504201004      0.69050909301672
  H   2.25667337506558      1.00734701852589      0.62784470220092
  H   1.39414229643606     -0.10966613517757      1.69911208713092
  H   2.56886377832031     -0.72544558980479      0.54670379342300
