15
Coordinates from ORCA-job run
  C   -0.58683153826436      0.25936241931820      0.10201613207675
  C   0.75263621327906      0.06906926227357      0.27967777832164
  N   -1.31395492972928      1.16523526282504      0.85352151858941
  H   -2.11190586707224      1.57013352017712      0.38915907390802
  H   -0.77472818781522      1.83808047798302      1.37997232256495
  C   -1.43171793598378     -0.56195982377406     -0.82588192528357
  H   -0.84075976938919     -1.18413261462220     -1.49205153760368
  H   -2.11972256397420     -1.19509622324388     -0.25784648213297
  H   -2.04076869977864      0.10034917942291     -1.45049344913655
  C   1.42287544858033      0.98070670730109      1.14839811888103
  N   1.94935685259843      1.75621540511537      1.86313308503059
  C   1.60100580779654     -0.99178472869946     -0.37506104455457
  H   2.33787729159631     -1.37671138907001      0.33448974684350
  H   1.00545209105182     -1.83745185189357     -0.71660390214930
  H   2.15318578710439     -0.58901560311313     -1.23042943535524
