15
Coordinates from ORCA-job run
  C   -0.56533881877443      0.02241669568210     -0.15290670906288
  C   0.71034765822257     -0.17919555436419      0.27818218513845
  N   -0.84671236338714      0.95376822693843     -1.13655740382071
  H   -1.80206004479027      1.27325629109587     -1.16585665086109
  H   -0.17976540799940      1.70105242363898     -1.25027143813866
  C   -1.74146982935620     -0.78900635223547      0.29728039665137
  H   -1.44943437364928     -1.55716037238847      1.01133263306468
  H   -2.49107792853689     -0.14639084175483      0.77111149556824
  H   -2.21252149625163     -1.27096620703909     -0.56432160686160
  C   0.97657196465044     -1.18942875522322      1.24415795524025
  N   1.22755221717492     -2.01553746901783      2.04597459879528
  C   1.86631533028455      0.63973722388107     -0.24240408784805
  H   1.78067155235241      1.69191949477453      0.05373667130037
  H   1.91330574046243      0.59782079005252     -1.33547471257288
  H   2.81361579959791      0.26771440595960      0.14701667340723
