15
Coordinates from ORCA-job run
  C   -0.56131220795812      0.32194296171067     -0.06840048088463
  C   0.78332070962103      0.15606308579339      0.09521605061849
  N   -1.15836694596803      1.56973744091294     -0.08245784709986
  H   -1.99668545650909      1.64070724809933     -0.63691309115378
  H   -0.53655745895506      2.35771883103342     -0.19855205470554
  C   -1.54242314896176     -0.81243968611837     -0.11295260891796
  H   -1.06349121154701     -1.77262523982552     -0.28714104748495
  H   -2.26351634733677     -0.65153032560517     -0.92055183612476
  H   -2.10681480809819     -0.86085674637843      0.82270224126246
  C   1.58579832342022      1.33582078892074      0.07384630751360
  N   2.21901487206983      2.32943922124033      0.04360101394243
  C   1.51176951928836     -1.15162349327168      0.27700275344691
  H   2.03704524364396     -1.44874542748768     -0.63588468864252
  H   2.25873703236318     -1.05886311660146      1.06880844818337
  H   0.83548188492744     -1.95674554242251      0.56167684004673
