15
Coordinates from ORCA-job run
  C   -0.55200315555569      0.26447812636351     -0.22031380166636
  C   0.77905297795222      0.19540210738700      0.07208382238568
  N   -1.13587655915917      1.39457978465852     -0.76312034372948
  H   -0.50233027945692      2.07874289024845     -1.15212553488673
  H   -1.94429676778283      1.22783115753563     -1.34062296175811
  C   -1.53705728785523     -0.81076910064711      0.13316798889998
  H   -2.15966772959027     -0.49105989978599      0.97373035653268
  H   -1.05471253400498     -1.75122403576630      0.38815540128966
  H   -2.20429446635123     -1.00020971364233     -0.71359855375813
  C   1.59338329678262      1.27869649256346     -0.37412591688383
  N   2.23378382709067      2.18720543380549     -0.76598551875385
  C   1.47771100018147     -0.92885017019358      0.79533209189606
  H   0.78441453442763     -1.51577060025313      1.39704217232752
  H   2.23406756365348     -0.52586119880022      1.47255041640594
  H   1.98682557966824     -1.60219127347342      0.09883038169898
