15
Coordinates from ORCA-job run
  C   -0.57833214655142      0.06692680558386     -0.06662175343581
  C   0.72809413752971     -0.18543590202363      0.22260094799656
  N   -0.93246284118259      1.08261615012390     -0.93611112990431
  H   -0.23269740239009      1.36777666207971     -1.60330825222373
  H   -1.85231403610430      1.00519240960332     -1.33934278704869
  C   -1.73213830765127     -0.62875692372156      0.58872510335329
  H   -2.36408752421763     -1.11287359602008     -0.16331814954288
  H   -2.34911233850877      0.09864356116651      1.12437583096720
  H   -1.39642368631775     -1.38782865927910      1.29336851728111
  C   1.05744899751809     -1.19590184797750      1.16883233518779
  N   1.36041174097316     -2.02886846676588      1.94512414620492
  C   1.85202315080513      0.57978213744750     -0.43251990590652
  H   1.91247165581225      0.37078061915396     -1.50693374577624
  H   2.81236905942830      0.31160316739474      0.00669037274078
  H   1.71474954085720      1.65834388323425     -0.30356152989349
