15
Coordinates from ORCA-job run
  C   -0.57376838754915      0.11426713768970     -0.02435837841370
  C   0.72040011469549     -0.27185747826311      0.14887709887261
  N   -0.88383276325918      1.32053073299052     -0.62637700556515
  H   -0.18296215740790      1.71198727529363     -1.23588256588570
  H   -1.81534484673794      1.38597545799863     -1.00503918965390
  C   -1.75438410948012     -0.64839593318877      0.49460430521837
  H   -2.33639618055444     -0.01713035431171      1.17239335373494
  H   -2.41004424115162     -0.94537571669075     -0.33081649799426
  H   -1.44970218907337     -1.54609200149234      1.03016467505273
  C   1.00743952855101     -1.48890922399226      0.82779047871455
  N   1.27569083853776     -2.49328082690798      1.38239989438812
  C   1.87406110716669      0.55759396721569     -0.36003445603836
  H   1.81907843281824      1.58087473439199      0.02518807324758
  H   1.88266163948347      0.60693063023767     -1.45523070842805
  H   2.82710321396105      0.13288159902910     -0.04567907724977
