15
Coordinates from ORCA-job run
  C   -0.57022638456799      0.05525883730775     -0.11988162837453
  C   0.71923414515179     -0.23575340179393      0.20614720363388
  N   -0.87506610688326      1.13623037058695     -0.92823097388903
  H   -0.19649018177259      1.88122571193883     -0.95503225455949
  H   -1.82253720703158      1.47177117956972     -0.85643981423881
  C   -1.74500669915733     -0.79314827542791      0.26066146166680
  H   -1.43861428957802     -1.68284012658679      0.80793253566513
  H   -2.28582713507960     -1.10352596898111     -0.63792258062582
  H   -2.43920649808685     -0.22503808474666      0.88858509839115
  C   1.00351448402416     -1.38763054001320      0.99180056191791
  N   1.26770915556868     -2.33142911730285      1.64577261195561
  C   1.86946314634362      0.63407920160609     -0.23841442575982
  H   2.82479599008977      0.18250714580432      0.02788135256613
  H   1.83264200484200      1.62395636203373      0.23143505024091
  H   1.85561557613718      0.77333670600507     -1.32429419859002
