15
Coordinates from ORCA-job run
  C   -0.56232422852874     -0.03148741332175     -0.16213875553153
  C   0.71177433917989     -0.09471582331968      0.31398898836565
  N   -0.86971984684833      0.72488297858317     -1.27874134037943
  H   -0.23666015319920      1.47710983916701     -1.50060368478081
  H   -1.83860743352592      0.98646551362178     -1.36888395344785
  C   -1.70420884140690     -0.83222679686535      0.38545344777760
  H   -1.39202730092969     -1.45895199115339      1.21910727909874
  H   -2.11866951698095     -1.47271079521422     -0.39848435487739
  H   -2.50419904161675     -0.16999628714066      0.73301463444400
  C   1.00928833510687     -0.93727087956288      1.42124080924969
  N   1.28548245105022     -1.62275268174504      2.33890194291879
  C   1.83401230801178      0.70247726831823     -0.30480715718159
  H   1.92154017732307      0.48912852854423     -1.37515248652750
  H   2.78774889515472      0.45927526803893      0.16275044241920
  H   1.67556985720993      1.78077327204963     -0.18564581154757
