15
Coordinates from ORCA-job run
  C   -0.57051216542281      0.10841037239949     -0.07338240088007
  C   0.70931443371790     -0.30236995112980      0.14413612846254
  N   -0.83756288180874      1.25719684008424     -0.79690478521773
  H   -1.74722802594317      1.66130884150179     -0.64023905804660
  H   -0.10299458160872      1.94651239627001     -0.83269981882586
  C   -1.78349571166069     -0.66877253025635      0.33780066068796
  H   -2.40638610807641     -0.07517484007983      1.01515441620251
  H   -2.38564997581099     -0.91134795360237     -0.54260312546527
  H   -1.51542354412225     -1.59519597279017      0.84291613262297
  C   0.94950762474255     -1.52106703108407      0.83820224140518
  N   1.17904482478430     -2.52413772401102      1.41206742358728
  C   1.89513615567935      0.50012742046952     -0.33238190748289
  H   1.82148210309459      0.70381579306272     -1.40562611588126
  H   1.96967650349043      1.46052365888981      0.19137370370422
  H   2.82609134894464     -0.03882931972398     -0.15781349487298
