15
Coordinates from ORCA-job run
  C   -0.56992185891151      0.05307056917480     -0.12239150364651
  C   0.71877773425394     -0.23169725157546      0.21190887892764
  N   -0.87335841878842      1.12390137368604     -0.94451121346317
  H   -1.82338956788407      1.45471629678489     -0.88634691294378
  H   -0.19853101218251      1.87209471047062     -0.97334249720584
  C   -1.74450968098201     -0.79242506268173      0.26497668620568
  H   -1.43830707439916     -1.67073782491756      0.83095368613765
  H   -2.44552077192586     -0.21524168583673      0.87709948313346
  H   -2.27756137015825     -1.12242917284900     -0.63147143477587
  C   1.00306160530593     -1.37116426495874      1.01511350768041
  N   1.26903643748761     -2.30523066386504      1.68223867163172
  C   1.86936689653143      0.63309388539702     -0.24153348016474
  H   2.82480550499473      0.17599492591063      0.01536733192341
  H   1.84170607950542      1.62261029758169      0.23010007614327
  H   1.84634549715275      0.77344386767855     -1.32716127958333
