15
Coordinates from ORCA-job run
  C   -0.56798555974472      0.00708300602399     -0.14384449394166
  C   0.71930451412136     -0.16386495698178      0.26543865523693
  N   -0.88292752397069      0.90353579659852     -1.14959932560331
  H   -0.22743500570014      1.65389973291283     -1.30213361315276
  H   -1.84236342967624      1.21089057241199     -1.16664984272320
  C   -1.72403148185987     -0.80290323294100      0.35810009387570
  H   -2.21802207860847     -1.30554656722721     -0.47819730129254
  H   -1.40543654155265     -1.55419469584409      1.07872473183950
  H   -2.46236347154368     -0.15420583229010      0.84101109986340
  C   1.01900239360120     -1.13418277549528      1.26225384085917
  N   1.29606138643568     -1.92479506102270      2.09065262767070
  C   1.85135240554211      0.65649595283872     -0.30278006937724
  H   2.81054974140232      0.31874592230561      0.08876450585255
  H   1.88540668796486      0.57238487753051     -1.39390549099511
  H   1.74788796358891      1.71765726118001     -0.04683541811215
