15
Coordinates from ORCA-job run
  C   -0.57177245280233      0.05842752593035     -0.11192677474171
  C   0.72053994049984     -0.24105782506680      0.19422893003560
  N   -0.88194118277955      1.13933969691714     -0.91844115476331
  H   -0.19860535862971      1.87940040175305     -0.95840658232231
  H   -1.82576787679412      1.48172142209740     -0.83191869212286
  C   -1.74637446581314     -0.77998177700191      0.29055407275393
  H   -1.43749963505115     -1.67305941474973      0.83091998293193
  H   -2.30743364979369     -1.08440294544794     -0.59752191151903
  H   -2.42313223113860     -0.20623051356437      0.93231889580210
  C   1.00996750401106     -1.39110223572499      0.98098571068571
  N   1.28127743561181     -2.33249334799609      1.63549046291403
  C   1.86965031291771      0.61984694040448     -0.27020084497189
  H   1.83749611551453      0.76013521757852     -1.35552561904724
  H   1.84975354195468      1.60946702142332      0.20118407357850
  H   2.82584200229265      0.15998983344755     -0.02174054921346
