15

C	-0.458482	-0.003329	-1.454731
C	0.0	0.0	0.0
Br	-2.368545	-0.088236	-1.883054
H	1.094167	0.0	0.0
C	0.065153	1.200259	-2.085937
N	0.503082	2.186048	-2.555058
N	0.142837	-1.215733	-2.19467
O	0.343052	-1.070643	-3.390384
O	0.255101	-2.240614	-1.536959
N	-0.445747	-1.21325	0.809202
O	-1.647374	-1.474131	0.811643
O	0.443137	-1.842455	1.3634
C	-0.517604	1.175468	0.665199
N	-0.920989	2.133612	1.217905
H	2.492339	0.0	0.0
