15

C	-0.517346	0.011209	-1.415368
C	0.0	0.0	0.0
Br	-2.471053	-0.253299	-1.543873
H	1.095778	0.0	0.0
C	-0.220261	1.294456	-2.039352
N	-0.002622	2.325886	-2.561436
N	0.207082	-1.051019	-2.298671
O	1.386233	-0.770969	-2.470344
O	-0.405109	-2.008269	-2.729048
N	-0.306964	-1.213668	0.711467
O	-0.204532	-2.263358	0.05709
O	-0.467424	-1.147644	1.938731
C	-0.438225	1.169544	0.719301
N	-0.746489	2.172774	1.251903
H	2.277396	0.0	0.0
