15

C	-0.524864	0.014645	-1.413503
C	0.0	0.0	0.0
Br	-2.476111	-0.267552	-1.535552
H	1.095752	0.0	0.0
C	-0.238265	1.302446	-2.032873
N	-0.022971	2.339656	-2.544666
N	0.198567	-1.037917	-2.310895
O	-0.417656	-1.98754	-2.751675
O	1.379253	-0.759467	-2.478857
N	-0.306025	-1.213687	0.71328
O	-0.413432	-1.149921	1.945879
O	-0.25375	-2.261418	0.049597
C	-0.431689	1.170397	0.723463
N	-0.743548	2.168411	1.263886
H	2.285189	0.0	0.0
