16
Coordinates from ORCA-job run
  C   0.70066974768832     -0.29739569876544     -0.14000242178886
  C   -0.71071924430487      0.28027406178872     -0.05669674436594
  Cl  0.74028062209324     -2.01858335498256     -0.28849136530330
  H   -0.58659023648470      1.34768634526092      0.14725811551900
  N   1.42836943249860      0.38464688169719     -1.32244272014288
  O   1.54539611579604      1.59433965133524     -1.16727204892393
  O   1.78340038146440     -0.29288513683206     -2.26756921752163
  N   1.55825798140366      0.13617674093748      1.06136638545571
  O   1.05216837107632      0.91252760976928      1.86062391148295
  O   2.69504525433938     -0.31019520678612      1.07565029896525
  C   -1.58465182096945     -0.36139908507136      1.02483237395377
  H   -1.10141732942999     -0.28880053189363      1.99738552132605
  H   -2.53381098317351      0.17421804098441      1.07031007085651
  H   -1.79019803648442     -1.40557056874392      0.79387474251139
  C   -1.33447956417040      0.13583498630128     -1.37370586429031
  N   -1.86072069134262      0.01012526500055     -2.41612103773379
