16
Coordinates from ORCA-job run
  C   0.78889766887378     -0.24691837380916     -0.42497837222888
  C   -0.73593268087319     -0.11987380268802     -0.50834838310050
  Cl  1.41767526223081     -1.26289194638679     -1.69086425111215
  H   -0.92933568934819      0.30533907930727     -1.49850112552057
  N   1.47823113683321      1.11190239454104     -0.56810099857219
  O   2.63615008818943      1.16170309356893     -0.18503586257794
  O   0.83127556792763      1.99688009810965     -1.11262358834926
  N   1.18712548398371     -0.76911362011077      0.95778094036940
  O   1.48091138509766     -1.94732592956138      1.06614304039199
  O   1.10473002670432      0.07268924769003      1.84430234263693
  C   -1.39855068350171      0.76064135283608      0.55909726184312
  H   -1.33112041993660      0.31114630166249      1.54820491272006
  H   -0.94989407444275      1.75153197484081      0.58216129954043
  H   -2.45367661393072      0.86350426589644      0.29948700458783
  C   -1.31056357605205     -1.46667064095810     -0.46788723112176
  N   -1.81592288175534     -2.52454349493855     -0.40083698950651
