16
Coordinates from ORCA-job run
  C   0.71791923490400     -0.18646849060918      0.27984999383981
  C   -0.70724413287777     -0.22876169679593     -0.26472859714229
  Cl  0.83227539288531     -0.54939680938929      1.96722699265001
  H   -0.62212873181586     -0.15084963652312     -1.35256650009493
  N   1.65564889057714     -1.12258154637721     -0.49740598975921
  O   1.14942918239753     -1.83256262767459     -1.35470897633822
  O   2.83421729228740     -1.04570350489152     -0.18607365759399
  N   1.27707229868111      1.20855160123639     -0.04055470171670
  O   1.51165996408009      1.97716484168681      0.87398949132991
  O   1.37885545488432      1.41399520874526     -1.24462214433257
  C   -1.55231067833669      0.93068705650944      0.27655185281099
  H   -2.57331459261557      0.82816206910744     -0.09243248184411
  H   -1.16135970958899      1.88789731116479     -0.07159727476980
  H   -1.57598829986872      0.92701893593194      1.36656751887454
  C   -1.32041494342861     -1.51698271432493      0.05376379357850
  N   -1.84531662216468     -2.54116999779631      0.28574068050805
