16
Coordinates from ORCA-job run
  C   0.74716069882167      0.41536978882339     -0.13748701644674
  C   -0.74741573769304      0.19701044390127     -0.37780450827406
  Cl  1.11066474323957      2.10145046280259      0.10182980253897
  H   -1.02432157515323      0.90180012701544     -1.16765358798325
  N   1.18720695503192     -0.42660153498011      1.06049310455943
  O   1.13634436628589     -1.63087676199816      0.84391590061856
  O   1.47564621245254      0.13927967961283      2.10107256265626
  N   1.59816877860494     -0.05876449761635     -1.31568050309264
  O   1.04822515642920     -0.04183307404733     -2.40796246003688
  O   2.75941662443366     -0.33677926836732     -1.06027753388396
  C   -1.56198007198014      0.47702808837326      0.89181205800101
  H   -1.35682162201138     -0.27282345039217      1.65743759340151
  H   -1.33876981750172      1.46637459151692      1.29081285403888
  H   -2.62395095733267      0.42959887091564      0.64890688085308
  C   -1.04015350705040     -1.14916134857806     -0.87370333360065
  N   -1.37042024657679     -2.21007211698185     -1.25371181334952
