16
Coordinates from ORCA-job run
  C   0.80069673372244     -0.26082374246667     -0.41480158380261
  C   -0.72562781564836     -0.16799637122716     -0.50694755737377
  Cl  1.46880342488760     -1.10733913810201     -1.78039166491171
  H   -0.90451182082364      0.19147190170676     -1.52731547803022
  N   1.31706865675815      1.18364230485895     -0.37740767398557
  O   1.22749741946491      1.79686234963211     -1.42904327238889
  O   1.66714761509780      1.60991581164597      0.71414321118252
  N   1.31397560191580     -0.91124702120380      0.87057431149580
  O   0.47853029556356     -1.16159001185565      1.73016565322904
  O   2.51921122346714     -1.09227181757431      0.92749120878190
  C   -1.37885794714148      0.81565669180555      0.47097158213868
  H   -1.03071138920754      1.83191808639607      0.27949062439513
  H   -2.45738698954595      0.79760447108683      0.30715232549753
  H   -1.17707653910446      0.54746228692038      1.50487641799478
  C   -1.30405235766967     -1.50805852902097     -0.41228744076081
  N   -1.81370611173631     -2.56420727260207     -0.35667066346180
