16
Coordinates from ORCA-job run
  C   0.78464697776477      0.35604878147728     -0.08499524283909
  C   -0.73872979387481      0.38308990834176     -0.21774741604474
  Cl  1.38621927945541      1.83240641592587      0.61529925956321
  H   -0.97356329734043      1.32430348701706     -0.72392515004374
  N   1.19059426424586     -0.86223999076952      0.74516987226431
  O   1.61626028343106     -0.68663006757672      1.87402457592983
  O   0.97199529230099     -1.92457147764112      0.17650276845385
  N   1.48082020341164      0.19024509092586     -1.43604067433489
  O   0.86029794252778      0.59916811553509     -2.40743220934795
  O   2.61278100138286     -0.26648559050409     -1.40214413806118
  C   -1.41881527181507      0.33733195861576      1.15679252106312
  H   -2.49217060002714      0.47726132096551      1.02498089282592
  H   -1.04080566304753      1.12561364389755      1.80753919434692
  H   -1.26073272280865     -0.62983224092993      1.63649328982237
  C   -1.24217489952357     -0.70272419838316     -1.06133337627723
  N   -1.73662299608317     -1.55198515689719     -1.70418416732071
