16
Coordinates from ORCA-job run
  C   0.74099954199475     -0.18967897079629     -0.12571574100402
  C   -0.74225699206099      0.17187771809013     -0.06676470547672
  Cl  1.03821117513468     -1.88681621234537     -0.26777607836897
  H   -0.78088830810633      1.24555950945822      0.13918452051606
  N   1.37419195629979      0.59055237844491     -1.30131940749914
  O   1.81448226729131     -0.02766481154822     -2.25119415008620
  O   1.32539901074151      1.80409477613041     -1.14010223464263
  N   1.50710193223569      0.36594929179062      1.08509775196924
  O   0.87651952497672      1.04350707060810      1.88590063625400
  O   2.70037730159479      0.10620492995298      1.10767526339394
  C   -1.53149929604044     -0.59269885442308      0.99999312104548
  H   -1.56764562632123     -1.65746044437338      0.77279790895431
  H   -1.08666031552334     -0.44172192275540      1.98206931958603
  H   -2.55304596043416     -0.21005009533209      1.02010603694809
  C   -1.31504580836885     -0.06075708254788     -1.39404318241487
  N   -1.80024040341390     -0.25989728035366     -2.44490905917460
