16
Coordinates from ORCA-job run
  C   0.81421254247267     -0.25660332848382     -0.39123836224169
  C   -0.71009386855930     -0.18267684595289     -0.52412299389756
  Cl  1.52766907872556     -1.11184269010741     -1.72802531876693
  H   -0.86704370582233      0.16113011995714     -1.55343814864097
  N   1.31334841840248      1.19416233836197     -0.35903058410696
  O   1.24321393321613      1.79319126876589     -1.42035418315286
  O   1.63147245562497      1.63827344759949      0.73527778621267
  N   1.30096495511255     -0.88488059588163      0.91553701762707
  O   0.44620733078199     -1.13462108665248      1.75609068492404
  O   2.50614200863027     -1.05269944667190      1.00556718047765
  C   -1.39991928202675      0.80513540794385      0.42414733728950
  H   -1.05409375914426      1.82245609772477      0.23447855448790
  H   -2.47279358551746      0.77719514864233      0.22782736226793
  H   -1.22751120175858      0.54746509400777      1.46598048878052
  C   -1.27680582882968     -1.52752552558924     -0.42460252692054
  N   -1.77596949130825     -2.58815940366383     -0.36209429433979
