16
Coordinates from ORCA-job run
  C   0.74071627520479     -0.19672906452493     -0.20356130859575
  C   -0.74329561661175      0.15977783459207     -0.21007117751908
  Cl  1.05775878946353     -1.87385769516087     -0.48473907433602
  H   -0.79624799514753      1.25230154577843     -0.19176853404928
  N   1.53461248278900      0.63911700773291     -1.21868505504521
  O   0.89573485638821      1.38370952672812     -1.94861988661188
  O   2.74555328648327      0.48524759737805     -1.17806555566363
  N   1.30579695595294      0.26951215392377      1.14731182417327
  O   1.68039765694066     -0.56404315365063      1.95170272415799
  O   1.26264702582575      1.48654325731554      1.28564662283218
  C   -1.46805207152958     -0.41806600248934      1.01146357125322
  H   -1.35448041583229     -1.50121447751107      1.06222770598846
  H   -2.53049181153655     -0.18404815366902      0.93653124252890
  H   -1.08813881238411      0.02685009589557      1.93233062324134
  C   -1.35814428301169     -0.30606446968776     -1.45184475200141
  N   -1.88236632299466     -0.66003600265083     -2.44085897035310
