16
Coordinates from ORCA-job run
  C   0.72937431106673     -0.22244657521664     -0.13698652285788
  C   -0.73259605293284      0.21416237933889     -0.05785904356971
  Cl  0.93573704037299     -1.92382323483387     -0.36165168963771
  H   -0.71463002338861      1.27771611775738      0.19727712962625
  N   1.40511620283640      0.57938860597346     -1.27330984234503
  O   1.82719004499902     -0.01533411352354     -2.24634223046203
  O   1.41054177676915      1.78564838124525     -1.05817748118342
  N   1.52231515500010      0.23275407901403      1.09874985900240
  O   2.69915914020431     -0.09420350252667      1.10921481837912
  O   0.92884148231805      0.90789293821946      1.92925372116090
  C   -1.56120059427545     -0.55718098743641      0.97342331848314
  H   -2.56011014297426     -0.12035864048332      1.01575820193758
  H   -1.10884492978407     -0.47893890597561      1.96046429978327
  H   -1.65649559770902     -1.60560240881938      0.69426598853254
  C   -1.31603463542160      0.07366567261307     -1.39364130604989
  N   -1.80836317708089     -0.05233980534611     -2.45243922079952
