16
Coordinates from ORCA-job run
  C   0.78299023409615      0.33689559576664     -0.15431834867922
  C   -0.72823127551941      0.25691201665990     -0.37875063945084
  Cl  1.31551656328598      1.98444295401374      0.01636748157285
  H   -0.94118684901886      0.96153232643334     -1.18859214386526
  N   1.14713912780929     -0.50129514060947      1.07175894370403
  O   1.51334256204312      0.06878271178380      2.08525435473057
  O   0.95978735069029     -1.69983155908791      0.90493425395987
  N   1.56649925568025     -0.26382189015164     -1.32325144657058
  O   2.67521244146393     -0.70468650707249     -1.06288274127699
  O   1.02972235930903     -0.17242113390416     -2.41838763485312
  C   -1.49818609140362      0.65615849464890      0.88650257823312
  H   -1.16842915747757      1.62743008439889      1.25599960001124
  H   -1.36598277966549     -0.09028984119521      1.67187155791463
  H   -2.56170344971392      0.71468946739064      0.65217438540512
  C   -1.15562433746867     -1.06752569191832     -0.83293246146468
  N   -1.57086595411048     -2.10797188715664     -1.18574773937078
