16
Coordinates from ORCA-job run
  C   0.76577330751027     -0.35131689034499     -0.41352011016143
  C   -0.75073475701514     -0.14377630761763     -0.47702252825911
  Cl  1.32647386023323     -1.34080278601889     -1.73046854412611
  H   -0.93015651672395      0.15822815438283     -1.51574376512457
  N   1.39423171471914      1.04641483759747     -0.49090884854027
  O   1.32261155460863      1.59036644802809     -1.58130907249469
  O   1.80916781363300      1.51754797053163      0.55865137223143
  N   1.26311129179440     -0.95034216258992      0.90267236551392
  O   2.45138300574258     -1.22401440647374      0.94403618654731
  O   0.43571866879649     -1.07302511067982      1.79704140641500
  C   -1.29794506138150      0.95273886955899      0.44434407490487
  H   -2.37781170164741      1.01418213814770      0.30101076807797
  H   -0.87248603909468      1.92209567225880      0.17986252883686
  H   -1.09479356671526      0.73609363537329      1.48999862297301
  C   -1.42864819770924     -1.42397440008808     -0.27493848713438
  N   -2.01489537675059     -2.43141566206572     -0.13470596965981
