16
Coordinates from ORCA-job run
  C   0.71682451277597      0.46081502685301     -0.14979485005505
  C   -0.76468125526997      0.14737669448955     -0.36383629637970
  Cl  0.97663168126210      2.16700724091596      0.08202804998053
  H   -1.09930640830434      0.82939980496775     -1.15133592529712
  N   1.22982008935073     -0.34952487763878      1.04108257255352
  O   1.25285742417243     -1.55497472054219      0.82649814985482
  O   1.49887849968686      0.23567033274430      2.07622180210049
  N   1.57590557435768      0.03991264386119     -1.34249592288878
  O   1.00737182520659      0.01992631896977     -2.42510823278755
  O   2.75651431730903     -0.16400759010697     -1.10661659219013
  C   -1.57408256882422      0.38038443549781      0.91850390291725
  H   -2.63452324675689      0.26133830961026      0.69409217700102
  H   -1.41012718126087      1.38471444240979      1.30864771781308
  H   -1.30690652235921     -0.34957023057165      1.68422440096116
  C   -0.97910546632292     -1.21651195370957     -0.85166237010820
  N   -1.24607127502297     -2.29195587775022     -1.24044858347535
