16
Coordinates from ORCA-job run
  C   0.71120045654187     -0.27555461760080     -0.13392064871306
  C   -0.71675240261906      0.26228605852424     -0.06085498516144
  Cl  0.79993757829282     -1.99173542088857     -0.31750654457890
  H   -0.62456816395697      1.32815493393890      0.16733975518445
  N   1.43566009001099      0.45054769440653     -1.29183614176870
  O   1.52731778658283      1.65802015271848     -1.10531110572284
  O   1.80899887330455     -0.19521446740751     -2.25212497201526
  N   1.53958949424871      0.15475093632796      1.08802254663842
  O   0.99846862858402      0.89094107237287      1.90208356204207
  O   2.69079696767255     -0.25306854442161      1.10365805237830
  C   -1.59081134824647     -0.42452385641508      0.99258384487128
  H   -1.75838352668329     -1.47086488188425      0.74058390795160
  H   -1.12901389452987     -0.35233946978387      1.97580842000742
  H   -2.55740288349302      0.08041161485837      1.02681240226618
  C   -1.31508268815677      0.12861275506502     -1.39082347688831
  N   -1.81995496755289      0.00957604018933     -2.44451461649121
