16
Coordinates from ORCA-job run
  C   0.71264539335270     -0.18910924886829      0.29445635135233
  C   -0.70528375262359     -0.22451628781692     -0.26915590131846
  Cl  0.79651595787486     -0.48745857551399      1.99629221115876
  H   -0.60074813084801     -0.18196657093752     -1.35726308084949
  N   1.64071017233696     -1.17443599476758     -0.43192685923294
  O   1.12895049626694     -1.91255940539088     -1.26187051799227
  O   2.81754999352195     -1.10555290535663     -0.11241138304983
  N   1.30478612229470      1.18065562408937     -0.07235619399092
  O   1.54484360268574      1.97891851173944      0.81492156938630
  O   1.42600981279328      1.33710810540952     -1.28194034689633
  C   -1.53837059298907      0.96570888229307      0.22092396975237
  H   -1.12018620529733      1.90528976398803     -0.14251078765329
  H   -1.58774871524993      0.99119481843023      1.30944511660390
  H   -2.55193037809244      0.87351747525901     -0.16977710928743
  C   -1.34776421351929     -1.48910047538684      0.08278205771526
  N   -1.92197956250749     -2.46869371717001      0.38139090430204
