16
Coordinates from ORCA-job run
  C   0.73827241422493     -0.24091252214612     -0.14870692127371
  C   -0.72682771820793      0.17285132173287     -0.26069961834395
  Cl  0.99440737110024     -1.94833491991609     -0.25072463159473
  H   -0.72996578320232      1.26355819278558     -0.34495243036014
  N   1.61171566220085      0.45969249317085     -1.19972247078050
  O   2.81197720163247      0.26442217443757     -1.08506038873437
  O   1.03895731922101      1.15212087373386     -2.02913254799452
  N   1.26250804476121      0.33338603334709      1.17725575726971
  O   1.26845695233504      1.55885666506060      1.19496435700987
  O   1.56186276826588     -0.43126604528198      2.07605713138386
  C   -1.53129492266560     -0.25670266494814      0.97207860925241
  H   -1.17326600624797      0.25696611312788      1.86552497361143
  H   -2.57759167894041      0.01248782532871      0.82394485144811
  H   -1.46942582250626     -1.33402351164639      1.12771555807358
  C   -1.30412792399669     -0.38733174740145     -1.48113249933391
  N   -1.77365787797444     -0.87677028138485     -2.43940972963314
