16
Coordinates from ORCA-job run
  C   0.80422694984494     -0.26531180255678     -0.40404494535197
  C   -0.72197956753238     -0.18127176226636     -0.50800650294257
  Cl  1.48542489149043     -1.13574704497159     -1.74774076677760
  H   -0.89630520523368      0.15651917802649     -1.53648999965501
  N   1.31438185605972      1.18200864339949     -0.39248611993023
  O   1.22676882120209      1.77371342734588     -1.45663197161647
  O   1.66115608213065      1.63097331916987      0.69103140658138
  N   1.31125565455756     -0.88731139277391      0.89777371650321
  O   2.51639303156429     -1.06518728235437      0.96539675324696
  O   0.47117170002008     -1.12122761968796      1.75746741326612
  C   -1.38599996551973      0.81849760024489      0.44583485178285
  H   -1.03744595330029      1.83192482110197      0.24055915100774
  H   -2.46281929991076      0.79683153655227      0.27136652715440
  H   -1.19445630669037      0.56892110073222      1.48631449392403
  C   -1.29456422497181     -1.52206366814235     -0.39003371597021
  N   -1.79620846371074     -2.58126905381978     -0.32131029122263
