16
Coordinates from ORCA-job run
  C   0.76012262224101     -0.35563238595538     -0.41991611155708
  C   -0.75657316320446     -0.14392621988874     -0.46642908443757
  Cl  1.30332601978486     -1.34905555029818     -1.74097372594652
  H   -0.94738713765546      0.15319387522933     -1.50443875880750
  N   1.39180464359019      1.04012666151967     -0.50798946434351
  O   1.30043477314238      1.58457352576871     -1.59685807548276
  O   1.82685819014363      1.51094186488251      0.53351461189191
  N   1.27030349459770     -0.95216827646140      0.89249413238507
  O   0.45607096956698     -1.05455448427429      1.80152774064377
  O   2.45578519514743     -1.23962414214788      0.91856905986793
  C   -1.29088593777763      0.95904911587135      0.45447298051173
  H   -1.07920015006406      0.74718413700031      1.49935110346402
  H   -0.86400046749308      1.92525884906058      0.18089949674325
  H   -2.37174231470170      1.02424923350739      0.32018802547309
  C   -1.43429036908272     -1.42217111581254     -0.25231273435252
  N   -2.02062636823507     -2.42944508800143     -0.11209919605331
