16
Coordinates from ORCA-job run
  C   0.75917755322657     -0.34699377056575     -0.42895336801515
  C   -0.75743095004229     -0.13649430918953     -0.46718713366237
  Cl  1.29940823389456     -1.32655766018179     -1.76150808789135
  H   -0.95056612817290      0.18528335389347     -1.49765676886387
  N   1.38629087792572      1.05191409184676     -0.50269424516542
  O   1.78943475489727      1.52374353779165      0.55101075553473
  O   1.32097856615342      1.59713259571983     -1.59293240236510
  N   1.27723112726034     -0.95855556514778      0.87302248784827
  O   0.45696983701311     -1.12987356756129      1.76583126416705
  O   2.47366995331298     -1.19692463680778      0.90335530887103
  C   -1.28705287914366      0.94403897653874      0.48303972230764
  H   -1.05455454397478      0.71469869963065      1.52005419600378
  H   -2.37082436046216      1.00031660317451      0.37052016885253
  H   -0.87400014577016      1.91933712037010      0.22086055354020
  C   -1.43819384834745     -1.41751837221937     -0.28094507792508
  N   -2.03053804777056     -2.42354709729239     -0.15681737323688
