16
Coordinates from ORCA-job run
  C   0.72351484821733     -0.25277132113324     -0.52661194642742
  C   -0.79429822959743     -0.06731143110235     -0.42234122444883
  Cl  1.15706055246761     -1.22464695825058     -1.90427871484327
  H   -1.08495406956148      0.41247446619626     -1.36250797790980
  N   1.44722776431509      1.08573035610787     -0.68722670650610
  O   2.64282682902111      1.07457460152548     -0.44119780064322
  O   0.77877181614132      2.01927494299002     -1.11134561822963
  N   1.25688627893532     -0.85977702593084      0.77309473294716
  O   1.50845924027080     -2.05254675515195      0.79081494961675
  O   1.31449128265429     -0.06242971225292      1.70161693499565
  C   -1.29049449605100      0.78259318082819      0.75459150280379
  H   -1.12005850155085      0.28590269672858      1.70819604620734
  H   -2.36491973394145      0.92929686629807      0.63052809270307
  H   -0.80702878603217      1.75729426560821      0.76430793377082
  C   -1.41481475524563     -1.39339990785081     -0.37353669499313
  N   -1.95067004004285     -2.43525826460999     -0.29410350904318
