16
Coordinates from ORCA-job run
  C   0.73221196762204      0.44601728060396     -0.12285125833492
  C   -0.74980305042589      0.17265181334436     -0.38449608003520
  Cl  1.02575221461786      2.14153325229648      0.14545673874187
  H   -1.04507696802183      0.87632504709345     -1.16866558460599
  N   1.19059733804554     -0.39539322515461      1.06826247453068
  O   1.43560589044516      0.16594594048719      2.12238923173677
  O   1.19587189327227     -1.59715355205953      0.83271187433044
  N   1.61520378758618      0.02388883137676     -1.29694576515035
  O   1.07684273950898      0.02849795466130     -2.39517859898206
  O   2.78487696134800     -0.20575581250514     -1.03168021473576
  C   -1.59035209359247      0.40370788096752      0.87798734525160
  H   -1.41489824344840      1.39774548495669      1.28891104382169
  H   -1.36197528240369     -0.34399705835786      1.63905102348048
  H   -2.64623212124628      0.31259785058526      0.62153793668708
  C   -0.98241843077601     -1.17785447316016     -0.90049689923386
  N   -1.26520660253145     -2.24675721513565     -1.29599326750247
