16
Coordinates from ORCA-job run
  C   0.78973538051584     -0.28376819450410     -0.40004062119705
  C   -0.73043396055293     -0.12709774323853     -0.51419053668779
  Cl  1.41407297420476     -1.37146644175164     -1.60745203413433
  H   -0.89917459337057      0.25351724836496     -1.52669948729526
  N   1.51217073226103      1.05083529843891     -0.59451160251984
  O   0.89530331961385      1.92231745013566     -1.19303438878702
  O   2.66416923422417      1.09332653726520     -0.19304773364193
  N   1.15359982209210     -0.75045615239288      1.01152639875983
  O   1.41791224546327     -1.92878082170284      1.17855018687623
  O   1.07545902744389      0.13286147079280      1.85703314600709
  C   -1.38875323511383      0.81848443592076      0.49879161540235
  H   -2.43744473157493      0.93113067825190      0.21820762019706
  H   -1.34607678025627      0.41632154670669      1.50941044688188
  H   -0.91885261826909      1.79949860393193      0.48068121586528
  C   -1.33621885472321     -1.45736275212919     -0.41796602047111
  N   -1.86646796195810     -2.49936116408962     -0.30825820525539
