13

C	-0.603434	-0.01202	-1.382723
C	0.0	0.0	0.0
Br	0.253388	1.250937	-2.565456
H	1.085735	0.0	0.0
H	-1.658862	0.247704	-1.380075
H	-0.34729	-0.863107	0.572182
N	-0.535357	-1.38934	-1.998276
O	-1.146938	-1.533422	-3.051444
O	0.079473	-2.264332	-1.399684
N	-0.491717	1.198169	0.750185
O	-1.540841	1.735894	0.385215
O	0.159591	1.535081	1.728779
Cl	3.322378	0.0	0.0
