13

C	-0.629437	0.010393	-1.366694
C	0.0	0.0	0.0
Br	-0.109736	1.625992	-2.295389
H	1.087218	0.0	0.0
H	-1.71599	-0.014728	-1.349977
H	-0.317079	0.890273	0.547675
N	-0.232912	-1.171415	-2.218746
O	0.746564	-1.81857	-1.882348
O	-0.952741	-1.377955	-3.193055
N	-0.509688	-1.15407	0.792368
O	-0.151668	-1.221052	1.961055
O	-1.274774	-1.947739	0.236814
Cl	3.306647	0.0	0.0
