13

C	-0.483303	-0.035644	-1.421098
C	0.0	0.0	0.0
Br	-0.064498	-1.748088	-2.209027
H	1.090878	0.0	0.0
H	-0.039634	0.736394	-2.041591
H	-0.390965	-0.816754	0.600231
N	-1.976262	0.14971	-1.522777
O	-2.661726	-0.265758	-0.593497
O	-2.39415	0.686739	-2.543243
N	-0.442811	1.262985	0.645184
O	-0.497459	1.276702	1.869253
O	-0.693204	2.220927	-0.089878
Cl	3.256556	0.0	0.0
