13

C	-0.484139	0.036188	-1.425464
C	0.0	0.0	0.0
Br	-0.003459	-1.522876	-2.431693
H	1.087951	0.0	0.0
H	0.003891	0.883284	-1.909885
H	-0.345658	0.897317	0.51721
N	-1.972925	0.346473	-1.524307
O	-2.700021	-0.309551	-2.25171
O	-2.312556	1.324881	-0.862229
N	-0.563291	-1.143465	0.764265
O	0.032183	-1.490956	1.776357
O	-1.630668	-1.616419	0.363684
Cl	3.292023	0.0	0.0
