13

C	-0.610275	-0.028736	-1.381058
C	0.0	0.0	0.0
Br	0.236903	1.227506	-2.5778
H	1.085762	0.0	0.0
H	-1.667013	0.213194	-1.375804
H	-0.372324	-0.850422	0.578301
N	-0.515799	-1.402501	-1.982768
O	-1.408963	-1.697307	-2.774985
O	0.417893	-2.118145	-1.647399
N	-0.507398	1.215096	0.717754
O	0.27286	1.814888	1.443896
O	-1.698677	1.503865	0.569978
Cl	3.354441	0.0	0.0
