13

C	-0.486046	-0.035503	-1.41972
C	0.0	0.0	0.0
Br	-0.058132	-1.741598	-2.213067
H	1.090871	0.0	0.0
H	-0.048726	0.739885	-2.038982
H	-0.38952	-0.818161	0.59926
N	-1.979591	0.141937	-1.518518
O	-2.658566	-0.278007	-0.587067
O	-2.404181	0.675526	-2.538025
N	-0.444634	1.261149	0.646862
O	-0.501804	1.272665	1.870751
O	-0.695488	2.220466	-0.086161
Cl	3.257248	0.0	0.0
