13

C	-0.585121	-0.100585	-1.385668
C	0.0	0.0	0.0
Br	-2.494398	-0.441715	-1.342885
H	1.09104	0.0	0.0
H	-0.122204	-0.948586	-1.889323
H	-0.31851	-0.867854	0.57644
N	-0.266115	1.090539	-2.280456
O	0.930531	1.202687	-2.505778
O	-1.166713	1.790796	-2.715271
N	-0.488158	1.183463	0.744612
O	-0.726868	1.034948	1.941012
O	-0.585788	2.241379	0.125365
Cl	3.263777	0.0	0.0
