16

C	-0.522557	0.031966	-1.440649
C	0.0	0.0	0.0
F	-0.291888	-1.233789	-1.979482
H	1.088088	0.0	0.0
H	-0.376531	0.878781	0.527589
N	-1.943273	0.268724	-1.596921
H	-2.126219	1.247936	-1.411157
H	-2.440948	-0.264616	-0.89019
C	0.29039	1.034705	-2.228853
H	0.108716	2.051028	-1.867241
H	0.00332	0.970347	-3.279922
H	1.351714	0.811018	-2.093632
N	-0.567864	-1.167748	0.697232
O	-1.700731	-1.031484	1.193927
O	0.073192	-2.214404	0.725198
H	2.885888	0.0	0.0
