16

C	-0.340325	-0.00377	-1.481334
C	0.0	0.0	0.0
F	-1.717932	0.223278	-1.649401
H	1.090427	0.0	0.0
H	-0.387934	-0.870349	0.525969
N	0.353978	0.994917	-2.256785
H	0.152059	1.889372	-1.820545
H	1.3482	0.831344	-2.083128
C	-0.0159	-1.377455	-2.027848
H	-0.640864	-2.134628	-1.548345
H	-0.202296	-1.37417	-3.103111
H	1.036798	-1.600898	-1.83192
N	-0.473339	1.166265	0.740928
O	-0.401127	2.283371	0.215433
O	-0.864579	0.98739	1.899178
H	2.721851	0.0	0.0
