16

C	-0.502246	0.051733	-1.438628
C	0.0	0.0	0.0
F	-0.333043	-1.258946	-1.966273
H	1.087306	0.0	0.0
H	-0.388804	0.863615	0.542271
N	-1.8758	0.43037	-1.524397
H	-2.194768	0.298342	-2.477498
H	-2.42109	-0.160923	-0.907648
C	0.387619	0.961325	-2.252073
H	1.430354	0.677647	-2.097292
H	0.119376	0.881492	-3.309225
H	0.252835	1.994082	-1.927008
N	-0.556359	-1.196807	0.6766
O	-1.774792	-1.185002	0.923036
O	0.189773	-2.13174	0.947845
H	2.944126	0.0	0.0
