16

C	-0.527568	0.031805	-1.438204
C	0.0	0.0	0.0
F	-0.296274	-1.23274	-1.979743
H	1.088108	0.0	0.0
H	-0.374562	0.880296	0.526288
N	-1.949394	0.266263	-1.586512
H	-2.443171	-0.260153	-0.871839
H	-2.132839	1.246755	-1.410535
C	0.279972	1.038049	-2.227806
H	-0.017094	0.98211	-3.276517
H	0.105146	2.051852	-1.856299
H	1.341785	0.810036	-2.103838
N	-0.566623	-1.164507	0.702774
O	-1.692005	-1.021585	1.214941
O	0.069348	-2.213221	0.723252
H	2.886254	0.0	0.0
