16

C	-0.489458	-0.057334	-1.434921
C	0.0	0.0	0.0
F	-1.855135	-0.506093	-1.430968
H	1.088469	0.0	0.0
H	-0.372618	0.887318	0.511354
N	-0.433525	1.26763	-1.95555
H	-1.042401	1.875515	-1.421607
H	-0.732542	1.26882	-2.923149
C	0.2961	-1.000315	-2.314524
H	1.358032	-0.769803	-2.196651
H	0.118896	-2.025079	-1.998569
H	-0.013779	-0.881165	-3.358595
N	-0.439691	-1.139016	0.809469
O	-0.863511	-0.904015	1.947871
O	-0.29129	-2.27634	0.354977
H	2.752573	0.0	0.0
