16

C	-0.584379	-0.005363	-1.402128
C	0.0	0.0	0.0
F	0.163796	0.774476	-2.270483
H	1.087959	0.0	0.0
H	-0.318304	-0.889912	0.544589
N	-0.451788	-1.365638	-1.899301
H	-1.055316	-1.980719	-1.365994
H	-0.760137	-1.378136	-2.866996
C	-2.00994	0.532749	-1.491938
H	-2.361543	0.429817	-2.523135
H	-2.671851	-0.037344	-0.834486
H	-2.04199	1.583868	-1.211108
N	-0.40288	1.136291	0.809364
O	-0.63568	0.940663	2.011769
O	-0.363667	2.263155	0.292176
H	2.648248	0.0	0.0
