18

C	-0.340006	0.029438	-1.497027
C	0.0	0.0	0.0
Br	-0.176691	-1.897236	-2.301791
H	1.099528	0.0	0.0
N	-1.710349	0.363139	-1.730098
H	-1.876818	1.173171	-1.134624
H	-1.852671	0.604316	-2.705105
N	0.628835	0.859526	-2.10238
H	1.56505	0.629695	-1.747664
H	0.608067	0.810293	-3.11402
C	-0.614478	-1.116068	0.807695
H	-0.231138	-2.08365	0.489076
H	-1.703532	-1.111262	0.706256
H	-0.351735	-0.984353	1.863293
N	-0.471683	1.312889	0.518262
H	0.252113	1.983124	0.280202
H	-0.470108	1.248716	1.530107
H	2.967112	0.0	0.0
