18

C	-0.218867	-0.024434	-1.494288
C	0.0	0.0	0.0
Br	-2.263447	-0.065003	-1.872683
H	1.101767	0.0	0.0
N	0.255172	1.160228	-2.155341
H	-0.062487	1.943609	-1.587637
H	1.270054	1.117123	-2.02548
N	0.352362	-1.210944	-2.039106
H	1.294175	-1.28289	-1.637652
H	0.438087	-1.084717	-3.043246
C	-0.503793	-1.217239	0.753132
H	-0.087923	-1.202088	1.765841
H	-0.190075	-2.140548	0.264623
H	-1.59745	-1.215661	0.816706
N	-0.435065	1.277298	0.557993
H	-1.384282	1.190011	0.908369
H	0.176774	1.500094	1.337233
H	2.873136	0.0	0.0
