18

C	-0.420697	0.064727	-1.474747
C	0.0	0.0	0.0
Br	-0.165069	-1.707918	-2.343866
H	1.098365	0.0	0.0
N	-1.817296	0.395559	-1.600564
H	-1.980965	0.646111	-2.570754
H	-1.93296	1.232164	-1.033837
N	0.428835	0.977233	-2.223955
H	0.31643	1.867293	-1.741391
H	1.397854	0.699342	-2.040379
C	-0.571243	-1.136406	0.821388
H	-0.216464	-1.03848	1.852181
H	-1.666946	-1.119123	0.811728
H	-0.238175	-2.103248	0.446124
N	-0.361962	1.327146	0.560708
H	-1.044807	1.21145	1.302981
H	0.483038	1.702696	0.982117
H	2.937914	0.0	0.0
