16

C	-0.299126	-0.078251	-1.505112
C	0.0	0.0	0.0
F	-0.101768	1.206122	-2.051018
H	1.095291	0.0	0.0
N	0.550661	-1.048462	-2.073625
H	1.512877	-0.883129	-1.772817
H	0.487394	-1.045535	-3.083222
C	-1.718044	-0.400958	-1.790958
N	-2.849993	-0.657772	-1.973213
C	-0.477146	-1.237714	0.759284
H	-0.115579	-1.187738	1.787765
H	-0.057699	-2.126883	0.288874
H	-1.567712	-1.310353	0.769024
C	-0.539469	1.221008	0.581102
N	-1.024827	2.161625	1.089687
Br	3.459606	0.0	0.0
