16

C	-0.323352	0.174337	-1.487457
C	0.0	0.0	0.0
F	-1.66812	0.51678	-1.662241
H	1.107473	0.0	0.0
N	0.488802	1.216239	-2.011258
H	1.441785	1.133176	-1.656043
H	0.499461	1.210145	-3.023057
C	-0.184781	-1.120421	-2.210672
N	-0.075626	-2.114616	-2.82716
C	-0.547651	-1.279539	0.622684
H	-1.63103	-1.34941	0.493896
H	-0.318337	-1.289936	1.689321
H	-0.070818	-2.148897	0.167775
C	-0.476459	1.178883	0.717354
N	-0.892447	2.07693	1.349726
Br	3.434616	0.0	0.0
