16

C	-0.48226	-0.310335	-1.421055
C	0.0	0.0	0.0
F	-0.068898	-1.583549	-1.759881
H	1.103088	0.0	0.0
N	-1.919525	-0.302817	-1.499129
H	-2.283412	0.553092	-1.097013
H	-2.213903	-0.354174	-2.467497
C	0.133811	0.609602	-2.413554
N	0.493699	1.362517	-3.240226
C	-0.46758	-1.059123	1.001227
H	-0.088302	-2.030031	0.683786
H	-1.555055	-1.101786	1.077608
H	-0.037134	-0.829284	1.977076
C	-0.477411	1.328754	0.368913
N	-0.922724	2.379243	0.653877
Br	3.437882	0.0	0.0
