16

C	-0.484181	-0.085977	-1.450734
C	0.0	0.0	0.0
F	-0.05979	-1.285219	-1.989285
H	1.098078	0.0	0.0
N	-1.922631	-0.086257	-1.522607
H	-2.217043	-0.022875	-2.490462
H	-2.292314	0.712948	-1.021148
C	0.114461	0.987848	-2.287609
N	0.466461	1.87932	-2.967995
C	-0.461157	-1.2084	0.819499
H	-1.548357	-1.27584	0.876856
H	-0.041473	-1.129176	1.823816
H	-0.064823	-2.111976	0.35724
C	-0.490935	1.247705	0.576137
N	-0.960758	2.225749	1.028435
Br	3.449178	0.0	0.0
