14

C	-0.469777	0.026676	-1.466369
C	0.0	0.0	0.0
F	-0.141191	-1.203529	-2.000186
H	1.094666	0.0	0.0
C	-1.936178	0.179691	-1.566516
N	-3.106433	0.24802	-1.654111
C	0.19133	1.067321	-2.269901
N	0.686888	1.849663	-2.992293
C	-0.521204	-1.172355	0.67901
N	-0.946719	-2.127545	1.215149
N	-0.430297	1.23661	0.722125
O	-0.751742	2.199922	0.024917
O	-0.381984	1.210702	1.943744
Cl	3.060245	0.0	0.0
