14

C	-0.470053	0.024513	-1.466674
C	0.0	0.0	0.0
F	-0.167354	-1.214448	-1.992344
H	1.094676	0.0	0.0
C	-1.931673	0.208733	-1.56901
N	-3.099487	0.300763	-1.656999
C	0.210363	1.045202	-2.279041
N	0.699785	1.809104	-3.02388
C	-0.529973	-1.163231	0.68615
N	-0.972515	-2.114598	1.215095
N	-0.416239	1.245223	0.713829
O	-0.36551	1.227655	1.935675
O	-0.71988	2.208801	0.011107
Cl	3.059595	0.0	0.0
