14

C	-0.454598	-0.023344	-1.470435
C	0.0	0.0	0.0
F	-0.033314	1.149413	-2.052358
H	1.092345	0.0	0.0
C	0.160991	-1.16856	-2.162769
N	0.590747	-2.091521	-2.748571
C	-1.918658	-0.125631	-1.649673
N	-3.070616	-0.250352	-1.845341
C	-0.551919	-1.126216	0.730255
N	-0.985392	-2.051088	1.311463
N	-0.506633	1.288845	0.609112
O	-1.729302	1.424811	0.64758
O	0.328251	2.091635	0.997613
Cl	3.129624	0.0	0.0
