15
Coordinates from ORCA-job run
  C   0.82016935258101     -0.24555884995873     -0.27212656278092
  C   -0.68596186298840     -0.03449593892825     -0.26663691625844
  F   1.18054955376039     -0.30335793147430     -1.62624751769432
  H   -0.92593902735755      0.96399082467333     -0.65020552200809
  H   1.04361970828318     -1.22199519693171      0.15989503518479
  C   1.60030503598460      0.86203164742233      0.38973005804232
  H   1.34894439015244      1.82674624758747     -0.05616381623487
  H   2.66777995839034      0.68601291491589      0.25034981027967
  H   1.39480240331712      0.89238113192015      1.45999434399510
  N   -1.19099382215154     -0.01234851870079      1.15676052003395
  O   -2.19208497800365      0.67180497910825      1.35875255028947
  O   -0.61631587728358     -0.71153539534164      1.98607007628147
  N   -1.35758238712042     -1.11963232923147     -0.92445523903047
  H   -0.81247354367710     -1.41781089572352     -1.72235260015283
  H   -2.27481890388685     -0.83623268933701     -1.24336421994684
