15
Coordinates from ORCA-job run
  C   0.76602773773699     -0.35671655157966     -0.12240655942564
  C   -0.68889640321153     -0.00242376163856     -0.43355403666240
  F   1.31123747237261     -0.75545060843287     -1.34524642201248
  H   -0.71867026852853      0.84680880305900     -1.11739153182581
  H   0.78323345567916     -1.23075597631854      0.53690110332532
  C   1.58236180145466      0.78121294471634      0.43881039293547
  H   1.50755874915878      1.66143328328493     -0.20271823651967
  H   2.62948257653657      0.48135787183431      0.50081762991749
  H   1.24213090713219      1.04919932356679      1.44051736090617
  N   -1.29529846628793      0.47572859226797      0.85006801355476
  O   -1.48048509350244      1.68119066304852      0.99093900622984
  O   -1.51445667179205     -0.39485155514124      1.69069527708844
  N   -1.50551726180732     -1.06547185082313     -0.94411051752797
  H   -1.38706396105377     -1.90093062441569     -0.38405712000503
  H   -1.23164457388741     -1.26833055342817     -1.89626435997850
