15
Coordinates from ORCA-job run
  C   0.55927324747912      0.55123012320215      0.33752737958117
  C   -0.66271228046931     -0.10328679275354     -0.31524516479499
  F   0.51834605459547      0.29131529937431      1.70537350322097
  H   -0.51955263744766     -0.14342617299641     -1.39541233437164
  H   0.51205751776750      1.63822853016155      0.22067125333460
  C   1.85017571622209     -0.00547659614120     -0.21566292549808
  H   1.85637604546255     -1.09446947850353     -0.13918649265402
  H   1.97702420134242      0.27952596061733     -1.26234570486862
  H   2.69351467652905      0.38405140674839      0.35582531759719
  N   -1.83576935185053      0.83880894821414     -0.13462390893672
  O   -2.24528735829714      1.42237735224157     -1.13727986255284
  O   -2.26427045373945      0.96748063020301      1.00589417684490
  N   -1.01159321100413     -1.37904852143580      0.20894512654007
  H   -0.68769743986605     -1.50643477154938      1.15569853699942
  H   -0.74088472672391     -2.14187591738259     -0.38917890044140
