15
Coordinates from ORCA-job run
  C   0.74032459677181      0.41840003203949     -0.63363458749356
  C   -0.70752222595280     -0.06389129551039     -0.58392732970614
  F   0.72143757686178      1.79892156016238     -0.79809713489783
  H   -1.22407457619919      0.27776292937754     -1.48153992069017
  H   1.17084627993290     -0.01659015503062     -1.54006127065939
  C   1.58422173262670      0.08223133480048      0.57297802656433
  H   2.58632810779857      0.48598577535513      0.42159609627041
  H   1.16610116434899      0.51819418219612      1.48006722222259
  H   1.67193554451923     -0.99815788115138      0.69976640479499
  N   -1.41583496313739      0.67312527781804      0.55142204167889
  O   -2.00089037478058      1.71376137506700      0.27162417001049
  O   -1.32602557296819      0.17188957140887      1.67266646954309
  N   -0.76630664485364     -1.47931602591183     -0.46118369603776
  H   -1.70017104334763     -1.82151778574690     -0.64484360830573
  H   -0.50136960162056     -1.76179889487392      0.47416711670579
