15
Coordinates from ORCA-job run
  C   0.61381132124589      0.54210256279837      0.39038092987415
  C   -0.54932230780581     -0.10706918462087     -0.34939072629668
  F   0.54882029999123      0.17422316328126      1.73210586087791
  H   -0.38379322375504     -0.06629922076157     -1.42725016819554
  H   0.51581197737234      1.63052788493505      0.35756334146497
  C   1.94075279627719      0.08364508479927     -0.16783940531468
  H   1.98786272623320     -1.00541429939637     -0.15641614820408
  H   2.07197707498203      0.43761571157531     -1.19291693490408
  H   2.75147583339525      0.48300367742626      0.44298947758125
  N   -1.81976344439022      0.71919599083529     -0.16026061032820
  O   -2.06007571299058      1.14615319516593      0.96651108006137
  O   -2.54892476999732      0.83307390152607     -1.14598796716538
  N   -0.72115822806042     -1.45502992213809      0.07092252768881
  H   -0.87944118309441     -1.50011795514054      1.06884560565811
  H   -1.46803315940334     -1.91661059028539     -0.43025686279793
