15
Coordinates from ORCA-job run
  C   0.59788328307992      0.36607167906830     -0.69965172689067
  C   -0.85363480557805     -0.04122524489498     -0.42092112668371
  F   0.60308449223816      1.71358110225486     -1.04616436292818
  H   -1.47367350034455      0.35084546760259     -1.22786199011107
  H   0.90228689664135     -0.19556005160780     -1.59083978300095
  C   1.58386929471953      0.15460389610896      0.42509888690886
  H   2.58272636418649      0.41612094103787      0.07280607145578
  H   1.59987395505372     -0.88509562447740      0.75647300588304
  H   1.33875045785456      0.78733148065717      1.27758990445509
  N   -1.31537143541219      0.67472817133899      0.81726574747217
  O   -1.88265965024319      1.75258704818742      0.67190577725830
  O   -1.04258227095681      0.13620884132201      1.88825024834929
  N   -1.10829799005683     -1.44071828896457     -0.24189667568609
  H   -1.04788398017350     -1.93491535697604     -1.12104903321913
  H   -0.48537111100860     -1.85356406065737      0.43799505673726
