15
Coordinates from ORCA-job run
  C   0.58409382780062      0.57933797082309      0.33031884381207
  C   -0.56416497745647     -0.08647214692170     -0.41238123288686
  F   0.38559740775271      0.31052759297547      1.68946406402648
  H   -0.48194551164989      0.11733651422411     -1.48274045283383
  H   0.51126913249139      1.66133665302963      0.20714034829298
  C   1.93513273576171      0.05422227794783     -0.08485069374017
  H   1.97739567623345     -1.02551177150225      0.05082805753568
  H   2.71139570506060      0.52700568359348      0.51875992303371
  H   2.12502861388932      0.28467690308448     -1.13578382499553
  N   -1.84376200356140      0.67901637419063     -0.00576755142985
  O   -2.71531109473106      0.06014421965683      0.59455135604085
  O   -1.88572360303662      1.86279102214914     -0.32621405901317
  N   -0.62204715797955     -1.47297738819925     -0.15067877194946
  H   -1.39142671737337     -1.91481771590487     -0.63402238848708
  H   -0.72553203320144     -1.63561618914663      0.84237638259417
