15
Coordinates from ORCA-job run
  C   0.78735126020551     -0.21307921071089     -0.25225500331441
  C   -0.72895089334717     -0.04368588280879     -0.35919379239092
  F   1.23122407917624     -0.34040228484019     -1.57081131830653
  H   -0.95532400466120      0.88266059996893     -0.88874071789168
  H   1.00218424464969     -1.16121223255767      0.25146568558895
  C   1.50251794921945      0.94225538312291      0.40333765558510
  H   2.58064079761423      0.79786745460937      0.31957361512593
  H   1.23664057618348      1.88325058058305     -0.08228242131532
  H   1.24663749988608      1.01089268992966      1.46201228824443
  N   -1.23800172058411      0.14001787196886      1.03744703094095
  O   -1.56951907577456      1.26792952664611      1.39086953639473
  O   -1.23293965544356     -0.86865881628594      1.74112139976229
  N   -1.44847004749784     -1.13202494666597     -0.95613946761406
  H   -1.25615459018787     -1.15309255778190     -1.94886394829796
  H   -1.15683641943837     -2.01171817517754     -0.54754054251151
