15
Coordinates from ORCA-job run
  C   0.66098692564180      0.35511942795555     -0.64654544713736
  C   -0.80975830304731     -0.05139877383950     -0.49867758885842
  F   0.69791542236905      1.69523312247930     -1.01837616882149
  H   -1.35288864779389      0.32732904079274     -1.36519698916405
  H   1.04962532149963     -0.22358522020526     -1.49289753081905
  C   1.53492882284113      0.16960730306485      0.57158887635998
  H   2.56391952383630      0.42039295953590      0.30989329693138
  H   1.21208985982416      0.82425328395246      1.38058972603243
  H   1.51468845758855     -0.86126483265919      0.92923343990766
  N   -1.38558526281392      0.68190174394858      0.68006978719090
  O   -1.93443323341543      1.75810180527639      0.46650017525449
  O   -1.21568582943137      0.15953076713811      1.77989491241198
  N   -1.07805558870650     -1.44879294955609     -0.32351690712537
  H   -0.94051400433915     -1.95443437672437     -1.18731188956920
  H   -0.51723346405305     -1.85199330115947      0.41375230740612
