15
Coordinates from ORCA-job run
  C   0.74906882412879      0.41712005731471     -0.62425273485523
  C   -0.69363006994643     -0.08182644599471     -0.59831710151180
  F   0.71765633740307      1.79446966265129     -0.81170838103872
  H   -1.19437712048442      0.23882538087271     -1.51248122370024
  H   1.20455849012289     -0.02712751450224     -1.51382608942631
  C   1.57015523315125      0.11057883793724      0.60579924312124
  H   2.57014867882408      0.52487975022976      0.46977693757248
  H   1.12683416819566      0.55511785631246      1.49661512672569
  H   1.66849126771450     -0.96647071437263      0.75154747445316
  N   -1.43581355009949      0.66498281967621      0.50920912922696
  O   -1.36591114291585      0.18229414044269      1.63994296000941
  O   -2.02607999218091      1.69415535613258      0.19965004081555
  N   -0.73835136770525     -1.49568940971994     -0.45312231925922
  H   -1.66390694080906     -1.85206723069938     -0.65128159165352
  H   -0.49084281539881     -1.75924254628076      0.49244852952056
