15
Coordinates from ORCA-job run
  C   0.66959784924449      0.35386678650799     -0.63899513005595
  C   -0.80622063674572     -0.03893084844300     -0.50591714044167
  F   0.72260150615193      1.69715922910632     -0.99756560498987
  H   -1.33856253322429      0.35083450082907     -1.37424417775103
  H   1.05870267122190     -0.22010755196983     -1.48836940921063
  C   1.53232473069515      0.14794935342967      0.58379702862205
  H   1.49715941031224     -0.88537597637259      0.93301309800983
  H   1.21074316028592      0.79994200278632      1.39546456933239
  H   2.56624533528188      0.38874573701037      0.33238072952474
  N   -1.38449709431960      0.69155604176293      0.67375313318311
  O   -1.92242531741806      1.77380917339088      0.46336578591734
  O   -1.22825569128962      0.15928233625303      1.77091369968740
  N   -1.09043052808792     -1.43478366937591     -0.34264370691294
  H   -0.94252018510581     -1.93723976591525     -1.20665820950035
  H   -0.54546267700248     -1.84670734900000      0.40170533458558
