17

C	0.0	0.0	0.0
C	-0.454672	-0.053756	-1.475234
Br	1.955746	0.0	0.0
H	0.417118	0.098038	-2.117806
H	-0.264792	0.978751	0.392824
C	-0.535492	-1.084142	0.909832
H	-0.179474	-0.915294	1.928412
H	-0.217761	-2.079405	0.593806
H	-1.628126	-1.014164	0.897544
N	-1.276058	1.180067	-1.83989
O	-1.929677	1.106099	-2.873083
O	-1.119241	2.200855	-1.179267
C	-1.167829	-1.319903	-1.906409
H	-0.520151	-2.178411	-1.709043
H	-2.111425	-1.414736	-1.368596
H	-1.372422	-1.279591	-2.975264
Cl	-3.795065	0.0	0.0
