17

C	0.0	0.0	0.0
C	-0.579403	-0.174152	-1.402832
Br	1.955643	0.0	0.0
H	-1.652148	-0.350325	-1.232661
H	-0.286104	1.004715	0.315828
C	-0.487142	-1.011045	1.022591
H	-0.123599	-0.736352	2.0152
H	-0.139957	-2.014872	0.780915
H	-1.580004	-0.988098	1.012215
N	-0.044102	-1.420603	-2.039141
O	-0.439323	-2.496087	-1.588722
O	0.763975	-1.30836	-2.962748
C	-0.370072	1.020882	-2.304968
H	0.687193	1.264719	-2.414412
H	-0.787412	0.830075	-3.294654
H	-0.905897	1.866797	-1.868827
Cl	-3.727769	0.0	0.0
