14
Coordinates from ORCA-job run
  C   0.62596798842184      0.51804944014367     -0.13475424240933
  C   -0.54468738209143      0.11565759626644      0.76370510262729
  F   0.08153116602186      0.85763047666519     -1.37589336854541
  H   -0.13286604509024     -0.19507960657358      1.73003455942819
  H   1.09330708130876      1.42479137007611      0.26141024478076
  C   1.63644840252661     -0.58632014796259     -0.32613816923143
  H   2.40257872637372     -0.26096948341331     -1.03158827793263
  H   1.14610758512505     -1.48001829464262     -0.70835645200295
  H   2.12022553065146     -0.82689621267662      0.62367852044455
  N   -1.24467366263392     -1.01650816399006      0.17564537907641
  H   -2.00231252790888     -1.31336212642669      0.77789579670573
  H   -1.64388841000788     -0.73004517610230     -0.71046127239658
  C   -1.40899274183469      1.29145319221872      1.00458382947602
  N   -2.12774571086225      2.20161713641764      1.18923834997939
