14
Coordinates from ORCA-job run
  C   0.59013062260733     -0.45297898776629      0.21452157566298
  C   -0.72146682993957      0.27213520590119      0.54410519178790
  F   1.14983120676733     -0.79779832470249      1.44838169037792
  H   -0.45449978087460      1.18544615746155      1.08955918675890
  H   0.36122213727747     -1.39282394921526     -0.30041428641135
  C   1.58447911188197      0.37867089556357     -0.55768449911905
  H   2.51929436164304     -0.17245056358447     -0.66913154606041
  H   1.79389070124981      1.30802494353383     -0.02322637040614
  H   1.20179277973635      0.61980707008295     -1.55084395301555
  N   -1.65171172520317     -0.47930694392782      1.37497704972472
  H   -1.94927831992874     -1.31854254595896      0.89020214454814
  H   -1.16620427505643     -0.76352913417424      2.21751748902110
  C   -1.37974354847844      0.66852886941723     -0.70592753695272
  N   -1.87773644168234      0.94481730736920     -1.73203613591644
