14
Coordinates from ORCA-job run
  C   0.81036072402339      0.01166414161332      0.68277740378738
  C   -0.71442106624506      0.16312013541661      0.71761706847700
  F   1.34777965796108      1.12230910824974      1.32741667856783
  H   -0.98397600799424      0.44125486962761      1.74728297222184
  H   1.06762755747180     -0.86375975041315      1.29106419475708
  C   1.38965841023996     -0.09942093454411     -0.70360375176666
  H   2.46482270955141     -0.27594897339444     -0.64510973281711
  H   1.21987315439211      0.82746250274244     -1.25437057055719
  H   0.91629852539105     -0.92371606698939     -1.23725035635215
  N   -1.32448849601563     -1.08389782111948      0.25464309684628
  H   -1.24722134120224     -1.78182522850775      0.98562279117749
  H   -2.30993863623846     -0.94563633197917      0.06731646192450
  C   -1.14120564299500      1.26708921521737     -0.14904087793463
  N   -1.49616954834018      2.14230513408041     -0.84536537833167
