14
Coordinates from ORCA-job run
  C   0.62434748791315      0.52720822473483      0.08965706087405
  C   -0.72214486292168      0.11076900538155      0.70157637770964
  F   0.34546512813704      1.11083568022873     -1.14675264074399
  H   -0.52043557366387     -0.37990116105405      1.66103543354150
  H   1.08566913751215      1.30217740186141      0.71034877623715
  C   1.57210831635911     -0.62833182508387     -0.12683766468201
  H   1.82468843179151     -1.10678511998775      0.82255705003147
  H   1.12851503300143     -1.36836944028856     -0.79442650435187
  H   2.49286106981049     -0.26854393724760     -0.58774991556044
  N   -1.52781322137033     -0.79041657616441     -0.10744661191923
  H   -1.58937483482829     -0.43106206811353     -1.05253370150371
  H   -1.10971202081015     -1.71075730276608     -0.13631100633438
  C   -1.50451945961360      1.32399663932157      0.99054997647686
  N   -2.09965463131696      2.30918047917776      1.21733337022495
