14
Coordinates from ORCA-job run
  C   0.65591323077229     -0.45782297588699      0.23973900844891
  C   -0.73238448706718      0.14648088171310      0.44450184175819
  F   1.14449376283659     -0.72262486402183      1.52485753287413
  H   -0.59335913156027      1.09034555955218      0.99596237336583
  H   0.54291114610274     -1.42365602624274     -0.26028988943608
  C   1.62866762249824      0.44808072433369     -0.47282065362742
  H   1.30760407047799      0.63226714600318     -1.49959860293671
  H   1.71389100856020      1.40308896965088      0.05044860935964
  H   2.61313613442651     -0.02129141666974     -0.49575858137608
  N   -1.57369577778378     -0.82708966226939      1.13051198363517
  H   -1.12738071226579     -1.06496198371379      2.00810111847216
  H   -2.48063622634240     -0.42584415879681      1.33584692994800
  C   -1.31890563704978      0.47564000270961     -0.85921347052287
  N   -1.78125500360538      0.74738780363865     -1.90328819996288
