14
Coordinates from ORCA-job run
  C   0.81995089124275     -0.00767313606515      0.66827032447341
  C   -0.69986518427257      0.18093573488608      0.73117305343965
  F   1.39537386335756      1.09284756856833      1.29806640249550
  H   -0.94389965645559      0.46454090270440      1.76566000737489
  H   1.06810968379793     -0.88652655560945      1.27541245708419
  C   1.37118509761463     -0.13786220107077     -0.72774716819705
  H   0.87844760277660     -0.96127099602863     -1.24546151208492
  H   2.44498849993394     -0.32719528872094     -0.68576595202079
  H   1.20300423720294      0.78593760160120     -1.28450149229854
  N   -1.34897178000837     -1.05007533394773      0.27864582369567
  H   -1.28461306255943     -1.74768027422372      1.01101716963416
  H   -2.33149162794138     -0.88479417278689      0.09904547338200
  C   -1.11353241558043      1.29638610998389     -0.12684877760376
  N   -1.45868614910858      2.18043004070939     -0.81696580937442
