14
Coordinates from ORCA-job run
  C   0.61238204723845      0.51739999418697     -0.01263502768579
  C   -0.68569587233454      0.17043143938445      0.73246970653006
  F   0.24559494751479      0.95342962470030     -1.28639923129878
  H   -0.41540871041359     -0.20371903554950      1.72689392518522
  H   1.10577331345761      1.36014420465885      0.48245996121389
  C   1.55628478707020     -0.65242717074180     -0.15804626425737
  H   1.07749486071434     -1.46659593956845     -0.70395921777592
  H   2.43984896900674     -0.34524122761036     -0.71895286246883
  H   1.87730578893004     -1.01645850378848      0.82097585364380
  N   -1.53329194114185     -0.82188251519766      0.09024370500609
  H   -1.10607398384901     -1.73732386017824      0.13758892099235
  H   -1.66442902273546     -0.57399217522158     -0.88318543021705
  C   -1.46088829850127      1.40625126769296      0.93033019707165
  N   -2.05089688495645      2.40898389723253      1.08121576406068
