14
Coordinates from ORCA-job run
  C   0.77242204016779      0.00195829898457      0.67570759059853
  C   -0.73960677889855      0.24192063448329      0.81227763718373
  F   1.41636415981156      1.11182632581354      1.21595862916715
  H   -0.92140533248417      0.50843370386069      1.85916641799375
  H   1.02811352668844     -0.85535914986064      1.30995083956303
  C   1.25956607116952     -0.20250185424572     -0.73819915768464
  H   1.03418815924218      0.67499532677664     -1.34685384006436
  H   2.34014960905489     -0.35230829001579     -0.73357560562030
  H   0.79882384823900     -1.08205667288207     -1.19263742449761
  N   -1.59017192700373     -0.89318087799469      0.48394744209920
  H   -1.37043878958469     -1.68148437603028      1.08010132229292
  H   -1.47170878975985     -1.16971742289641     -0.48216071847428
  C   -1.13446523314590      1.39634383764093     -0.00641900143746
  N   -1.42183056349649      2.30013051636595     -0.69726413111965
