14
Coordinates from ORCA-job run
  C   0.81878355969866      0.01412961422393      0.66984774962791
  C   -0.70242730726851      0.19437856879153      0.72362554093400
  F   1.38582369746525      1.13626338778867      1.26792149716295
  H   -0.95003263255805      0.50972322812728      1.74804006688411
  H   1.07080028577562     -0.84481946813928      1.30335747309093
  C   1.37394299116120     -0.15385339313693     -0.72069056329403
  H   0.88439167072327     -0.99223527159753     -1.21629746016917
  H   2.44800243366430     -0.33907852682310     -0.67189500268730
  H   1.20460723439694      0.75350227925390     -1.30305790612345
  N   -1.34186112688115     -1.05544997885039      0.31047947010750
  H   -2.32675570914597     -0.90472311291839      0.13018825335086
  H   -1.26813347767265     -1.73021573163089      1.06327184611158
  C   -1.12296117106853      1.27744361478754     -0.17183175871857
  N   -1.47418044829036      2.13393479012366     -0.89295920627732
