14
Coordinates from ORCA-job run
  C   0.85671619460152      0.04742094471504      0.68257276751643
  C   -0.66093420479557      0.16032969581795      0.83850383590994
  F   1.40659211351564      1.24566843436147      1.12942633734293
  H   -0.85445541834731      0.38245074508755      1.89212517203563
  H   1.18938882165776     -0.74386122024633      1.35971542405975
  C   1.31959300871379     -0.20916738867637     -0.73052013792225
  H   2.41014519521763     -0.22302827034731     -0.75683053404419
  H   0.96124593332188     -1.17762401750501     -1.08492251927030
  H   0.96934507414142      0.57934842287955     -1.39993777785127
  N   -1.27988273735172     -1.12039438707760      0.51808639161212
  H   -1.34427998040950     -1.23518305938346     -0.48627433759579
  H   -2.22305392847129     -1.15139732431723      0.88451834280695
  C   -1.17335123309558      1.29264635481280      0.04079951926426
  N   -1.57706883869865      2.15379106987894     -0.64826248386419
