14
Coordinates from ORCA-job run
  C   0.76983161813952      0.02402793414578      0.68263609203519
  C   -0.74615052811630      0.24831949089612      0.79909796182267
  F   1.39454271158541      1.15508574799351      1.20186979181569
  H   -0.94080284032430      0.53764067407803      1.83762397487682
  H   1.03111344901616     -0.81414671899843      1.33972409984738
  C   1.27226091445132     -0.20737632426092     -0.72175902029824
  H   0.82204578813240     -1.10003470749713     -1.16099493045139
  H   2.35386545717923     -0.34848351419960     -0.70519366759598
  H   1.04515170906824      0.65488520554292     -1.35127517545634
  N   -1.57981599292015     -0.90426622775094      0.49034407420094
  H   -1.35761425518268     -1.67502103590086      1.10813856110074
  H   -1.44929118974369     -1.20307537643651     -0.46748325968452
  C   -1.14838809306234      1.37821135813596     -0.04994351017876
  N   -1.46574874822284      2.25523349425207     -0.76178499203420
