12

C	0.0	0.0	0.0
C	-0.517867	0.010412	-1.418284
Br	1.935044	0.0	0.0
H	-0.120058	-0.850002	-1.954335
H	-1.611647	-0.025603	-1.363935
H	-0.191912	0.933614	-1.901859
C	-0.420508	1.146855	0.796002
N	-0.660179	2.099135	1.44187
N	-0.398724	-1.293528	0.730342
O	-0.550182	-1.219698	1.939326
O	-0.450933	-2.29997	0.040752
Br	-3.671592	0.0	0.0
