12

C	0.0	0.0	0.0
C	-0.45057	0.284731	-1.414711
Br	1.946322	0.0	0.0
H	-1.538784	0.208879	-1.449371
H	-0.127369	1.292821	-1.682242
H	0.018012	-0.43558	-2.084505
C	-0.42858	0.973665	0.9953
N	-0.65158	1.819161	1.78091
N	-0.398497	-1.409379	0.453888
O	-0.482056	-2.251924	-0.426311
O	-0.509001	-1.586227	1.657347
Br	-3.537753	0.0	0.0
