14

C	-0.440284	-0.006672	-1.440765
C	0.0	0.0	0.0
Cl	-0.057109	1.456144	-2.28455
H	1.094844	0.0	0.0
H	-0.338803	-0.924379	0.4705
N	0.186262	-1.235844	-2.129891
O	-0.144095	-2.291322	-1.599893
O	0.899944	-1.080515	-3.101511
N	-1.944485	-0.288665	-1.608601
O	-2.331636	-0.434315	-2.761171
O	-2.621556	-0.360918	-0.591893
C	-0.520888	1.149895	0.721199
N	-0.92711	2.080631	1.309769
Cl	3.218748	0.0	0.0
