14

C	-0.562533	0.041278	-1.400082
C	0.0	0.0	0.0
Cl	-2.300936	0.300954	-1.430084
H	1.092651	0.0	0.0
H	-0.309032	0.914114	0.51162
N	0.047166	1.184833	-2.208082
O	0.039047	1.050473	-3.423925
O	0.404023	2.161952	-1.568695
N	-0.198325	-1.246191	-2.144998
O	0.992918	-1.344034	-2.396591
O	-1.085619	-2.054509	-2.372278
C	-0.526359	-1.156986	0.710792
N	-0.962547	-2.081192	1.289022
Cl	3.233179	0.0	0.0
