16

C	0.0	0.0	0.0
C	-0.49755	-0.077614	-1.425983
F	1.389195	0.0	0.0
H	-1.539004	-0.41656	-1.356148
H	-0.546634	0.964063	-1.758746
N	-0.585844	1.0387	0.703598
H	-1.623275	0.883611	0.540492
H	-0.400404	0.91185	1.69439
N	-0.228402	-1.375206	0.743423
O	-0.106795	-1.338686	1.967536
O	-0.437986	-2.39467	0.096175
C	0.365316	-0.88781	-2.387032
H	-0.084829	-0.865984	-3.384091
H	1.372172	-0.472313	-2.465849
H	0.443111	-1.92754	-2.074557
H	-3.049835	0.0	0.0
