16

C	0.0	0.0	0.0
C	-0.252849	-0.113235	-1.51323
F	1.399123	0.0	0.0
H	0.490701	-0.84257	-1.841816
H	0.091076	0.861376	-1.876632
N	-0.619227	1.043918	0.652377
H	-1.651312	0.865268	0.459339
H	-0.477764	0.945512	1.652933
N	-0.239089	-1.379646	0.709757
O	-0.240147	-2.400968	0.029611
O	-0.313711	-1.349649	1.936615
C	-1.583003	-0.465668	-2.16353
H	-2.359229	0.261751	-1.950772
H	-1.962296	-1.415758	-1.796056
H	-1.398245	-0.54315	-3.244058
H	-3.094473	0.0	0.0
