16

C	0.0	0.0	0.0
C	-0.492115	-0.121378	-1.426313
F	1.357927	0.0	0.0
H	-1.56529	-0.346306	-1.329026
H	0.032922	-0.952592	-1.901932
N	-0.556581	1.020759	0.79544
H	-0.437696	1.89511	0.293899
H	-1.584797	0.8033	0.767267
N	-0.312881	-1.343119	0.717913
O	0.051916	-2.353783	0.115665
O	-0.812964	-1.331426	1.831508
C	-0.301961	1.178463	-2.20252
H	-1.010588	1.938837	-1.861402
H	0.71746	1.570857	-2.109385
H	-0.498478	1.009852	-3.264873
H	-3.082141	0.0	0.0
