16

C	0.0	0.0	0.0
C	-0.517089	0.030783	-1.426215
F	1.358861	0.0	0.0
H	-1.613069	-0.035078	-1.308957
H	-0.298605	1.051915	-1.767236
N	-0.555815	0.980037	0.851311
H	-0.451099	1.872167	0.376287
H	-1.582428	0.764821	0.823378
N	-0.305941	-1.372692	0.654442
O	0.177466	-2.346422	0.073897
O	-0.931346	-1.418963	1.70215
C	0.041505	-0.97239	-2.427733
H	-0.242296	-0.66655	-3.43997
H	1.131473	-1.031501	-2.379877
H	-0.355695	-1.97072	-2.251888
H	-3.124756	0.0	0.0
