16

C	0.0	0.0	0.0
C	-0.51062	-0.058243	-1.423346
F	1.373925	0.0	0.0
H	-1.575222	-0.318619	-1.33718
H	-0.482189	0.984476	-1.755419
N	-0.587711	1.036185	0.708375
H	-0.405924	0.906101	1.698892
H	-1.622953	0.884636	0.544962
N	-0.232024	-1.381153	0.741627
O	-0.32832	-2.414102	0.087007
O	-0.21323	-1.33584	1.97036
C	0.268631	-0.929242	-2.40321
H	0.119615	-1.989386	-2.202016
H	1.34109	-0.717064	-2.36415
H	-0.076693	-0.720802	-3.421467
H	-3.066153	0.0	0.0
