16
Coordinates from ORCA-job run
  C   -0.38504380525286      0.13278694489621     -0.16701559382106
  C   0.85901422399768     -0.74349034891948     -0.16573023580787
  F   -0.48754104082038      0.65097964865184     -1.48078069342137
  H   0.67335403489623     -1.57909740379237     -0.85811891503386
  H   0.98649812855633     -1.16569127890350      0.83610377793863
  C   -1.63874596542855     -0.68161820210660      0.07688546921175
  H   -1.72255879344877     -1.48125939612867     -0.66229541518409
  H   -2.51988788132682     -0.04235117275507     -0.00697825244075
  H   -1.62475448991805     -1.12533294785873      1.07522853530529
  C   -0.26739904056563      1.31812733040076      0.76677944131728
  H   -1.13804388447808      1.96726306199480      0.65106500077301
  H   -0.21815488524133      0.98015183943332      1.80493520960092
  H   0.63823229590040      1.87933728934935      0.54293633537273
  N   2.04005508957153      0.04670557766604     -0.49817726683204
  H   2.86536881474201     -0.53828275760986     -0.46620121522292
  H   1.94060719881629      0.38177181568196     -1.44863618175566
