16
Coordinates from ORCA-job run
  C   -0.38318942247909      0.11154676196161     -0.18555148249697
  C   0.87565858416952     -0.73743199185611     -0.08538503798261
  F   -0.46286600567770      0.52082568150205     -1.53891408206167
  H   0.98694434914178     -1.07434979371852      0.95010981330257
  H   0.72131361532909     -1.62986172163085     -0.71130441814147
  C   -1.62796751142528     -0.70491440940322      0.09432518902483
  H   -1.68048401956554     -1.56169818870618     -0.58094319642814
  H   -1.62941470153823     -1.06839411834972      1.12471737572140
  H   -2.51798253961953     -0.09136426326941     -0.05902622038001
  C   -0.30887461090662      1.37000142391267      0.65201822171878
  H   0.59122405271753      1.92953157761913      0.40305252696460
  H   -1.18841562345141      1.99016000176740      0.46605531439548
  H   -0.27707719750832      1.11717676613669      1.71481264839308
  N   2.05021319222918      0.04639523100984     -0.45464867259770
  H   2.88465226015183     -0.51803397741896     -0.35714217306888
  H   1.96726557843278      0.30141102044358     -1.43117580636328
