15

C	0.0	0.0	0.0
C	-0.498359	0.007006	-1.481179
Br	1.967367	0.0	0.0
H	-1.600564	-0.10028	-1.376752
C	-0.370359	1.29835	0.583384
N	-0.56227	2.356231	1.058278
N	-0.472589	-1.04823	0.839376
H	-0.293408	-1.938129	0.389326
H	-1.491238	-0.91999	0.897495
N	0.022872	-1.181392	-2.235386
O	0.647948	-0.989018	-3.273934
O	-0.229911	-2.283503	-1.753154
C	-0.154046	1.226373	-2.19222
N	0.077227	2.227069	-2.763203
Cl	-3.36694	0.0	0.0
