15

C	0.0	0.0	0.0
C	-0.551299	-0.192474	-1.432196
Br	1.948622	0.0	0.0
H	-1.654426	-0.158894	-1.313199
C	-0.34897	1.372219	0.425259
N	-0.56894	2.472099	0.78002
N	-0.497657	-1.052979	0.823541
H	-0.235363	-0.877308	1.787086
H	-1.525316	-1.011217	0.752855
N	-0.19301	-1.560095	-1.950786
O	0.855977	-1.668387	-2.58333
O	-0.982611	-2.461813	-1.697918
C	-0.078812	0.820405	-2.360753
N	0.258722	1.651371	-3.119454
Cl	-3.43703	0.0	0.0
