15

C	0.0	0.0	0.0
C	-0.307295	0.206083	-1.497723
Br	2.011762	0.0	0.0
H	0.091942	-0.676974	-1.999414
C	-0.401723	1.090953	0.889788
N	-0.627667	1.950328	1.659391
N	-0.514882	-1.226432	0.412185
H	-1.13969	-1.219217	1.226998
H	0.029134	-2.050421	0.225488
N	0.454503	1.36937	-2.090536
O	0.333072	2.452568	-1.528435
O	1.105624	1.145086	-3.106527
C	-1.686429	0.384075	-1.994166
N	-2.342057	0.540913	-2.970612
Cl	-3.338628	0.0	0.0
