15

C	0.0	0.0	0.0
C	-0.555289	0.13223	-1.433654
Br	1.959478	0.0	0.0
H	-1.658768	0.114617	-1.302816
C	-0.346718	1.234386	0.735236
N	-0.545092	2.196183	1.382658
N	-0.481258	-1.215683	0.572563
H	-0.205357	-1.257768	1.547316
H	-1.509463	-1.169084	0.522406
N	-0.174974	-1.066294	-2.259853
O	0.845242	-0.985164	-2.943007
O	-0.919477	-2.03638	-2.184
C	-0.113993	1.346893	-2.098372
N	0.192956	2.348948	-2.629137
Cl	-3.421983	0.0	0.0
