15

C	0.0	0.0	0.0
C	-0.553578	-0.033467	-1.440823
Br	1.954214	0.0	0.0
H	-1.656633	-0.04777	-1.312195
C	-0.348444	1.311039	0.588639
N	-0.566755	2.330117	1.134965
N	-0.482645	-1.141834	0.708482
H	-0.214356	-1.06847	1.683942
H	-1.510445	-1.102239	0.64833
N	-0.157207	-1.312967	-2.129998
O	0.855724	-1.292069	-2.828336
O	-0.883078	-2.28082	-1.934232
C	-0.121198	1.104078	-2.234963
N	0.197141	2.030178	-2.883343
Cl	-3.426513	0.0	0.0
