15

C	0.0	0.0	0.0
C	-0.266988	-0.125524	-1.541224
Br	1.949367	0.0	0.0
H	0.341406	-0.978304	-1.850127
C	-0.416932	1.25967	0.622521
N	-0.60278	2.253241	1.222611
N	-0.496968	-1.099778	0.756913
H	-0.277285	-1.970153	0.284067
H	-1.521734	-0.972754	0.776145
N	0.315591	1.028625	-2.333693
O	0.060721	2.162587	-1.949581
O	0.968962	0.723684	-3.328447
C	-1.592132	-0.366547	-2.123923
N	-2.30666	-0.696438	-3.003239
Cl	-3.302878	0.0	0.0
