15

C	0.0	0.0	0.0
C	-0.282662	-0.13063	-1.524565
Br	1.946117	0.0	0.0
H	0.353937	-0.959104	-1.837949
C	-0.423832	1.234452	0.670113
N	-0.603212	2.177089	1.350822
N	-0.437987	-1.23126	0.601671
H	-1.466816	-1.159976	0.605818
H	-0.11204	-1.261477	1.563496
N	0.244772	1.061055	-2.291149
O	-0.064788	2.176111	-1.886607
O	0.917411	0.811703	-3.288137
C	-1.600507	-0.413203	-2.115403
N	-2.245657	-0.729333	-3.052762
Cl	-3.188305	0.0	0.0
