14

C	-0.606792	0.03267	-1.399093
C	0.0	0.0	0.0
Br	0.120271	1.441691	-2.493326
H	1.093255	0.0	0.0
H	-1.688097	0.155637	-1.370391
N	-0.389952	-1.293317	-2.072625
O	-1.406997	-1.845941	-2.49115
O	0.751972	-1.715744	-2.147408
N	-0.434243	-1.239186	0.644807
H	-1.184646	-1.082597	1.303784
H	0.361564	-1.633298	1.131771
C	-0.452583	1.195855	0.721262
N	-0.866773	2.103559	1.342598
Br	3.425957	0.0	0.0
