14

C	-0.352799	-0.092123	-1.484192
C	0.0	0.0	0.0
Br	-2.256767	-0.341278	-1.797801
H	1.095669	0.0	0.0
H	0.164462	-0.942516	-1.921724
N	0.10532	1.108628	-2.266625
O	-0.439128	2.184374	-2.037146
O	1.011614	0.901054	-3.068689
N	-0.360044	-1.193738	0.747451
H	-1.237513	-1.590431	0.439724
H	0.388903	-1.867394	0.65931
C	-0.558602	1.187587	0.646596
N	-1.024588	2.104083	1.214424
Br	3.370157	0.0	0.0
