14

C	-0.429854	-0.027714	-1.463721
C	0.0	0.0	0.0
Br	0.294421	-1.554038	-2.386794
H	1.10269	0.0	0.0
H	-0.077174	0.864594	-1.976361
N	-1.937106	-0.009802	-1.576851
O	-2.557232	-1.063527	-1.578328
O	-2.424358	1.120757	-1.609301
N	-0.575566	-1.12812	0.741486
H	-0.195642	-1.974768	0.326846
H	-0.185584	-1.083219	1.677574
C	-0.451918	1.253749	0.611839
N	-0.777743	2.252913	1.136308
Br	3.429728	0.0	0.0
