14

C	-0.418471	-0.210458	-1.452783
C	0.0	0.0	0.0
Br	0.266132	-1.866579	-2.156792
H	1.103191	0.0	0.0
H	-0.030862	0.594263	-2.073444
N	-1.921344	-0.162813	-1.592258
O	-2.370748	0.962845	-1.812231
O	-2.576138	-1.183192	-1.435233
N	-0.580444	-1.019774	0.879935
H	-0.21809	-0.837013	1.810725
H	-0.179232	-1.91	0.599944
C	-0.451823	1.323154	0.441965
N	-0.792758	2.375386	0.837013
Br	3.426401	0.0	0.0
