14

C	-0.536683	0.031568	-1.445342
C	0.0	0.0	0.0
Br	0.265785	1.41371	-2.509078
H	1.093607	0.0	0.0
H	-1.616098	0.17583	-1.468727
N	-0.323375	-1.322352	-2.068032
O	0.785696	-1.621798	-2.480709
O	-1.314814	-2.05813	-2.039943
N	-0.406837	-1.175595	0.747945
H	0.290826	-1.898409	0.626037
H	-1.318058	-1.5213	0.476521
C	-0.498105	1.213535	0.660958
N	-0.957259	2.163943	1.17618
Br	3.42219	0.0	0.0
