14

C	-0.438221	-0.095663	-1.450589
C	0.0	0.0	0.0
Br	-2.36063	-0.274994	-1.65366
H	1.094312	0.0	0.0
H	0.020963	-0.974966	-1.894017
N	0.02365	1.082167	-2.261359
O	-0.46543	2.180364	-2.015549
O	0.874927	0.837109	-3.110309
N	-0.368475	-1.249768	0.664699
H	-1.196866	-1.134819	1.233321
H	0.40921	-1.515964	1.256521
C	-0.502808	1.190779	0.687678
N	-0.909484	2.09795	1.31457
Br	3.380117	0.0	0.0
