14

C	-0.346676	-0.217333	-1.483521
C	0.0	0.0	0.0
Br	0.088173	-1.997951	-2.073466
H	1.096086	0.0	0.0
H	0.200197	0.482705	-2.112866
N	-1.804758	0.023707	-1.756819
O	-2.618292	-0.59943	-1.078334
O	-2.078877	0.852475	-2.620486
N	-0.453731	-0.971918	0.965329
H	0.223482	-1.721189	1.011562
H	-1.364809	-1.336177	0.722539
C	-0.479697	1.345128	0.344877
N	-0.894954	2.42115	0.569375
Br	3.394502	0.0	0.0
