15

C	-0.453289	0.063111	-1.452106
C	0.0	0.0	0.0
F	-1.851803	0.240765	-1.481696
H	1.09339	0.0	0.0
H	-0.359349	-0.9359	0.447628
C	0.196747	1.205251	-2.199346
H	-0.044072	2.125186	-1.667276
H	1.279916	1.064272	-2.195328
H	-0.177481	1.252391	-3.224004
C	-0.205897	-1.225592	-2.12752
N	-0.050236	-2.253104	-2.673875
N	-0.451258	1.203676	0.692681
H	-1.344804	1.046713	1.13861
H	0.231051	1.44123	1.400812
Br	3.602909	0.0	0.0
