15

C	-0.456576	0.044222	-1.45147
C	0.0	0.0	0.0
F	-1.855076	0.225738	-1.480507
H	1.093466	0.0	0.0
H	-0.359997	-0.928323	0.462026
C	0.19586	1.173843	-2.215758
H	-0.038976	2.101253	-1.694418
H	-0.181823	1.209931	-3.239766
H	1.278675	1.028081	-2.213986
C	-0.216557	-1.254439	-2.110265
N	-0.070326	-2.289456	-2.644554
N	-0.446731	1.214142	0.678376
H	-1.324386	1.058118	1.153579
H	0.252532	1.474966	1.360663
Br	3.602186	0.0	0.0
