15

C	-0.459184	0.077778	-1.442964
C	0.0	0.0	0.0
F	-1.84244	0.364998	-1.467176
H	1.093522	0.0	0.0
H	-0.318747	0.942853	0.466521
C	0.270884	1.169346	-2.198273
H	-0.090415	1.228868	-3.227427
H	0.090088	2.124922	-1.700339
H	1.344738	0.967165	-2.179301
C	-0.311139	-1.219698	-2.12873
N	-0.217364	-2.211555	-2.749945
N	-0.521646	-1.184279	0.670954
H	0.214188	-1.599068	1.227816
H	-1.291132	-0.947728	1.27819
Br	3.609589	0.0	0.0
