15

C	-0.554265	0.084455	-1.412673
C	0.0	0.0	0.0
F	-0.100086	-1.026179	-2.130643
H	1.099207	0.0	0.0
H	-0.34635	0.881626	0.549337
C	-2.073345	0.057855	-1.46285
H	-2.409267	0.023383	-2.500673
H	-2.413914	-0.823897	-0.922994
H	-2.481737	0.950528	-0.984971
C	-0.065857	1.295634	-2.101019
N	0.23289	2.287584	-2.65264
N	-0.537905	-1.210873	0.644793
H	-0.296482	-1.153078	1.628157
H	0.007581	-1.987685	0.28458
Br	3.654946	0.0	0.0
