15

C	-0.562987	0.004289	-1.415018
C	0.0	0.0	0.0
F	0.016585	-1.042291	-2.12823
H	1.098477	0.0	0.0
H	-0.343049	-0.929994	0.465471
C	-2.068604	-0.190308	-1.443854
H	-2.43625	-0.172574	-2.471618
H	-2.29684	-1.163142	-1.001447
H	-2.546304	0.593779	-0.858695
C	-0.22445	1.267041	-2.103268
N	-0.028877	2.292493	-2.640671
N	-0.560464	1.148586	0.732947
H	0.062284	1.934972	0.573636
H	-0.489965	0.949014	1.723584
Br	3.665734	0.0	0.0
