15

C	-0.430559	-0.024111	-1.454137
C	0.0	0.0	0.0
F	-0.143859	1.230208	-2.011412
H	1.10096	0.0	0.0
H	-0.341392	-0.929016	0.468493
C	0.334135	-1.067351	-2.245756
H	0.089171	-2.069787	-1.887244
H	1.402301	-0.888719	-2.098487
H	0.080011	-0.993769	-3.305052
C	-1.892471	-0.209707	-1.583351
N	-3.040513	-0.417587	-1.714621
N	-0.618107	1.137845	0.682461
H	-0.163332	1.972855	0.330237
H	-0.367751	1.080095	1.663203
Br	3.679368	0.0	0.0
