14
Coordinates from ORCA-job run
  C   -0.49585838768429     -0.15958024212345     -0.25523450421306
  C   0.97755770466739     -0.26491749206852      0.09066785124814
  F   -0.76740786952514     -0.69413599376279     -1.46196128382359
  H   1.09532295235849      0.08619113211814      1.12693656250658
  H   1.24511879176804     -1.32477989146680      0.06013205220045
  N   -1.23995635681823     -1.05377912861863      0.77664738578845
  O   -1.37779019993819     -0.54915005818750      1.89015988509033
  O   -1.58613622345369     -2.17651160594239      0.43768258269251
  N   -0.96426197796338      1.17521046044703     -0.22563564262471
  H   -1.88537761061627      1.23392904018197     -0.64288078275153
  H   -1.00164457806196      1.51100456393200      0.72809439649849
  N   1.74338590074705      0.45144793110850     -0.91127990667591
  H   2.73306282586252      0.32737604094049     -0.74618495902290
  H   1.52498502865766      1.43769524344197     -0.86614363691325
