14
Coordinates from ORCA-job run
  C   -0.58148363634340     -0.23293112667945     -0.15267154015580
  C   0.92041451840278     -0.13961690501969      0.09429225913136
  F   -0.75455980627037     -0.93131900835669     -1.31224740429515
  H   1.33208061456277     -1.15765391820622      0.11456408090064
  H   1.06982643065605      0.31899431001934      1.07383690207341
  N   -1.17668071744220     -1.07538724310330      0.96972040831577
  O   -1.37997816355619     -2.25959132392514      0.74713865642472
  O   -1.34428418968824     -0.49226181273149      2.03900260031100
  N   -1.30120720205759      0.97951023949394     -0.21586984366407
  H   -0.71858574390436      1.65789886535096     -0.69425402392371
  H   -1.51824390968089      1.30433567294453      0.71666034510760
  N   1.47377998843545      0.72587659599948     -0.93821349800198
  H   2.36665845762397      1.09995267283306     -0.64867578274070
  H   1.61326335926222      0.20219298138067     -1.79228315948310
