14
Coordinates from ORCA-job run
  C   -0.55342195454001      0.06488197528657     -0.29416742775688
  C   0.92718075939585      0.36964910416455     -0.30280403116396
  F   -0.85585054294940     -0.79478321022259     -1.30237313100755
  H   1.12633038966837      0.87624466823553     -1.25622606650210
  H   1.13594322641726      1.06649734468082      0.51051900955181
  N   -0.84611881018303     -0.70505663367465      1.01382394099313
  O   -1.23793645957674     -1.85918204917049      0.95793308824548
  O   -0.67073632092658     -0.03420248404096      2.02809053087390
  N   -1.36570738924796      1.21401011889781     -0.41952156184285
  H   -2.34014496454763      0.95231756543181     -0.51175018202528
  H   -1.24925359259849      1.81800948292640      0.38317519176261
  N   1.65849759667614     -0.86372504588720     -0.07263159452057
  H   1.65368862733076     -1.43656840894717     -0.90596274973579
  H   2.61852943508147     -0.66809242768044      0.17289498312805
