14
Coordinates from ORCA-job run
  C   -0.49064493838029     -0.01084769436957     -0.16217248273388
  C   0.91191693429049      0.56626382825186     -0.27304376853709
  F   -0.60843023851499     -1.05707081971949     -1.07742628889921
  H   1.05141876983070      1.27542031985475      0.54260616098376
  H   0.92697610442371      1.13496188042647     -1.20964640811115
  N   -0.73435618137024     -0.69758810540415      1.17799861861912
  O   -1.83582814566812     -1.21958829406328      1.30946124014133
  O   0.16102121515382     -0.67751527434500      2.01745591863671
  N   -1.49796733001217      0.95181605685179     -0.28043657467832
  H   -1.38726641629295      1.50870511560834     -1.11603134202791
  H   -2.41794467521365      0.53077719568156     -0.24474754144003
  N   2.00351152584346     -0.38119969021740     -0.29182816058951
  H   1.84154875341074     -1.08587108922790     -0.99881692623099
  H   2.07504462249951     -0.83826342932796      0.60662755486717
