14
Coordinates from ORCA-job run
  C   -0.52678955192559     -0.06056292892101     -0.34137497612264
  C   0.88147995190107      0.48492970552551     -0.27433535451684
  F   -0.59336311331788     -1.06083845416359     -1.25877818436826
  H   1.08753543491101      0.91189933998385     -1.26456352005644
  H   0.90039924308437      1.29070627719778      0.46111028414147
  N   -0.81666005905262     -0.72497923084887      1.02387367177790
  O   -0.84285942666336      0.06949228759093      1.96066467096023
  O   -1.01748470561034     -1.92720320336757      1.07769656246964
  N   -1.49455373549017      0.91645500393817     -0.66531898131343
  H   -2.40183403537623      0.48664911208645     -0.80173453080002
  H   -1.55303355130435      1.61200646631467      0.06645661235088
  N   1.77286630376728     -0.57694955790643      0.15804467940995
  H   2.65952620694014     -0.19784469937605      0.45845953928226
  H   1.94377103813668     -1.22376011805382     -0.60020047321470
