14
Coordinates from ORCA-job run
  C   -0.43503341978022     -0.14513530991528     -0.17368574969700
  C   1.04812983605369     -0.19233312480922      0.17842550808348
  F   -0.64567956315266     -0.69098312058595     -1.39913373286881
  H   1.17648450937789      0.23401276424638      1.17702146902838
  H   1.34473489103165     -1.24383026734156      0.22541436637981
  N   -1.16022429251768     -1.07059876737894      0.82958589015575
  O   -1.47334405537404     -2.19934035230504      0.47700454657071
  O   -1.30717301957228     -0.58365384868986      1.94998422995171
  N   -0.95984837284355      1.16596986919161     -0.16890400591457
  H   -1.90119367434653      1.17706992328519     -0.54311332584970
  H   -0.96376387668609      1.54097382751228      0.77041835822517
  N   1.89207252655936      0.50249282072224     -0.76926637096212
  H   1.82561039369311      0.05312456501875     -1.67393819285993
  H   1.56122811755734      1.45323102104943     -0.87881299024289
