14
Coordinates from ORCA-job run
  C   -0.49343128507674     -0.15419607937409     -0.26330678616358
  C   0.97412764789047     -0.27290235779352      0.10296163586176
  F   -0.75199988630614     -0.67912163508611     -1.47728693121653
  H   1.23444027811581     -1.33446516128975      0.07125025511477
  H   1.07858535037963      0.07302479529180      1.14250434351277
  N   -1.25833472067553     -1.04955674385051      0.75192920839606
  O   -1.42128029153238     -0.54621530769847      1.86263051411008
  O   -1.59380453959364     -2.17309267423365      0.40498278930259
  N   -0.95137531975044      1.18427124356544     -0.23209562187987
  H   -1.86514853601539      1.25256527165852     -0.66391609121347
  H   -1.00334705508065      1.51241227109643      0.72367897394960
  N   1.75973772115333      0.44317170436715     -0.88415091359622
  H   1.54699920032978      1.43060926841719     -0.83538501175966
  H   2.74583143616189      0.31249540492956     -0.70279636441831
