14
Coordinates from ORCA-job run
  C   -0.61870892739607     -0.22330051858857     -0.27172479797002
  C   0.85031145385171     -0.12929414843016     -0.63705376302413
  F   -1.26764928104520     -0.88917001301479     -1.29536466012714
  H   0.85728055381323      0.19743026582511     -1.68032736078972
  H   1.26874144816842     -1.14147674922858     -0.59963738307489
  N   -0.83314281854925     -1.15117988942309      0.93582006734660
  O   -1.97837753252491     -1.53295147222089      1.13165572114133
  O   0.14158762396677     -1.37675144819287      1.64995070612133
  N   -1.19727692555519      0.99578880125167      0.06077055266176
  H   -0.67140383546124      1.79375751133663     -0.25742635182330
  H   -2.19167109854963      1.03446740134519     -0.10047659098782
  N   1.53587971003789      0.86844575614768      0.16715221223256
  H   2.45748534316970      1.03838628816123     -0.21362580420719
  H   1.64594428607374      0.51484821503143      1.10928745250062
