14
Coordinates from ORCA-job run
  C   -0.63495429122717     -0.13529761798607     -0.32031730792870
  C   0.77956373326086     -0.27427598967608     -0.85763981724096
  F   -1.50111526199135     -0.80273586557104     -1.14522315190730
  H   0.97623487598630     -1.33876520007663     -0.98359661869220
  H   0.75739279912046      0.17928214188080     -1.85115170064794
  N   -0.78583936433899     -0.93106733004451      1.01488034971687
  O   -1.80910077537924     -0.70625211742881      1.65427966105569
  O   0.09403845979293     -1.73083869116600      1.32477627800704
  N   -1.06910357877274      1.18681793183055     -0.17416855805287
  H   -0.38854308915125      1.74161735495800      0.32474155619086
  H   -1.96363842681929      1.22546329991805      0.29873020718209
  N   1.84358196839549      0.31974383034425     -0.08065233854971
  H   1.81013404140206      1.32790576936100     -0.05621954563665
  H   1.89234890972194     -0.06359751634349      0.85156098650377
