14
Coordinates from ORCA-job run
  C   -0.61455996410045     -0.11200936452180     -0.26613529913154
  C   0.82723708154741     -0.25696133412696     -0.68679315491615
  F   -1.42358576376060     -0.72947709498573     -1.21595902147901
  H   1.01336406749355     -1.31158844891322     -0.88648829029516
  H   0.94336882008641      0.29559670595901     -1.63271319925370
  N   -0.85742640930480     -0.93488877079166      0.99735864659662
  O   -1.51937612871651     -0.42629323330339      1.89603403912597
  O   -0.42209935018260     -2.07720340118186      0.97512885442361
  N   -0.96697842134669      1.22100378167836     -0.01097589703475
  H   -1.02047642857174      1.73808665652688     -0.87867157304874
  H   -1.83470088771100      1.28804537145613      0.50422108727004
  N   1.65809173666994      0.18686142866533      0.41604869916592
  H   1.59511440409534      1.19009818032613      0.52117171426109
  H   2.62302724380174     -0.07227047678719      0.26677339431579
