14
Coordinates from ORCA-job run
  C   -0.53186008609317     -0.03577085129319     -0.33592768764780
  C   0.89399683923414      0.46247265605591     -0.27329884120898
  F   -0.64099071436129     -1.01245836340305     -1.27471281186471
  H   0.94697458557965      1.24910093969224      0.48106693479128
  H   1.10280707911080      0.90607658552932     -1.25557469596250
  N   -0.82831133452697     -0.72128946895504      1.01708257959844
  O   -1.06531494123641     -1.91783813048882      1.04633523562641
  O   -0.82121073614696      0.05240319977838      1.97147123864876
  N   -1.47052617187508      0.97923538835829     -0.62703652681052
  H   -1.49582696439538      1.66127597701727      0.11923243827270
  H   -2.39361171193917      0.58273953404810     -0.75846354390295
  N   1.75517959434156     -0.63736963862894      0.12453415351502
  H   2.66005877128518     -0.29388437343756      0.41352345743253
  H   1.88963579102309     -1.27569345427291     -0.64823193048766
