14
Coordinates from ORCA-job run
  C   -0.53065771432648     -0.21723980581105     -0.11221105354301
  C   0.99209417802014     -0.24492748492178      0.04924473433196
  F   -0.82907124272835     -0.74376852233074     -1.33030002533771
  H   1.31399480853522     -1.28703646189676     -0.04139256102774
  H   1.23650812204487      0.09654610759966      1.05759451810091
  N   -1.10544835728093     -1.13940794050102      0.95156202059830
  O   -1.46395296719339     -2.25822437523224      0.61724169198591
  O   -1.10046456428957     -0.67454987803273      2.08973219147926
  N   -1.22109616962599      1.01855505440420      0.01525350469266
  H   -0.87793249003467      1.68350309985289     -0.66474272170287
  H   -1.12615106058165      1.38561843210861      0.95234715497621
  N   1.71123840541309      0.55238275872363     -0.92151771541038
  H   1.54247955881488      1.54111711091870     -0.79687496686168
  H   1.45845949323282      0.28643190511863     -1.86393677228182
