14
Coordinates from ORCA-job run
  C   -0.43062682767561     -0.14381078153493     -0.18631157088427
  C   1.04081428900467     -0.19722039526429      0.21183754474140
  F   -0.60619937985973     -0.69522337885962     -1.41500988123768
  H   1.13991445673715      0.23555922758707      1.21097249581748
  H   1.32923874712523     -1.25015795400930      0.27519039360426
  N   -1.19206861500093     -1.05915517776434      0.79855645207281
  O   -1.36793724237373     -0.56611269582273      1.91212557326554
  O   -1.50454457732173     -2.18667540591783      0.44160181135365
  N   -0.94729995805412      1.17061802854659     -0.20513616850654
  H   -1.87732586575125      1.18494452682075     -0.60665439013422
  H   -0.97732039315530      1.55002744871292      0.73204214670480
  N   1.91802932630562      0.48564314305006     -0.71360645168973
  H   1.59895761512759      1.43853898274151     -0.83803917615013
  H   1.87536842489215      0.03202443171413     -1.61756877895736
