14
Coordinates from ORCA-job run
  C   -0.59198063453826     -0.20549263092924     -0.33627883623135
  C   0.90349534317425     -0.10043365500302     -0.56608008772469
  F   -1.14830510288638     -0.81618124892670     -1.44594655858986
  H   1.00272961054338      0.27795988559683     -1.58692093293538
  H   1.31599660222362     -1.11547788456883     -0.54333609673516
  N   -0.91308806043656     -1.19253987004301      0.79869501056215
  O   -2.07357874211591     -1.57056158044173      0.87747780845137
  O   -0.00361022357806     -1.46601187902675      1.57914417154347
  N   -1.19681481641130      0.99745814469282      0.00569790941808
  H   -0.64789734337967      1.80918307110141     -0.22692074105265
  H   -2.17544715725792      1.04709421398204     -0.23093778273494
  N   1.51668073160439      0.85085949458237      0.34532996049668
  H   2.46808603644278      1.03604710908739      0.05599886431558
  H   1.54373375661563      0.44909682989643      1.27407731121668
