14
Coordinates from ORCA-job run
  C   -0.45988709712471     -0.15599006973260      0.01200587037239
  C   1.04651300596999     -0.35017008696852     -0.04256865906535
  F   -0.98828609467476     -0.59073107047086     -1.20950019472298
  H   1.45675142527638     -0.17800416349633      0.95236243494482
  H   1.23415315695242     -1.39211038974326     -0.30305127615105
  N   -1.12009124673940     -1.08674409608424      1.02056496609699
  O   -2.32402100847675     -0.92182803140802      1.18693153460226
  O   -0.42224445552598     -1.93693364386202      1.56318592725816
  N   -0.85785433067862      1.14109421543304      0.35011006237186
  H   -0.45718178753222      1.81422439057171     -0.28728496582011
  H   -1.86707729400117      1.21910277778219      0.36066869191533
  N   1.71663868701988      0.51003900689096     -0.99924288274983
  H   1.75857810812036      1.47162771192866     -0.69303926674311
  H   1.28400893141456      0.45542344915932     -1.91114224230937
