14
Coordinates from ORCA-job run
  C   -0.59452729343882     -0.21455840005282     -0.44554796030271
  C   0.90149089299386     -0.11455327892738     -0.63717413658592
  F   -1.13806649764595     -1.02849491387754     -1.40500434643724
  H   1.31239437810250     -1.12578557007665     -0.69136908397354
  H   1.03757710847457      0.36884944168365     -1.60651316012036
  N   -0.89516038281825     -1.01344419282287      0.86066308761856
  O   -2.04564766595967     -0.93858469388937      1.27939553543006
  O   0.01037722037142     -1.67555398541666      1.36350306396269
  N   -1.21816358033083      1.03012357187729     -0.44436360610531
  H   -0.66119393476103      1.67311630965651      0.10550542529603
  H   -2.16909982465140      0.97292168768373     -0.10404568346162
  N   1.45964424931498      0.72392212942789      0.41721025365383
  H   1.70659992727836      0.15001357943991      1.21300403059439
  H   2.29477540307028      1.19202831529433      0.09473658043113
