14
Coordinates from ORCA-job run
  C   -0.67013330333260     -0.11126519289004     -0.20940357763082
  C   0.74866333288172     -0.21634472721853     -0.73486982709930
  F   -1.51819169524123     -0.61204174506760     -1.18119568267522
  H   1.00562329487848     -1.28040487496165     -0.78795277983566
  H   0.69572512414962      0.16649483130315     -1.75753404606439
  N   -0.89817734533647     -1.06637082315473      0.97409318793526
  O   0.09943718119521     -1.48129146383510      1.56026638507013
  O   -2.06179461080181     -1.27917682316460      1.28485042200275
  N   -1.01428426305128      1.15801123407613      0.23796848283874
  H   -2.00326203458459      1.35082530795697      0.20581054410957
  H   -0.41439426472331      1.88851256609552     -0.10965213220199
  N   1.66259037772491      0.61757531271554      0.02753788406327
  H   1.81188980722751      0.19870224142874      0.93697784642219
  H   2.55530839901384      0.66477415671621     -0.44589670693452
