14
Coordinates from ORCA-job run
  C   -0.69175341073762     -0.14231691501655     -0.31515527533707
  C   0.73609969655637     -0.18340530862643     -0.80976234646848
  F   -1.49966750945770     -0.86883883422586     -1.15036178933157
  H   1.02262884053407     -1.22797233069120     -0.95541846435291
  H   0.71936293581051      0.31157860854629     -1.78268489810842
  N   -0.80012234947100     -0.94731262105912      1.01708244395217
  O   0.11951160447462     -1.70479795073951      1.32026943479434
  O   -1.83015397205945     -0.77745411128655      1.66108579684959
  N   -1.17146066462987      1.15680060178280     -0.17288979060112
  H   -0.45154519704874      1.72525151670451      0.25668117383504
  H   -2.03486916380253      1.18290125503423      0.35352041325537
  N   1.57985066248699      0.56640903665938      0.11309988266114
  H   2.37389194515241      0.96086685394273     -0.37107291287139
  H   1.92522658219194     -0.05070980102472      0.83660633172329
