14
Coordinates from ORCA-job run
  C   -0.53426134341317      0.00033743386300     -0.31906307570091
  C   0.95085271259141      0.24293348383111     -0.54476133586759
  F   -0.92859986854636     -1.12527511929675     -0.96917328626902
  H   1.22954554904486      1.18350388076591     -0.06570871182567
  H   1.06544824700111      0.36612592952737     -1.62468336008419
  N   -0.70279884250706     -0.32347625733063      1.18679221469536
  O   -1.03003916604752     -1.45007876724281      1.53288020960327
  O   -0.45294592575786      0.62591070082510      1.92821210044116
  N   -1.34846239679812      1.07455803059012     -0.72578028700441
  H   -2.33143762906244      0.85214543210431     -0.62576621196570
  H   -1.12653849677153      1.91404331459917     -0.20876047559690
  N   1.82622132066358     -0.80856144508862     -0.07652165446453
  H   1.52263468315986     -1.70934067353111     -0.42213148821230
  H   1.86138115644326     -0.84282594361618      0.93346536225143
