14
Coordinates from ORCA-job run
  C   -0.50411480457975      0.01105079816380     -0.11295880815119
  C   0.93191577084551      0.32074790773327     -0.50572153658704
  F   -0.84487173334384     -1.23421239899159     -0.64133104888615
  H   0.90182634266763      0.57126448257203     -1.57209556158517
  H   1.24420717413072      1.21573825421115      0.03195951574519
  N   -0.66602448243311     -0.19682410266217      1.38982524136575
  O   -1.79619135456109     -0.49295940715195      1.76114658194392
  O   0.31684573297477     -0.05003203968672      2.11026379888046
  N   -1.40389698290564      1.02705612047340     -0.45101749322432
  H   -2.35468601467137      0.77112715688423     -0.21530086906350
  H   -1.32998704059288      1.28158551423536     -1.42596497416242
  N   1.90025766305249     -0.73402987074479     -0.30726434339964
  H   1.57950868738244     -1.58846482992681     -0.74279686288533
  H   2.02321104203412     -0.90404758510921      0.68125636000944
