14
Coordinates from ORCA-job run
  C   -0.49333605033169     -0.02941465312508     -0.15022875570000
  C   0.91482962845485      0.49687688921827     -0.37886582141064
  F   -0.64282019917648     -1.21280537501070     -0.87362219165188
  H   1.07920470818935      1.33045747605682      0.30360997587518
  H   0.92067837947596      0.89985605371179     -1.39788340463217
  N   -0.72235293755539     -0.47628880719845      1.29072586351084
  O   0.18816618786911     -0.32999953997728      2.10075847022270
  O   -1.82882812662657     -0.94933692754476      1.52494087185137
  N   -1.48930016466148      0.91660274814816     -0.41320790261252
  H   -1.38655957837636      1.32014358550064     -1.33374461082759
  H   -2.41385700720475      0.52197080776314     -0.29274933901159
  N   1.99249243218576     -0.45857918545204     -0.25464899897851
  H   1.80780987980975     -1.26952747632711     -0.82987557929042
  H   2.07387284794794     -0.75895559576340      0.70679142265525
