14
Coordinates from ORCA-job run
  C   -0.69801130315772     -0.20454437145289     -0.32947869684218
  C   0.79544180089478     -0.12842134012045     -0.63557019937314
  F   -1.32121493289918     -0.81367063165021     -1.36739956264900
  H   1.18073650326648     -1.15341599182645     -0.73503330151835
  H   0.87221288644424      0.35198595529609     -1.61467662875927
  N   -0.84738234671390     -1.12952792184981      0.88324476150671
  O   -0.60187332918562     -0.61022264467057      1.96845298740634
  O   -1.12321714054128     -2.30369814369927      0.68076096975517
  N   -1.36448396648008      1.00848868416676     -0.02667768957587
  H   -1.60583839303581      1.46993005201671     -0.89468656523926
  H   -0.73357790174662      1.59575319153942      0.50683546847319
  N   1.46787220619043      0.70558181057395      0.34855597846233
  H   1.61158678888995      0.20445565677786      1.21507272953519
  H   2.36674912807434      1.00830569489888      0.00059974881812
