14
Coordinates from ORCA-job run
  C   -0.58559305870618     -0.09098341367782     -0.24931395396208
  C   0.81579259391861     -0.24184256847507     -0.81290207472540
  F   -1.47638530948779     -0.70233343453383     -1.13100177924771
  H   0.81797735542661      0.30406277298951     -1.76316414434563
  H   0.97313073170891     -1.29372943109361     -1.04856927555940
  N   -0.77266784933778     -0.90268597542435      1.03102435240298
  O   0.02332919966954     -1.81013137843245      1.25122374518242
  O   -1.75087062743160     -0.62047883619056      1.71527422153551
  N   -0.91671178489435      1.23417391229343      0.05683020942258
  H   -1.82881995155877      1.29813588582251      0.49048615924572
  H   -0.86925073959302      1.81546159166402     -0.76928980675359
  N   1.88993336416432      0.23650088698412      0.02950543969124
  H   2.00880976733515     -0.38505408418742      0.81783306230198
  H   1.67132630878634      1.15890407226153      0.38306384481141
