14
Coordinates from ORCA-job run
  C   -0.58585895145880     -0.13547494361578     -0.41643786130419
  C   0.91035372264644     -0.26193965101929     -0.70570028199320
  F   -1.29325055953812     -0.66840447631251     -1.44279775315468
  H   1.15435242786462     -1.32831693041694     -0.72308166657267
  H   1.03214329321434      0.12120335767032     -1.72157892956283
  N   -0.88830430898939     -1.04297097880680      0.80346557177817
  O   -0.57205860916906     -0.55685588994194      1.89098075411962
  O   -1.33889071766274     -2.16342659981144      0.61410886641763
  N   -1.00399901685674      1.19415790094988     -0.20490098507781
  H   -0.60745002999380      1.55426619179070      0.65183090516464
  H   -2.01460039174292      1.24412859550355     -0.15303861677525
  N   1.81490101814289      0.43657677141406      0.17766318206118
  H   1.67857944087627      0.16822052753502      1.14289288285290
  H   1.71208268266701      1.43783612506118      0.08859393204649
