17

C	-0.391338	-0.004063	-1.454469
C	0.0	0.0	0.0
F	0.28919	-0.915579	-2.182402
H	1.092541	0.0	0.0
N	-1.899259	-0.297797	-1.680887
O	-2.664026	0.374149	-0.998522
O	-2.20039	-1.11929	-2.529013
C	-0.187058	1.319304	-2.072046
N	-0.044454	2.359409	-2.599774
N	-0.447458	-1.205761	0.651077
O	-0.320287	-1.262353	1.88336
O	-0.830463	-2.159189	-0.052562
C	-0.321496	1.236895	0.813239
H	-1.386246	1.337577	1.027048
H	0.035426	2.123125	0.285114
H	0.24231	1.163202	1.743209
H	2.442963	0.0	0.0
