17

C	-0.514006	-0.000774	-1.413189
C	0.0	0.0	0.0
F	-0.034045	1.113077	-2.06222
H	1.091524	0.0	0.0
N	0.012214	-1.16894	-2.259529
O	1.042562	-1.710672	-1.895526
O	-0.607278	-1.372837	-3.3024
C	-1.981994	0.021511	-1.519605
N	-3.147341	0.172468	-1.556121
N	-0.471423	-1.176253	0.673614
O	-0.992245	-2.087378	-0.009743
O	-0.244983	-1.266993	1.890262
C	-0.357032	1.262324	0.759863
H	0.157557	1.226639	1.719933
H	-1.435667	1.356516	0.925324
H	0.013944	2.127673	0.207774
H	2.436662	0.0	0.0
