17

C	-0.564647	-0.094171	-1.393144
C	0.0	0.0	0.0
F	-1.932683	-0.175153	-1.394519
H	1.091588	0.0	0.0
N	-0.218065	1.230763	-2.101432
O	0.925093	1.323469	-2.528634
O	-1.094276	2.084679	-2.130212
C	-0.040188	-1.155279	-2.260605
N	0.315638	-1.941351	-3.057838
N	-0.384047	-1.179572	0.739509
O	-0.37816	-1.118805	1.978697
O	-0.560111	-2.236227	0.102365
C	-0.357637	1.283297	0.720045
H	0.020552	1.199537	1.73707
H	0.165315	2.117314	0.246129
H	-1.432125	1.48094	0.74042
H	2.440303	0.0	0.0
