17

C	-0.558534	0.003592	-1.394127
C	0.0	0.0	0.0
F	-0.102023	1.11963	-2.05676
H	1.091483	0.0	0.0
N	-0.065096	-1.159663	-2.26531
O	0.946938	-1.742821	-1.916537
O	-0.691243	-1.319206	-3.310998
C	-2.029662	0.025909	-1.449373
N	-3.1962	0.170747	-1.441987
N	-0.482512	-1.154778	0.699841
O	-1.047555	-2.058159	0.040862
O	-0.227374	-1.239129	1.912288
C	-0.300294	1.281154	0.754721
H	0.114261	2.121857	0.195939
H	-1.370907	1.431565	0.926113
H	0.220837	1.22384	1.71
H	2.423268	0.0	0.0
