17

C	-0.503412	-0.097671	-1.417468
C	0.0	0.0	0.0
F	-1.856309	-0.290778	-1.483017
H	1.09163	0.0	0.0
N	-0.240393	1.268565	-2.078111
O	0.904712	1.469651	-2.457774
O	-1.18126	2.04934	-2.119459
C	0.150165	-1.090394	-2.279898
N	0.601911	-1.83651	-3.066947
N	-0.381789	-1.196817	0.707259
O	-0.439411	-2.255581	0.054134
O	-0.485526	-1.144988	1.944176
C	-0.388019	1.269065	0.723673
H	0.132704	2.114937	0.267807
H	-0.030257	1.180649	1.747698
H	-1.46511	1.452734	0.72623
H	2.43542	0.0	0.0
