17

C	-0.483676	-0.035201	-1.424088
C	0.0	0.0	0.0
F	-1.85281	-0.105049	-1.504682
H	1.091272	0.0	0.0
N	-0.084174	1.308404	-2.057877
O	-0.944525	2.17934	-2.092675
O	1.081161	1.399117	-2.420673
C	0.080622	-1.06804	-2.301012
N	0.47216	-1.822997	-3.112885
N	-0.392932	-1.223358	0.659782
O	-0.240376	-2.282645	0.023035
O	-0.72075	-1.180065	1.857462
C	-0.411525	1.236264	0.76459
H	-0.043194	1.126336	1.782956
H	-1.491476	1.391727	0.787155
H	0.080068	2.108766	0.331591
H	2.443587	0.0	0.0
