12
Coordinates from ORCA-job run
  C   -0.07236350262962     -0.02676293679006     -0.39358988171609
  C   1.32078551405520     -0.26229231387162      0.08870432393752
  F   -0.18406559291642     -0.11823593697741     -1.72239475128687
  H   1.36259128120345     -0.18504136958417      1.17252037837852
  H   1.64387954249968     -1.25646164652963     -0.21745203955310
  H   1.96913483580946      0.48839808993594     -0.36691848138605
  N   -1.09643532350269     -0.98687730904924      0.19835895170090
  O   -2.24915729962188     -0.79236906585537     -0.16585039407978
  O   -0.68545175061337     -1.86330955530767      0.94806871917961
  N   -0.56538311165213      1.34732793391424      0.03935355876464
  O   -0.70151739150956      1.47285330085185      1.25004100126608
  O   -0.74201720112212      2.18277080926314     -0.83184138520539
