12
Coordinates from ORCA-job run
  C   -0.05916070691540      0.03202129606290     -0.39532876382571
  C   1.30686259904326     -0.32371567010166      0.09085735457876
  F   -0.13831406462912      0.08434934779868     -1.72858185907913
  H   1.56536626933987     -1.30501520488862     -0.31127739313398
  H   1.32573922635353     -0.34766778780276      1.17779939139949
  H   2.02045298612205      0.41654109143216     -0.26872959368552
  N   -1.08729804213952     -0.97066450326962      0.11082374940483
  O   -1.61598494170690     -1.69958316492433     -0.71216542509179
  O   -1.24821694345022     -0.95452903217732      1.32486566472154
  N   -0.56573184271020      1.37103786513948      0.12560216481565
  O   -1.69539807263767      1.66776245086832     -0.24190243167604
  O   0.19068353333031      2.02946331186275      0.82803714157189
