12
Coordinates from ORCA-job run
  C   -0.08219882422931     -0.03394501665852     -0.39104511713429
  C   1.32481361162370     -0.24904772488065      0.05962457510616
  F   -0.22684023050552     -0.14944274330466     -1.71469431591936
  H   1.64938581579527     -1.24472327158892     -0.24011560896878
  H   1.95479459143376      0.50042226939277     -0.42296094191677
  H   1.39304295098674     -0.15539218921241      1.14078351563013
  N   -1.08182415468600     -0.99284383349788      0.24325583983700
  O   -2.24536282842220     -0.81454350531040     -0.09404035465907
  O   -0.64371264822126     -1.85325689692748      0.99619582746334
  N   -0.57654896096257      1.34286031129964      0.03095457470596
  O   -0.68425502323924      1.48764862163695      1.24239314487501
  O   -0.78129429957336      2.16226397905156     -0.84935113901932
