12
Coordinates from ORCA-job run
  C   -0.04707945429936      0.03951431812272     -0.39619089384723
  C   1.30067253732570     -0.33840592079530      0.12307480080876
  F   -0.08677563612836      0.11583777729766     -1.72996215469546
  H   1.56005245887748     -1.31661007618704     -0.28600900254393
  H   1.28916525263164     -0.37805863776578      1.20960377520395
  H   2.03165982404666      0.39896408539672     -0.20637039787991
  N   -1.09925827961219     -0.96156848472586      0.06207858496735
  O   -1.29447926505267     -0.96582768512898      1.27119918313398
  O   -1.61234827547143     -1.66931621751851     -0.78878197942281
  N   -0.55603154164867      1.37408449578959      0.13359496043600
  O   0.18608318384957      2.01277783367262      0.86880150540376
  O   -1.67166080451839      1.68860851184215     -0.26103838156445
