15

C	-0.222405	0.037836	-1.4966
C	0.0	0.0	0.0
Cl	-1.987027	0.18559	-1.965644
H	1.099034	0.0	0.0
H	0.051083	-0.947381	-1.893685
N	0.522237	1.13413	-2.039311
H	1.452244	1.084334	-1.606923
H	0.62736	1.021321	-3.04035
C	-0.510353	-1.261641	0.677409
H	-0.034054	-2.132051	0.216898
H	-1.596328	-1.36069	0.595478
H	-0.232372	-1.253004	1.733964
C	-0.477835	1.206385	0.653752
N	-0.838201	2.164081	1.232457
H	2.75011	0.0	0.0
