15

C	-0.605868	0.029691	-1.398676
C	0.0	0.0	0.0
Cl	0.020913	1.436158	-2.334397
H	1.09482	0.0	0.0
H	-1.683063	0.242176	-1.320326
N	-0.307517	-1.169929	-2.145868
H	-0.614461	-1.978159	-1.619875
H	-0.807609	-1.148374	-3.026735
C	-0.372044	-1.283907	0.752345
H	-0.052048	-1.18831	1.791327
H	-1.446449	-1.50367	0.735681
H	0.194472	-2.116819	0.328926
C	-0.487015	1.155187	0.74186
N	-0.904093	2.066948	1.356484
H	2.772333	0.0	0.0
