15

C	-0.338995	-0.17981	-1.492872
C	0.0	0.0	0.0
Cl	-0.386072	1.431162	-2.326611
H	1.096788	0.0	0.0
H	-1.345866	-0.587751	-1.630765
N	0.622769	-1.017726	-2.153665
H	1.543767	-0.830085	-1.742283
H	0.389694	-1.990094	-1.997485
C	-0.397433	-1.259144	0.774837
H	0.131461	-2.120655	0.360326
H	-1.47718	-1.443043	0.744764
H	-0.085823	-1.161053	1.817397
C	-0.577014	1.17093	0.628191
N	-1.070931	2.084279	1.18069
H	2.789301	0.0	0.0
