15

C	-0.484897	0.05612	-1.44156
C	0.0	0.0	0.0
Cl	0.198481	-1.388888	-2.359536
H	1.094438	0.0	0.0
H	-0.021301	0.90932	-1.939597
N	-1.904684	0.136768	-1.558999
H	-2.330388	-0.684464	-1.147481
H	-2.177943	0.175395	-2.533598
C	-0.449263	-1.227619	0.79066
H	-1.530178	-1.262845	0.963489
H	0.053411	-1.211502	1.760306
H	-0.129801	-2.132572	0.272213
C	-0.435026	1.221276	0.666392
N	-0.764352	2.199157	1.230389
H	2.767707	0.0	0.0
