15

C	-0.597771	0.027709	-1.40188
C	0.0	0.0	0.0
Cl	0.102094	1.37599	-2.364182
H	1.094782	0.0	0.0
H	-1.665098	0.288058	-1.337596
N	-0.35001	-1.206405	-2.118466
H	-0.830291	-1.960661	-1.640643
H	-0.739602	-1.125812	-3.05043
C	-0.37883	-1.281531	0.75062
H	-0.033028	-1.200541	1.782896
H	-1.458202	-1.479034	0.758881
H	0.158897	-2.118967	0.301302
C	-0.484024	1.161208	0.73468
N	-0.896136	2.080031	1.342194
H	2.777215	0.0	0.0
