18

C	-0.303644	-0.038156	-1.494791
C	0.0	0.0	0.0
Cl	-2.104021	-0.127027	-1.785614
H	1.105341	0.0	0.0
C	0.203553	1.213811	-2.184218
H	0.013436	1.150624	-3.259674
H	1.280506	1.279121	-2.005789
H	-0.276657	2.098343	-1.773592
N	0.264619	-1.270388	-2.012838
H	1.264758	-1.244911	-1.801545
H	0.153505	-1.285846	-3.022949
N	-0.536123	-1.189561	0.668412
H	0.127612	-1.450399	1.389594
H	-0.534614	-1.94506	-0.009436
N	-0.469355	1.230819	0.606164
H	0.144041	1.457206	1.379195
H	-1.389557	1.035079	0.985231
Cl	3.490328	0.0	0.0
