18

C	-0.538132	0.02989	-1.431558
C	0.0	0.0	0.0
Cl	0.076648	1.627513	-2.206446
H	1.094403	0.0	0.0
C	0.050452	-1.076309	-2.275227
H	1.139586	-1.01891	-2.237242
H	-0.282783	-0.985801	-3.313356
H	-0.276787	-2.027934	-1.857476
N	-1.95749	0.008493	-1.400081
H	-2.277172	0.749636	-0.785863
H	-2.344266	0.132578	-2.326911
N	-0.409968	-1.257688	0.595414
H	0.205809	-1.471388	1.369694
H	-1.367458	-1.186621	0.918531
N	-0.559809	1.14881	0.743332
H	-0.101096	1.987357	0.397705
H	-0.243006	1.041188	1.70195
Cl	3.517733	0.0	0.0
