18

C	-0.445557	0.003716	-1.453069
C	0.0	0.0	0.0
Cl	-2.445116	0.223568	-1.332242
H	1.095575	0.0	0.0
C	0.003645	1.210906	-2.23131
H	1.09766	1.201546	-2.215651
H	-0.354452	2.121144	-1.75889
H	-0.35342	1.160382	-3.263334
N	-0.151232	-1.192765	-2.059419
H	-0.493008	-1.295112	-3.001431
H	-0.327878	-1.979678	-1.449647
N	-0.415766	-1.263398	0.615119
H	-1.35515	-1.170494	0.983855
H	0.220965	-1.476879	1.372345
N	-0.388063	1.234659	0.658654
H	-1.360766	1.203703	0.938937
H	0.201223	1.366613	1.47017
Cl	3.432818	0.0	0.0
