18

C	-0.403039	0.037363	-1.487958
C	0.0	0.0	0.0
Cl	-0.250358	-1.742835	-2.180375
H	1.093675	0.0	0.0
C	-1.849915	0.401448	-1.732965
H	-2.083509	0.361752	-2.800046
H	-2.507061	-0.290267	-1.205717
H	-1.996831	1.416531	-1.360711
N	0.491805	0.892475	-2.146735
H	0.378363	0.872401	-3.150755
H	1.457233	0.701514	-1.884514
N	-0.60162	-1.119937	0.723175
H	-0.138167	-1.145043	1.6273
H	-0.350917	-1.983246	0.254538
N	-0.428874	1.252166	0.614238
H	-1.22465	1.057495	1.214084
H	0.332224	1.625524	1.167872
Cl	3.483869	0.0	0.0
