16
Coordinates from ORCA-job run
  C   -0.47134051574131     -0.57258758597937      0.00818983092542
  C   0.95132528482416     -0.15284254520548      0.39610908354119
  Cl  -0.81382897181442     -2.05028806221196      0.93880367600317
  H   1.63435004239777     -0.98536410659142      0.21453467033877
  N   -0.43277416516786     -1.01195228527369     -1.45956959805391
  O   -1.44241937157143     -0.82453329379217     -2.12034167008165
  O   0.59876574868483     -1.55817368466022     -1.83172994591150
  C   -1.54913569920490      0.45237085308439      0.24917730080695
  H   -1.54628042383026      0.73386538982407      1.30327329168571
  H   -1.38146418415727      1.33059003888449     -0.37230009453957
  H   -2.51877104933878      0.02516594778491      0.00139057450899
  C   1.01807332808009      0.27064393205728      1.78784134359730
  N   1.04500562170741      0.61415719091507      2.91069054750556
  N   1.49545450892315      0.98118045744931     -0.46778249019165
  O   2.61143964219847      1.37168026321412     -0.16099965919307
  O   0.80160020401035      1.37608749050065     -1.39628686094171
