16
Coordinates from ORCA-job run
  C   -0.35227329110569     -0.39356118617614     -0.32135422535817
  C   0.77345465182193      0.55060052738700      0.14362627167449
  Cl  0.32095013802449     -1.90902302422231     -0.88625111895906
  H   0.32160659514538      1.48435530740473      0.48133775904635
  N   -1.01977691628305      0.35793779647354     -1.49635500569262
  O   -1.33948914172491      1.51139318335845     -1.22290723656098
  O   -1.21764901092769     -0.23063887245095     -2.54413122276337
  C   -1.43809634945038     -0.62675879725015      0.71053926509529
  H   -2.24891892794556     -1.18718797822180      0.24142555951223
  H   -1.81683976155769      0.32698457543744      1.07917738339613
  H   -1.05025606488586     -1.20700474170734      1.54571886804044
  C   1.74056664285217      0.80705238678622     -0.91320292617323
  N   2.49023176267424      1.04764967766729     -1.78467309581077
  N   1.45947766175189     -0.03669825693387      1.35731793092198
  O   0.87315386728939      0.15261617928540      2.41918036199035
  O   2.50585814432135     -0.64771677683752      1.18855143164093
