16
Coordinates from ORCA-job run
  C   -0.50990685796120     -0.53577546933337     -0.04448938213617
  C   0.89762574611652     -0.22667943672611      0.47836067808668
  Cl  -1.04213471443017     -1.99487888000764      0.82517888362673
  H   1.53145885509666     -1.10647430485874      0.35059087782344
  N   -0.37210319862855     -0.96125762678924     -1.50964446276690
  O   -1.32572039169935     -0.73929910703923     -2.23997209668696
  O   0.66650485500499     -1.53626745921159     -1.81179892285767
  C   -1.52924522727652      0.56248099624072      0.11667278499443
  H   -1.24170501936685      1.43393206924687     -0.46933378844380
  H   -2.49961672788065      0.21026079059049     -0.22721266725319
  H   -1.60355895068682      0.82942781926187      1.17183131314732
  C   0.86584828319616      0.18297850542517      1.87536466461820
  N   0.81675541559727      0.51881380386164      2.99980382679557
  N   1.60326758079279      0.86840803692814     -0.31619059006417
  O   2.72257772169656      1.15099706172188      0.08350528963462
  O   1.01995263042914      1.34233320068916     -1.28266640851814
