16
Coordinates from ORCA-job run
  C   -0.39844869538589     -0.56004427984263     -0.10816613254765
  C   0.72840199279000      0.16716661142071      0.64038943451391
  Cl  -0.08044108394574     -2.28741095669947      0.00726393435513
  H   0.74681079865612     -0.22395968435188      1.66024029967022
  N   -0.41639069973366     -0.12675496732796     -1.58671712819792
  O   -0.64634918523344      1.06694041860575     -1.73683081513149
  O   -0.24770722036765     -0.96263001637349     -2.45627142801293
  C   -1.75447081359969     -0.22095518471232      0.47935218926674
  H   -1.78606885682921     -0.51788975866459      1.52887849336547
  H   -2.52739184205429     -0.77124697802806     -0.05985777485568
  H   -1.94608429909956      0.84852762629774      0.39094691371375
  C   0.59858794635042      1.61828907296603      0.67627033189004
  N   0.51636454178285      2.78395520701762      0.79666906745400
  N   2.08296303226746     -0.18795539826640      0.06044028386040
  O   2.88779068347744     -0.69026043821919      0.83409970765869
  O   2.24343370092483      0.06522872617813     -1.12670737700267
