16
Coordinates from ORCA-job run
  C   -0.27212778527323     -0.40793371694267     -0.36970546206819
  C   0.67295644930260      0.65024413137816      0.23090123625595
  Cl  0.65374378163332     -1.74255448618969     -1.02760775632069
  H   0.07044383937688      1.46599530963797      0.63188497450411
  N   -1.01479607732741      0.32661536346318     -1.50870842277329
  O   -1.44013375603235      1.43408297671711     -1.19267043272029
  O   -1.17931366275618     -0.24778044993500     -2.57040127457606
  C   -1.34573835706588     -0.90061139977327      0.58088311404363
  H   -2.03648855089074     -1.53616162730098      0.02364904357474
  H   -1.88713457086324     -0.05384581586119      1.00526733240828
  H   -0.90429588180359     -1.48443271915798      1.38635853484272
  C   1.62052867194689      1.15569320367518     -0.75125219890103
  N   2.35261602941350      1.59252873152008     -1.55907787264680
  N   1.40528156116115      0.05943061208362      1.41613095094815
  O   2.54418834160789     -0.35259209854748      1.24347515150514
  O   0.75926996757039      0.04032198523294      2.45987308192362
