15

C	-0.492481	-0.020399	-1.423169
C	0.0	0.0	0.0
F	-0.176891	-1.196144	-2.027409
H	1.094183	0.0	0.0
H	-0.329679	-0.957569	0.419857
C	-1.948374	0.177942	-1.555272
N	-3.11727	0.270149	-1.615276
N	0.156682	1.091674	-2.259916
O	0.959354	0.770471	-3.119237
O	-0.215694	2.224479	-1.9787
C	-0.498972	1.162047	0.84564
H	-0.092964	2.106669	0.483911
H	-0.12777	1.018279	1.862297
H	-1.589961	1.239173	0.881198
H	2.855391	0.0	0.0
