15

C	-0.448167	-0.020572	-1.430004
C	0.0	0.0	0.0
F	-0.024496	1.071827	-2.116452
H	1.094053	0.0	0.0
H	-0.329455	-0.932773	0.467608
C	-0.0615	-1.234991	-2.166349
N	0.21029	-2.204746	-2.770002
N	-1.988523	0.025	-1.470271
O	-2.517986	1.087548	-1.770367
O	-2.561439	-0.999504	-1.110646
C	-0.512514	1.221213	0.749691
H	-0.272671	2.13473	0.202721
H	-1.591189	1.198827	0.936527
H	0.006008	1.271169	1.709676
H	2.828886	0.0	0.0
