15

C	-0.498646	0.186688	-1.402729
C	0.0	0.0	0.0
F	-0.038623	-0.77619	-2.243533
H	1.091435	0.0	0.0
H	-0.344325	0.851956	0.592828
C	-1.973247	0.212597	-1.501692
N	-3.148284	0.245591	-1.513003
N	-0.043568	1.54387	-1.962988
O	0.581136	1.551512	-3.010177
O	-0.394072	2.512486	-1.303029
C	-0.482695	-1.318343	0.588123
H	-1.568015	-1.372283	0.717686
H	-0.15871	-2.151634	-0.037448
H	-0.006425	-1.448714	1.56129
H	2.870293	0.0	0.0
