15

C	-0.441805	0.002687	-1.432539
C	0.0	0.0	0.0
F	-0.038003	1.134423	-2.068474
H	1.0939	0.0	0.0
H	-0.342526	0.950006	0.425214
C	-0.00724	-1.172041	-2.205546
N	0.326435	-2.102243	-2.840049
N	-1.97865	0.017625	-1.490248
O	-2.547866	-1.072796	-1.489658
O	-2.519578	1.116612	-1.435939
C	-0.484007	-1.198754	0.801473
H	-1.568414	-1.229379	0.941974
H	-0.171889	-2.132331	0.32671
H	-0.003688	-1.164018	1.782289
H	2.80676	0.0	0.0
