15

C	-0.493695	-0.057862	-1.406022
C	0.0	0.0	0.0
F	-1.866812	-0.242932	-1.480203
H	1.093995	0.0	0.0
H	-0.339145	-0.924044	0.478586
C	-0.18068	1.131439	-2.210481
N	-0.042822	2.128188	-2.815509
N	0.099585	-1.28396	-2.102644
O	-0.279584	-2.362496	-1.66419
O	0.89471	-1.100267	-3.015778
C	-0.495514	1.235974	0.73791
H	-0.131677	1.192941	1.767092
H	-0.079177	2.142593	0.291486
H	-1.586432	1.316548	0.754556
H	2.841022	0.0	0.0
