13

C	0.0	0.0	0.0
C	-0.481695	0.142764	-1.429833
F	1.387697	0.0	0.0
H	0.046403	-0.609806	-2.021907
H	-0.363476	0.809987	0.63421
H	-1.551223	-0.073869	-1.434489
C	-0.390129	-1.287242	0.60727
N	-0.566791	-2.308911	1.153571
C	-0.219481	1.548791	-1.954724
H	0.822141	1.851653	-1.8135
H	-0.866961	2.263807	-1.441778
H	-0.442949	1.611735	-3.020434
Cl	-3.539519	0.0	0.0
