18

C	-0.37742	0.052696	-1.492242
C	0.0	0.0	0.0
Cl	0.038556	-1.617838	-2.204753
H	1.097124	0.0	0.0
C	-1.855896	0.24248	-1.764413
H	-2.17421	1.21703	-1.391215
H	-2.436701	-0.544298	-1.281382
H	-2.049138	0.19847	-2.839262
N	0.404872	1.080245	-2.083025
H	0.291515	1.086793	-3.088935
H	1.389651	0.944813	-1.854004
C	-0.533957	-1.178722	0.668082
N	-1.014952	-2.067962	1.266563
C	-0.442311	1.261287	0.754417
H	0.029987	1.262955	1.73879
H	-0.105045	2.141748	0.207621
H	-1.526576	1.303441	0.888956
Br	3.489965	0.0	0.0
