18

C	-0.369972	0.061673	-1.506205
C	0.0	0.0	0.0
Cl	-0.050686	-1.580154	-2.198942
H	1.1003	0.0	0.0
C	-1.829538	0.38687	-1.76076
H	-2.47796	-0.313967	-1.231798
H	-2.027027	0.324043	-2.831066
H	-2.055079	1.403137	-1.422144
N	0.480318	0.976752	-2.232972
H	0.262775	1.926034	-1.948011
H	1.451951	0.793169	-1.978056
C	-0.555746	-1.161481	0.678898
N	-1.069433	-2.045932	1.257912
C	-0.413462	1.26829	0.757761
H	-1.496571	1.352838	0.876586
H	0.046077	1.250263	1.748072
H	-0.032525	2.153534	0.244264
Br	3.495306	0.0	0.0
