18

C	-0.444302	-0.081013	-1.470102
C	0.0	0.0	0.0
Cl	0.201904	1.443222	-2.305557
H	1.103374	0.0	0.0
C	0.224848	-1.248639	-2.167872
H	-0.146783	-2.181343	-1.737354
H	-0.002728	-1.232263	-3.237477
H	1.304987	-1.183533	-2.025567
N	-1.865234	-0.156722	-1.583815
H	-2.128908	-0.234251	-2.559361
H	-2.296851	0.679479	-1.208311
C	-0.446129	-1.218175	0.678285
N	-0.82372	-2.169009	1.25474
C	-0.492496	1.220738	0.778734
H	-0.152477	2.134364	0.292103
H	-1.58237	1.236142	0.878257
H	-0.061891	1.192572	1.781261
Br	3.519633	0.0	0.0
