18

C	-0.443433	-0.046237	-1.472766
C	0.0	0.0	0.0
Cl	0.178316	1.511617	-2.264327
H	1.09512	0.0	0.0
C	0.247421	-1.182503	-2.201861
H	0.015218	-1.144868	-3.26983
H	-0.102345	-2.133195	-1.793014
H	1.326743	-1.098109	-2.06164
N	-1.86215	-0.143164	-1.590004
H	-2.310725	0.669135	-1.184186
H	-2.126174	-0.193692	-2.56688
C	-0.442916	-1.239036	0.643534
N	-0.815888	-2.224505	1.163241
C	-0.495055	1.19843	0.811315
H	-0.069219	1.140752	1.814741
H	-1.585428	1.212728	0.906084
H	-0.151965	2.125104	0.352784
Br	3.523833	0.0	0.0
