12

C	-0.50162	-0.003923	-1.456614
C	0.0	0.0	0.0
Br	0.246695	1.562352	-2.371761
H	1.093125	0.0	0.0
H	-0.337136	0.92646	0.47347
C	-0.087413	-1.207276	-2.17983
N	0.229881	-2.163694	-2.785874
C	-1.960981	0.115873	-1.520566
N	-3.132262	0.219079	-1.533807
C	-0.538437	-1.147866	0.719013
N	-0.979791	-2.072888	1.29316
Cl	3.237575	0.0	0.0
