12

C	-0.496909	-0.033557	-1.458133
C	0.0	0.0	0.0
Br	0.183415	-1.633879	-2.362882
H	1.093169	0.0	0.0
H	-0.332005	0.944143	0.445666
C	-1.9607	-0.075572	-1.530224
N	-3.136093	-0.09909	-1.557486
C	-0.02472	1.147413	-2.182729
N	0.336434	2.093041	-2.779621
C	-0.539607	-1.112817	0.766429
N	-0.983783	-2.000955	1.394116
Cl	3.235475	0.0	0.0
