12

C	-0.535646	-0.2482	-1.421287
C	0.0	0.0	0.0
Br	0.297944	1.04766	-2.637356
H	1.10422	0.0	0.0
H	-0.318166	1.001405	0.306793
C	-0.231265	-1.595741	-1.904645
N	-0.030363	-2.683358	-2.302028
C	-1.983138	-0.024944	-1.477852
N	-3.138574	0.19494	-1.472824
C	-0.549042	-0.988443	0.918489
N	-1.020985	-1.785273	1.641393
Cl	3.236682	0.0	0.0
