12

C	-0.486907	0.327332	-1.423399
C	0.0	0.0	0.0
Br	0.268069	-1.00363	-2.65395
H	1.107681	0.0	0.0
H	-0.340762	-1.006467	0.256037
C	-1.945208	0.238534	-1.535456
N	-3.115671	0.152946	-1.609752
C	-0.055439	1.65646	-1.858173
N	0.237373	2.73696	-2.216138
C	-0.542462	0.96833	0.944407
N	-1.00525	1.758049	1.680504
Cl	3.230968	0.0	0.0
