12

C	-0.459835	-0.107478	-1.457357
C	0.0	0.0	0.0
Br	-2.442096	0.019591	-1.572445
H	1.106013	0.0	0.0
H	-0.333133	0.961837	0.399447
C	0.066916	1.006449	-2.245451
N	0.445368	1.923173	-2.875844
C	-0.089217	-1.385542	-2.062497
N	0.173213	-2.419798	-2.555388
C	-0.527717	-1.08503	0.811756
N	-0.955965	-1.952217	1.478019
Cl	3.201255	0.0	0.0
