12

C	-0.474953	-0.282141	-1.437435
C	0.0	0.0	0.0
Br	0.222484	-2.009459	-2.048869
H	1.105152	0.0	0.0
H	-0.332521	1.007033	0.273452
C	-1.935477	-0.341407	-1.537789
N	-3.108955	-0.366368	-1.613967
C	0.011699	0.766635	-2.33477
N	0.348039	1.648378	-3.034778
C	-0.541905	-0.965243	0.942194
N	-0.989435	-1.722444	1.721725
Cl	3.217061	0.0	0.0
