12

C	-0.473479	-0.409222	-1.397614
C	0.0	0.0	0.0
Br	-2.459439	-0.339798	-1.503776
H	1.105822	0.0	0.0
H	-0.333748	1.023011	0.193897
C	0.019105	0.530019	-2.405102
N	0.361848	1.303204	-3.221265
C	-0.086171	-1.777098	-1.739474
N	0.189575	-2.883643	-2.024213
C	-0.518319	-0.892868	1.024665
N	-0.940902	-1.60539	1.857068
Cl	3.20313	0.0	0.0
