12

C	-0.49836	-0.403486	-1.39901
C	0.0	0.0	0.0
Br	0.251596	-2.145281	-1.902509
H	1.105701	0.0	0.0
H	-0.336801	1.023002	0.200289
C	-1.958082	-0.526938	-1.442746
N	-3.130776	-0.613529	-1.452792
C	-0.082763	0.587065	-2.393327
N	0.183895	1.404887	-3.194211
C	-0.526112	-0.894821	1.020665
N	-0.969095	-1.605934	1.843531
Cl	3.230797	0.0	0.0
