12

C	-0.458532	0.291779	-1.432929
C	0.0	0.0	0.0
Br	-2.436869	0.14293	-1.572464
H	1.104259	0.0	0.0
H	-0.331896	-1.005764	0.272858
C	-0.113565	1.647709	-1.856803
N	0.124906	2.746774	-2.198905
C	0.09386	-0.692631	-2.362813
N	0.494799	-1.502695	-3.114651
C	-0.535997	0.973041	0.938916
N	-0.979955	1.754185	1.695022
Cl	3.202084	0.0	0.0
