12

C	-0.457795	-0.265304	-1.437787
C	0.0	0.0	0.0
Br	-2.436764	-0.108548	-1.574722
H	1.10423	0.0	0.0
H	-0.329873	1.000935	0.291065
C	0.095533	0.734262	-2.351125
N	0.500997	1.549709	-3.093961
C	-0.115986	-1.613844	-1.887151
N	0.121722	-2.705056	-2.254029
C	-0.538145	-0.990882	0.918684
N	-0.989036	-1.789804	1.651364
Cl	3.207179	0.0	0.0
