12

C	-0.485379	-0.238225	-1.442385
C	0.0	0.0	0.0
Br	0.22273	-1.964293	-2.050897
H	1.103383	0.0	0.0
H	-0.344003	-0.832034	0.621028
C	-1.946503	-0.316235	-1.519616
N	-3.120139	-0.374306	-1.557543
C	-0.015178	0.803924	-2.356609
N	0.315025	1.64701	-3.106112
C	-0.534569	1.256429	0.507722
N	-0.988716	2.262696	0.909035
Cl	3.230241	0.0	0.0
