14
Coordinates from ORCA-job run
  C   0.62787475915697      0.30518581382636      0.28452686919470
  C   -0.66663572913512     -0.11262525980242      0.33723349350921
  C   1.21143473329309      0.90501040131019      1.44899043654836
  N   1.74029441959218      1.40499123836999      2.37493318110860
  C   1.52885645520417      0.22720865420973     -0.91655356552755
  H   2.50374462663870     -0.16757681802228     -0.62181843542603
  H   1.12170365093440     -0.41329955626901     -1.69641782788304
  H   1.69403769327758      1.22672935246848     -1.32962563220067
  C   -1.38464136282829      0.01013165780786      1.57231108406632
  N   -2.01974999679622      0.08668208804332      2.56121086543615
  C   -1.43236039448737     -0.74404843506217     -0.79305638073330
  H   -0.96320322111543     -0.56424456241210     -1.75859981475797
  H   -1.51488219613178     -1.82383951489223     -0.63650532492363
  H   -2.44647343760288     -0.34030505957571     -0.82362894841114
