14
Coordinates from ORCA-job run
  C   -0.71228539869361     -0.14768385053077      0.19853660076807
  C   0.56489393945941      0.25724482354034      0.43866233477742
  C   -1.65623657304686     -0.15932718925880      1.27727829081053
  N   -2.47144782676334     -0.19288842915958      2.12670482505132
  C   -1.24072393307495     -0.62660883968984     -1.12521300152599
  H   -1.41692375003501     -1.70591723529498     -1.09322291987266
  H   -2.19901464841080     -0.14689441002935     -1.33643775532294
  H   -0.55851971762452     -0.40425640705293     -1.94347455310881
  C   0.91012761080351      0.71994566228531      1.75055298554382
  N   1.23761878524844      1.12150798545131      2.80832242547983
  C   1.66747682701875      0.30626864366199     -0.58490195131539
  H   1.49838777711184     -0.39714188876551     -1.39884961901402
  H   2.62207542782317      0.06298338192207     -0.11534256530984
  H   1.75357148018398      1.31376775292075     -1.00361509696132
