14
Coordinates from ORCA-job run
  C   0.60523166076974      0.31081007247892      0.00140779793671
  C   -0.60518236296718     -0.31083405060643     -0.00114839260070
  C   0.63854183655668      1.74366278156031      0.02378234309055
  N   0.70216388003678      2.91942620416144      0.04151427626121
  C   1.93895034257072     -0.38108637666607     -0.01777745984896
  H   2.50962089530390     -0.07252109902507     -0.89776230316802
  H   2.51995468870056     -0.10184667234208      0.86520882547475
  H   1.82136470731305     -1.46479451668200     -0.03526339297625
  C   -0.63852223011855     -1.74356411374129     -0.02355400087527
  N   -0.70244861083599     -2.91934433315680     -0.04158139489292
  C   -1.93889817125829      0.38106746557601      0.01776079355646
  H   -2.51965154336855      0.10171082123548     -0.86523314196335
  H   -2.50972383211087      0.07263673421767      0.89753812038034
  H   -1.82140126059199      1.46467708298992      0.03510792962544
