14
Coordinates from ORCA-job run
  C   0.60501602507612      0.30871946235269      0.03540938620203
  C   -0.60528667725031     -0.30881988280751     -0.03704468786053
  C   0.64041308017595      1.74021265270918      0.09934963005643
  N   0.70591313595662      2.91483071865299      0.15329314160395
  C   1.93713461601977     -0.38641291803888      0.05645479698018
  H   2.47783005626240     -0.13415158481737      0.97257648353947
  H   2.54807480699967     -0.05444950541005     -0.78710769387080
  H   1.81890303821738     -1.46884809025472      0.00271716673442
  C   -0.64021425367290     -1.74038903373411     -0.10007120065589
  N   -0.70493645157093     -2.91505912873154     -0.15301972025995
  C   -1.93723062625886      0.38623870302008     -0.05631216701887
  H   -2.54567729065878      0.05581438234577      0.78968594006083
  H   -1.81838187655399      1.46862632962235     -0.00458876947441
  H   -2.48055758274215      0.13268789509113     -0.97034230603685
