14
Coordinates from ORCA-job run
  C   -0.62139659788927     -0.23493609946155      0.15390100199261
  C   0.61829937347575      0.23876345286047     -0.14606332014695
  C   -0.72530439444858     -1.48540905073111      0.84619826364364
  N   -0.84408820356829     -2.50981448331416      1.41485335571271
  C   -1.91834609257584      0.44195892684753     -0.18898614137978
  H   -2.52184870364790     -0.20550079195684     -0.83059512794653
  H   -1.74588857595840      1.38659393689517     -0.70500485641499
  H   -2.49459017810117      0.63442053796340      0.71981387606346
  C   0.72569672723078      1.48672067772433     -0.84244829588481
  N   0.85410919308921      2.50932812249207     -1.41253247168918
  C   1.91574717584280     -0.44222198915556      0.18835644794982
  H   2.47133180177509     -0.66029950137913     -0.72759691005482
  H   2.53823942496949      0.21558396927691      0.80050029934717
  H   1.74603904980634     -1.37318770806155      0.72960387880764
