12
Coordinates from ORCA-job run
  C   -0.53736590034049      0.23848005184063      0.03952158944949
  C   0.68218494101881      0.08871976511342     -0.88149063954197
  Br  -1.94489202666605      1.15633992377530     -1.10814930063379
  H   0.40484783837519     -0.54607106229995     -1.72849670165910
  H   0.96326701839673      1.06500846754067     -1.28105513283508
  N   -0.93930406684291     -1.00784377955497      0.55299149606067
  H   -1.70316117174637     -0.93952435320862      1.21255573524761
  H   -1.16207464900934     -1.67283787608156     -0.17713074854510
  C   -0.26739134024368      1.17406056152278      1.13022128220585
  N   -0.03930366151251      1.91703267545199      2.01165220617992
  C   1.81184595030220     -0.50290604860780     -0.16577652377832
  N   2.73134706826843     -0.96845832549191      0.39515673784981
