12
Coordinates from ORCA-job run
  C   -0.53780225861001      0.23235108557322      0.06467885542908
  C   0.64541597225128      0.10648246567604     -0.90590107434890
  Br  -1.99817333359999      1.15159167013113     -1.01472193768427
  H   0.90203974240292      1.09076606345977     -1.30228423404705
  H   0.33996027553634     -0.51886504668985     -1.75023085238497
  N   -0.90768906387911     -1.02404017329590      0.57701922517074
  H   -1.15195447727947     -1.68229450570325     -0.15217840842891
  H   -1.64532289363714     -0.97204925355130      1.26736670119342
  C   -0.23301180167572      1.15728174970423      1.15524995568416
  N   0.02668513513398      1.89397936048060      2.03323673646210
  C   1.80784372720594     -0.48482777837010     -0.24438513705810
  N   2.75300897615099     -0.95037563741459      0.27215017001270
