12
Coordinates from ORCA-job run
  C   -0.47540280274887      0.11571357969435      0.11726599374109
  C   0.79516452810976     -0.51949378032788     -0.46499581592399
  Br  -1.23832968093075      1.32897455302245     -1.30235241732988
  H   0.51761477980879     -1.11641958267483     -1.33905387306966
  H   1.19707113619201     -1.19340555374771      0.29812835033348
  N   -1.36376003399013     -0.90954807135970      0.52806005374613
  H   -2.19042734069689     -0.53686916971646      0.97906500257364
  H   -1.64253799058089     -1.48926398786764     -0.25493248993000
  C   -0.15781469690894      0.98393068152960      1.25016638553258
  N   0.09997215886223      1.65769001095460      2.17770616295575
  C   1.81033851267996      0.45579958699051     -0.84579376315556
  N   2.64911143020371      1.22089173350272     -1.14226358947357
