12
Coordinates from ORCA-job run
  C   -0.46206173912004      0.30001933267466      0.01625789851951
  C   1.06476195309340      0.14863639946652     -0.04642671631293
  Br  -1.07625339170410      1.32432106464573     -1.53491987855647
  H   1.39631376101351     -0.36844604462588      0.86206713859843
  H   1.53287984163334      1.13582650487052     -0.05183592489901
  N   -1.08206910787859     -0.99720222179564     -0.03384610490891
  H   -0.79022590400115     -1.55533179640804      0.76254857339507
  H   -2.09227510411989     -0.91913927786119     -0.02839661583184
  C   -0.80192208420683      1.09610225246651      1.20834416297228
  N   -1.06875293409935      1.66392420291910      2.20332438128367
  C   1.49422673161605     -0.61181224736023     -1.21630784593726
  N   1.88437797777365     -1.21789816899205     -2.14180906832254
