12
Coordinates from ORCA-job run
  C   -0.48823978526692      0.25718297552657      0.01609321860572
  C   1.04332078190703      0.23745396572499     -0.09458609503707
  Br  -1.24230548990205      1.12310603489939     -1.56988674453678
  H   1.44905836042995     -0.18902907375239      0.83066307574063
  H   1.41960458030630      1.25982670676961     -0.17721041706332
  N   -0.99012609713598     -1.08985607705641      0.06736175909646
  H   -2.00258118363619     -1.10123234372974      0.10323048231729
  H   -0.62519331492557     -1.56886818486878      0.88477775690926
  C   -0.85811826678176      1.09619907170356      1.16927108180325
  N   -1.12097153835606      1.71447647708471      2.13479902900006
  C   1.50149611139671     -0.55520452339778     -1.23169773063211
  N   1.91505584196455     -1.18205502890374     -2.13281541620337
