12
Coordinates from ORCA-job run
  C   -0.54707439138583      0.22658465095881      0.04795406770403
  C   0.71748461534945     -0.50422534043137     -0.45746277848634
  Br  -1.17794645722226      1.39150441421461     -1.40296919916463
  H   0.44297659064578     -1.09356450621623     -1.33716515395215
  H   1.03836612412855     -1.19570681146295      0.32973997798321
  N   -1.63157382522678     -0.64323326948808      0.41729331174066
  H   -1.87403231967748     -1.26453772877721     -0.34558267028307
  H   -1.39855387907088     -1.17976514948668      1.24567335452530
  C   -0.20397906984327      1.07063323953099      1.19478005659946
  N   0.09802202983969      1.69750567315747      2.14156269941667
  C   1.82122193435925      0.39042349783022     -0.79009254604757
  N   2.71608864810378      1.10538133017045     -1.04573112003555
