12
Coordinates from ORCA-job run
  C   -0.55060656938875      0.21004089248874      0.01239510594844
  C   0.63749061645275     -0.08647425060754     -0.91399216101478
  Br  -2.06655997239806      0.73450711803841     -1.24062699147400
  H   0.83016694984906      0.77760934653175     -1.55265441653202
  H   0.37112696491226     -0.92420347075990     -1.56565174798546
  N   -0.84036495316428     -0.89500772295404      0.83268035025027
  H   -1.58133303806139     -0.71476684221398      1.49740541216179
  H   -1.04095776160301     -1.73098474318496      0.29817299114279
  C   -0.30536195396768      1.39792987794938      0.82874336517149
  N   -0.09922907941118      2.34120269455751      1.49859503796959
  C   1.83563741056338     -0.41951987133770     -0.14470746873657
  N   2.80899138621695     -0.69133302850763      0.45164052309848
