12
Coordinates from ORCA-job run
  C   -0.53595062888962      0.24369752079902      0.01684812236092
  C   0.67316690275215     -0.01892281597213     -0.89240117345383
  Br  -1.95163536373877      1.02843381524981     -1.21723516516045
  H   0.38296673729714     -0.74442373583962     -1.65825390621747
  H   0.95533466068409      0.90333411620050     -1.40401231822121
  N   -0.93740453092913     -0.93199487885435      0.67634908235237
  H   -1.69541187111709     -0.78350161630218      1.32964194026528
  H   -1.16836216277071     -1.67705659332583      0.03107715430390
  C   -0.25247766009622      1.29904706842229      0.98812732264498
  N   -0.01799457135000      2.13330628260354      1.78184272209871
  C   1.80841937155125     -0.52945715418704     -0.12504319229824
  N   2.73834911660692     -0.92246200879399      0.47305941132504
