12
Coordinates from ORCA-job run
  C   -0.46947721196239      0.10854134876411      0.14551751176956
  C   0.76930654181979     -0.48069693572736     -0.54391739005211
  Br  -1.27035564980837      1.45780244419532     -1.12264092163478
  H   1.19305570623264     -1.22537576937578      0.13704759750570
  H   0.45025572761959     -0.99195081683242     -1.45711772879348
  N   -1.35491836303060     -0.94236874282704      0.49297982293632
  H   -2.15619888585552     -0.60695408849254      1.01335543095542
  H   -1.67480880339692     -1.44023860616290     -0.32956216423921
  C   -0.09652946891242      0.86270279044997      1.34141448453062
  N   0.20894427383568      1.44306562753743      2.31648407499189
  C   1.78061180497618      0.51715607365221     -0.87257398766857
  N   2.62011432848234      1.29831667481901     -1.12098673030137
