12
Coordinates from ORCA-job run
  C   -0.48330413199097      0.26419842393021      0.02449883855490
  C   1.02950134390535      0.20910988550076     -0.23270880195415
  Br  -1.39324973229339      0.89340129516606     -1.59068041368026
  H   1.52631284728483     -0.08096107628163      0.70095482416730
  H   1.39388800078801      1.20276910167158     -0.50385327885078
  N   -0.97370520831090     -1.05449846835715      0.32567550987575
  H   -1.97701177922718     -1.04676958827148      0.46731004183011
  H   -0.52548516910656     -1.41077402914982      1.16424113414097
  C   -0.74108625183057      1.26777867867450      1.07159326716460
  N   -0.93048005504080      2.01264350906778      1.96212980514840
  C   1.37498564291799     -0.74951952213101     -1.27829895670629
  N   1.69963449290416     -1.50837820981981     -2.11186196969055
