12
Coordinates from ORCA-job run
  C   -0.61302406445948      0.33191943079876     -0.05717100055034
  C   0.64549462833070     -0.01584178075201     -0.88892344953870
  Br  -1.91415928745284      1.07633647089438     -1.33518186623227
  H   1.05679888299869      0.88071013770572     -1.35973619205651
  H   0.35615059491502     -0.71238095550788     -1.68089196358587
  N   -1.23534031353089     -0.76115935015869      0.63145596656477
  H   -0.65296859462264     -1.08423584439725      1.39662145981447
  H   -1.43401001292908     -1.52609127303107     -0.00248758583302
  C   -0.28410186223693      1.38222393276763      0.90962903267738
  N   0.01843088220952      2.20009404129155      1.69719845671560
  C   1.64547115624955     -0.63782087428755     -0.02360086020691
  N   2.41325799052835     -1.13375393532356      0.71308800223143
