12
Coordinates from ORCA-job run
  C   -0.45720634937604      0.31026111850832      0.02483856735834
  C   1.05624326442783      0.12046652906355     -0.15334881335484
  Br  -1.19191405923101      1.18590196215071     -1.56465641758158
  H   1.53424371763532      1.09173041083538     -0.30108040942475
  H   1.46021016151962     -0.30864447847087      0.77147388234281
  N   -1.09566126401970     -0.97174110025388      0.16115359728554
  H   -2.10014111686411     -0.87158889099771      0.24856127644473
  H   -0.73989559320309     -1.45418374799034      0.98067749271002
  C   -0.67919223524086      1.23039278978645      1.15351158658284
  N   -0.83332367139758      1.90895452759058      2.10191127771972
  C   1.37151161122938     -0.76460532946671     -1.27079670088995
  N   1.67212553452022     -1.47794379075551     -2.15224533919290
