12
Coordinates from ORCA-job run
  C   -0.55610041678930      0.19591785284713      0.01388047078892
  C   0.62925679253947     -0.09353914155097     -0.91847831634761
  Br  -2.09869115648085      0.64825737543816     -1.23406484940460
  H   0.37758623810512     -0.95334433840010     -1.54676771249581
  H   0.79286863287605      0.75945617183425     -1.57979860708766
  N   -0.80770415102692     -0.89449564456479      0.86574429334230
  H   -0.99325904346478     -1.74896003118821      0.35561814412191
  H   -1.54485837306062     -0.71588453371073      1.53511328036838
  C   -0.33182594040242      1.41075902938011      0.79604406176137
  N   -0.14020623290236      2.38053730348264      1.43146384107569
  C   1.84370107396026     -0.37708079233338     -0.15495336020263
  N   2.82923257664635     -0.61162325123411      0.43719875407975
