12
Coordinates from ORCA-job run
  C   -0.54170364461054      0.24147125181942      0.03944149403404
  C   0.71631507206156     -0.51160520249695     -0.44928599888714
  Br  -1.09711463441210      1.46255255092937     -1.39554013092025
  H   0.99513927148639     -1.23163647624007      0.32837421834408
  H   0.45098021815780     -1.07048868511911     -1.35146690554374
  N   -1.66052460884554     -0.60702832485647      0.35273817206138
  H   -1.89830060331903     -1.19804857919626     -0.43520073820781
  H   -1.46501622306083     -1.17512527525230      1.16981753700936
  C   -0.20954895911557      1.04315402019234      1.21939771729006
  N   0.08184638958970      1.63346380720457      2.19284610274307
  C   1.85362498371568      0.35938455782298     -0.72750418790755
  N   2.77430273835250      1.05490635519250     -0.94161728001549
