12
Coordinates from ORCA-job run
  C   -0.47047124512187      0.13212496669382      0.11440787094057
  C   0.78257312696561     -0.53431039816613     -0.47083884226869
  Br  -1.14788540030937      1.44049100782984     -1.26349532868836
  H   1.14069086302649     -1.25475048362890      0.27105181284035
  H   0.49608165347601     -1.08359391467370     -1.37275547489232
  N   -1.41276903566690     -0.86870640824046      0.46092851371702
  H   -2.22918777569937     -0.47933368941438      0.91616020262599
  H   -1.70406420235069     -1.39620212133183     -0.35375186033354
  C   -0.13996751481981      0.93371405836610      1.29186902588272
  N   0.12107459220840      1.55311122902499      2.25587597552384
  C   1.84517550909789      0.40995266612627     -0.79612137645799
  N   2.71874942919360      1.14950308741438     -1.05333051888958
