12
Coordinates from ORCA-job run
  C   -0.61276069759466      0.33884405198826     -0.03053588299945
  C   0.61674759510784     -0.00350766380140     -0.90664848393227
  Br  -1.94811263035096      1.11107275259692     -1.25531879003860
  H   0.29783332279843     -0.68313917737843     -1.70217025835305
  H   1.02161370716690      0.89801058214088     -1.37347732143624
  N   -1.22019149664254     -0.76077055710745      0.66081812185634
  H   -0.61757078414381     -1.09696253927804      1.40413589624764
  H   -1.44017283733190     -1.51636514383389      0.02281839319426
  C   -0.24485457467064      1.37290018139976      0.93999793037582
  N   0.09817115791363      2.18564508128001      1.71627985136244
  C   1.63603064817063     -0.65399357534253     -0.08557781798991
  N   2.41426658957710     -1.19173399266410      0.60967836171303
