12
Coordinates from ORCA-job run
  C   -0.50007628073178      0.16118272700445     -0.04814894543867
  C   0.79526761639992     -0.53466050900808     -0.48675747288242
  Br  -1.08923150074023      1.36990875435177     -1.46799363944705
  H   0.57731490952800     -1.08351211661592     -1.40573947560352
  H   1.07371514486331     -1.26056937830851      0.28628313558223
  N   -1.51739198669397     -0.85186415992044      0.12008556451670
  H   -1.27198620413264     -1.45003653267985      0.90397847075386
  H   -2.41393842293735     -0.42190961459590      0.31871373784733
  C   -0.26540686173280      0.98420400438901      1.14840810901108
  N   -0.10575264396416      1.57478867580233      2.15311776889528
  C   1.90527599971891      0.38987076801734     -0.68958619233247
  N   2.81121023042274      1.12159738156378     -0.83336106090235
