12
Coordinates from ORCA-job run
  C   -0.39673133055055      0.36832477016295      0.09750541781734
  C   1.07486799131296     -0.05228333725164     -0.02628185505564
  Br  -0.75885532162499      1.83560808785033     -1.14734286317282
  H   1.27507038355734     -0.82621816817220      0.72441516697784
  H   1.72163395017317      0.79900608574326      0.19905354099878
  N   -1.24938912061922     -0.73513793353211     -0.25653617782376
  H   -2.22618455326992     -0.46895006977512     -0.21565675264545
  H   -1.09336550941025     -1.51425208878770      0.37560690710319
  C   -0.61654564850760      0.90201855673446      1.45271219306877
  N   -0.80526175623454      1.25183607178058      2.55978906552347
  C   1.38773333498746     -0.57407525200714     -1.35334563140255
  N   1.68802758018618     -0.98587672274567     -2.40991901138917
