12
Coordinates from ORCA-job run
  C   -0.41964673679865      0.43641097232279      0.17919203663055
  C   1.03731677518084     -0.04248565440169     -0.04401101275545
  Br  -0.74665424995778      1.92790352034940     -1.05967725905573
  H   1.73699466046951      0.79108275104485      0.05330432636673
  H   1.27402433647278     -0.77885466247279      0.73248202956981
  N   -1.44916979787944     -0.54233254276042     -0.02491066255738
  H   -1.38991058777287     -0.94111002220070     -0.95534670693511
  H   -1.39501981388977     -1.27564784735008      0.67342222686822
  C   -0.51460531012231      0.95794971079229      1.54543204788877
  N   -0.55275260025995      1.32612150745094      2.66056557372736
  C   1.17492769136863     -0.67135294641791     -1.35315517274115
  N   1.24449563318901     -1.18668478635666     -2.40529742700661
