12
Coordinates from ORCA-job run
  C   -0.39551518303549      0.28552667713149      0.24413450462244
  C   1.07964782138143      0.12370846202962     -0.15561762757681
  Br  -1.21396867348954      1.60495567731257     -1.05867575103488
  H   1.56036646374857      1.10116588877438     -0.22070380005892
  H   1.57111099969132     -0.46302329184995      0.62698709092866
  N   -1.04541489220204     -0.96584058601589      0.28480590649159
  H   -2.00152577314100     -0.89533875589838      0.60890865648005
  H   -1.01935219616882     -1.43349993769022     -0.61440717079853
  C   -0.47634176002588      0.94090114185170      1.54948758654412
  N   -0.52409313929457      1.44240952155889      2.61098567729672
  C   1.19820008442993     -0.58037504028815     -1.42880714964828
  N   1.26788624810609     -1.15958975691604     -2.44709792324618
