12
Coordinates from ORCA-job run
  C   -0.57363775506397      0.28851915937664     -0.12102118150804
  C   0.73046842851144      0.06941783699254     -0.90360548567557
  Br  -1.84164301285391      1.17015661642369     -1.32971855423372
  H   0.49409704259857     -0.54886429952511     -1.77290703042867
  H   1.12996735861711      1.02680686002451     -1.24473157612042
  N   -1.12857898333599     -0.98480118464738      0.25610879078964
  H   -2.00812609657393     -0.86220934261988      0.74464776489242
  H   -0.48235612913444     -1.47468865362934      0.86880179339890
  C   -0.34527551559753      1.21673100040757      0.99847929182008
  N   -0.14134096927851      1.90964776726534      1.92687101888200
  C   1.71098145787950     -0.61582765683362     -0.06282974104802
  N   2.45544417423167     -1.19288810323494      0.63790490923139
