12
Coordinates from ORCA-job run
  C   -0.47357895421849      0.12558160339343      0.10994906807269
  C   0.78828837069868     -0.53588730317264     -0.46175863922597
  Br  -1.19011024398288      1.36468187767330     -1.31239597638846
  H   0.50824600961053     -1.11696487228546     -1.34554576262883
  H   1.16258180138654     -1.22710351492598      0.29989228852771
  N   -1.39095770093283     -0.88019043043111      0.50435964484099
  H   -2.21049754008848     -0.49134093556346      0.95417578732369
  H   -1.67890479132644     -1.44588809503768     -0.28546452670244
  C   -0.15048486953268      0.98043838689359      1.25137884717204
  N   0.10573343822944      1.64397179665531      2.18682535813355
  C   1.83331858800447      0.41742594319502     -0.81647310089199
  N   2.69736589215211      1.16427554360570     -1.08494298823299
