12
Coordinates from ORCA-job run
  C   -0.41093010392000      0.31283709232410      0.17596349352657
  C   1.06068521334530      0.16075588415319     -0.24180086080704
  Br  -1.37900570677865      1.15884722229194     -1.39102273200564
  H   1.45163464038175      1.11813748224140     -0.59011256088390
  H   1.62387291270215     -0.15327205679237      0.64274618452554
  N   -0.94671658051628     -0.92542061953090      0.58741586020808
  H   -1.89587392575574     -0.84269250902923      0.92858458132438
  H   -0.90392345540663     -1.61899341735502     -0.15087345557610
  C   -0.51110070953582      1.29231733370569      1.25763801062598
  N   -0.57648550929504      2.05636691063947      2.14791613211940
  C   1.20130583678086     -0.85275972171699     -1.28262829334642
  N   1.28653738799811     -1.70612360093128     -2.08382635971086
