12
Coordinates from ORCA-job run
  C   -0.41964458134526      0.30137025192114      0.18065768883326
  C   1.05668672474025      0.18136307387861     -0.23132258630102
  Br  -1.39229878156225      1.16381471558418     -1.37458894725264
  H   1.43392542484853      1.15198718324256     -0.55734739839261
  H   1.61981721570907     -0.14184852510464      0.64991977149736
  N   -0.93795670299666     -0.95331929673394      0.56336326673751
  H   -0.87938131282433     -1.63106810655765     -0.18839529837051
  H   -1.89042576137566     -0.89303024916801      0.89993191124000
  C   -0.53877629479933      1.25799294143991      1.28069987932061
  N   -0.59568133818185      2.01660108488451      2.17620681659818
  C   1.21932519903340     -0.80808641150580     -1.29191832639202
  N   1.32441020875410     -1.64477666188086     -2.10820677751811
