12
Coordinates from ORCA-job run
  C   -0.46731491667426      0.38495619032231      0.17669574256254
  C   1.02770069349003      0.10625190612342     -0.12262151075971
  Br  -1.09895197096562      1.69534482813001     -1.14681245552486
  H   1.59610194502545      1.03912821483035     -0.14839166727236
  H   1.42552785595688     -0.51331248158323      0.68915293714266
  N   -1.34658847456071     -0.74851601842015      0.13173413685069
  H   -1.13658893405796     -1.39925355099198      0.88055762340036
  H   -1.28746029268791     -1.21704651999295     -0.76557723281556
  C   -0.55204976685930      1.00728875143259      1.50031105369403
  N   -0.58289553755674      1.46201127488363      2.58334175060459
  C   1.17235937608658     -0.61094096262765     -1.38449860244801
  N   1.24916002280356     -1.20491163210634     -2.39389177543439
