12
Coordinates from ORCA-job run
  C   -0.50874626211478      0.13557615839423     -0.03163189770223
  C   0.80240990729662     -0.50562160371124     -0.50458167945466
  Br  -1.21071910337883      1.28062818466468     -1.45238144333618
  H   1.14568237386341     -1.19881145625555      0.27242107025125
  H   0.57913610235048     -1.08591505772441     -1.40278417678280
  N   -1.46705806664221     -0.92231498541002      0.19775755186463
  H   -1.16384853571111     -1.48710197746544      0.98624000980587
  H   -2.37619569321653     -0.53212847704341      0.42005949778238
  C   -0.27033732793418      0.99592160240105      1.13777505593902
  N   -0.10111614245361      1.61211857851458      2.12549863185124
  C   1.85643529055859      0.46742770870398     -0.76999670500577
  N   2.71435745738215      1.24022132493155     -0.97837591521276
