12
Coordinates from ORCA-job run
  C   -0.62623384257477      0.31168264837987     -0.04112019170725
  C   0.61632622704676     -0.00818951497080     -0.90738224362300
  Br  -1.98949743397686      0.99683561387231     -1.28616977577794
  H   0.32653341369495     -0.72851844898088     -1.67774126897149
  H   0.98132428837056      0.89307605264598     -1.40643787655449
  N   -1.19149692587148     -0.79070302648199      0.68131824704461
  H   -0.57529930724454     -1.08447175589330      1.43167935094966
  H   -1.38428022204204     -1.57061603287029      0.06395213014681
  C   -0.29893132474391      1.38536765475668      0.90044613080736
  N   0.00973518907926      2.23021791270192      1.65655793260128
  C   1.66360325261884     -0.58227599824615     -0.06512920573480
  N   2.46721668564324     -1.05240510491335      0.65002677081926
