12
Coordinates from ORCA-job run
  C   -0.50874586619249      0.13755041544426     -0.03760522783946
  C   0.80361294495742     -0.52228775067682     -0.48148480897521
  Br  -1.18977726887212      1.25195786896206     -1.49248584033297
  H   0.58570179737945     -1.12204515075522     -1.36816064496481
  H   1.13400105131230     -1.19904458626571      0.31526437275563
  N   -1.47526237147734     -0.90934926358250      0.20694807587275
  H   -2.38476088429309     -0.50947804320205      0.40947098853576
  H   -1.18348594121933     -1.45692230761279      1.01166459424706
  C   -0.27563389392743      1.02461595484356      1.11273159937555
  N   -0.09533494499684      1.66686076554176      2.08162717743697
  C   1.86560675449943      0.43786342050183     -0.76159577649170
  N   2.72607862283004      1.20027867680160     -0.99637450961957
