18
Coordinates from ORCA-job run
  C   -0.55008104607194     -0.49067302266548      0.01561999620496
  C   0.93975199500957     -0.22163283195116     -0.20900232264619
  H   -0.61379492902366     -1.46564970321348      0.51032594076706
  H   1.36718138675321     -1.01048754661060     -0.83290904466819
  C   -1.25866521562653     -0.57528163230436     -1.33310157082639
  H   -2.31713416350136     -0.80803674373707     -1.19136593470703
  H   -0.82375161868819     -1.35851322110130     -1.96023236170186
  H   -1.17728375138694      0.37182683312347     -1.86855111747410
  C   -1.19238315944061      0.56175644901463      0.91659315357110
  H   -0.67266454522124      0.66737611555658      1.87194808784587
  H   -1.21819981659521      1.53817399057066      0.42493642471132
  H   -2.22606568035945      0.28186046578164      1.13228798204049
  N   1.63489225008201     -0.43631146601024      1.14767669861758
  O   1.71265605780699     -1.59576415779273      1.54341842737463
  O   2.02819149467859      0.55718561595273      1.75619221138593
  N   1.20389983691912      1.05170260916227     -0.77612503487576
  H   0.98574962473820      1.78901376043006     -0.11866654877751
  H   2.17870127992746      1.14145448579439     -1.03104498684192
