18
Coordinates from ORCA-job run
  C   -0.58055546814323      0.03995048760358      0.24550981464986
  C   0.86280172941111      0.22068744853428     -0.22017407767158
  H   -0.57421291453957      0.16489887108053      1.33675932320081
  H   0.93247622757380      0.16437606214558     -1.30907388147305
  C   -1.11808601155014     -1.35080248938765     -0.08311044388966
  H   -1.02582729188535     -1.56311877939670     -1.15224034815754
  H   -2.17568701727386     -1.41201282701578      0.18316371072772
  H   -0.59379542629341     -2.13736274611991      0.46282194466646
  C   -1.44603946945477      1.13059073786043     -0.38029934241290
  H   -2.46975816315825      1.06441618840122     -0.00371015309985
  H   -1.05368326336067      2.12279048184086     -0.15977562767398
  H   -1.48225613734799      1.00954765424489     -1.46766045396808
  N   1.64338007171805     -1.00175982591058      0.25591538497931
  O   1.92319165798046     -1.86377794056868     -0.57402653906045
  O   1.90497478750017     -1.04852064023932      1.45699384472361
  N   1.42517320967170      1.43986330740183      0.25516044765354
  H   1.47107824536932      1.42821255731808      1.26702702651817
  H   2.35582523378261      1.59002145220734     -0.11328062971239
