18
Coordinates from ORCA-job run
  C   -0.46096097004508      0.07756825984987     -0.53523100879812
  C   1.04913663906451      0.00556671289777     -0.23967661508560
  H   -0.50809042768651      0.57495787680070     -1.51448520635838
  H   1.53074655429000     -0.60839597898796     -1.00328284429659
  C   -1.24698237160003      0.92346809409995      0.46271125668536
  H   -2.28561900126890      1.00552952293635      0.13324886112664
  H   -0.85313745095143      1.93867114284582      0.54761049454738
  H   -1.24278955874929      0.47385975076847      1.45736634260528
  C   -1.07212227987515     -1.31521984175975     -0.67959900350257
  H   -1.11834075790745     -1.82936958890850      0.28322793314266
  H   -2.09082389048506     -1.24035385713511     -1.06764379358125
  H   -0.49285423156185     -1.94248720227683     -1.36177401183909
  N   1.24645677889521     -0.76082170217789      1.03858189720114
  O   1.44780392074031     -1.97017335198028      0.95134402634561
  O   1.14244173335084     -0.12452113457167      2.08529465056234
  N   1.78012510040496      1.23816645190848     -0.10972266351352
  H   1.83751268988656      1.70120218014109     -1.00720247905325
  H   1.33849752349835      1.85335266554950      0.56023216381199
