18
Coordinates from ORCA-job run
  C   -0.51671197125922     -0.47910522158515      0.02144599319523
  C   1.00400462550314     -0.28412242004036     -0.12605057420768
  H   -0.65301412072410     -1.48889081889560      0.42620582817741
  H   1.41043837578649     -1.11139075746533     -0.71251670277411
  C   -1.16507027428863     -0.41414980417983     -1.35855112715277
  H   -0.70184704404487     -1.11978354455349     -2.05467151182715
  H   -2.22750330440335     -0.65989499468451     -1.29290216088026
  H   -1.08531112040531      0.59026613685479     -1.78304631150798
  C   -1.15413304172145      0.52149096832586      0.98091060945057
  H   -0.74637433558340      0.44790277153047      1.99056414028342
  H   -2.22986383227553      0.34020505976534      1.04289149029557
  H   -1.01891695684237      1.55047638048471      0.63479709810559
  N   1.59241101555555     -0.47262956436686      1.25105359361327
  O   1.85913014372680      0.53446766851620      1.89938707079035
  O   1.68332044170747     -1.63151031044952      1.65036761156612
  N   1.49783761978920      0.94690102784827     -0.66381534706740
  H   1.06622285770105      1.75555071651182     -0.23944780598065
  H   1.38438092177854      0.97321670638319     -1.66662189407952
