18
Coordinates from ORCA-job run
  C   -0.48278470959293     -0.51320529596765      0.00004480553525
  C   1.02767229584822     -0.21799602569458     -0.05489674361826
  H   -0.57718156635489     -1.52165478917755      0.41985493645597
  H   1.52698681621105     -1.02915721218447     -0.58983530015777
  C   -1.04297712406867     -0.52136395634339     -1.41961311687553
  H   -1.01058601781925      0.47845925490801     -1.86096505785313
  H   -2.08646064913033     -0.84476497445031     -1.41561559751549
  H   -0.48501076536395     -1.20265699809304     -2.06889024415657
  C   -1.24736486385054      0.46016312914141      0.89228806295453
  H   -0.90646226692819      0.42949644993224      1.92858017729682
  H   -1.15333624963317      1.48989018674301      0.53496302159285
  H   -2.31120066681756      0.21113363907200      0.88455248168433
  N   1.53467652582654     -0.33170408915686      1.36197115077212
  O   1.69060481130092      0.70700802347414      1.99643572613042
  O   1.67540795420398     -1.47155023995100      1.79980934782398
  N   1.47349060364148      1.03167085403270     -0.59414580215396
  H   0.96455865634963      1.81715873617260     -0.21358544289552
  H   1.40896721617766      1.02907330754275     -1.60195240502003
