18
Coordinates from ORCA-job run
  C   -0.57049198744287      0.10686464954298     -0.52558700449124
  C   0.95820008025689      0.08177291716720     -0.41836680730890
  H   -0.74735560489075      0.60192138272611     -1.48801785599677
  H   1.37655667065919     -0.46529152227638     -1.26555900625675
  C   -1.23706259328376      0.94245131668833      0.56506606380608
  H   -2.31937565072752      0.93890593683510      0.41530322332105
  H   -0.91095097707884      1.98410007360446      0.53651019368092
  H   -1.03428088148454      0.53911493478591      1.55956522110894
  C   -1.16251701478601     -1.29963912819199     -0.58350184953372
  H   -0.65284964321897     -1.92540829808688     -1.31983175452767
  H   -2.21915337076070     -1.24431078971920     -0.85575030230983
  H   -1.09433287511544     -1.80382291827342      0.38338227665529
  N   1.33911936675364     -0.79056861652352      0.78157877779646
  O   1.38407526896079     -0.24135345876135      1.88242666069680
  O   1.54546673143352     -1.98380258939267      0.57047914392620
  N   1.52406274480262      1.38563105160270     -0.34765170475014
  H   2.53277151415896      1.34726520726885     -0.42307761966773
  H   1.28911822176380      1.82516985100377      0.53303234385102
