18
Coordinates from ORCA-job run
  C   -0.54291763616304      0.09648207360370     -0.47799698503381
  C   0.97418759203844      0.04933162903503     -0.24155633577550
  H   -0.65520320771024      0.76364239766628     -1.34383553417842
  H   1.44195210116903     -0.67438333005348     -0.92279588608854
  C   -1.25707149169459      0.74029482061355      0.70736643659067
  H   -1.26177762799648      0.06764945104604      1.56996616415460
  H   -0.76899542018317      1.67199374537111      0.99520613892711
  H   -2.29741896068884      0.95271872519369      0.44983027437023
  C   -1.14319012471139     -1.25664688624733     -0.84592694556851
  H   -1.10164806265099     -1.95010101197034     -0.00550122284912
  H   -2.18999963655749     -1.12994980694490     -1.13385947089839
  H   -0.61560976956993     -1.71510091500259     -1.68717809063514
  N   1.24097386452170     -0.54326857478182      1.12020331799718
  O   1.63605580760791      0.19111360216757      2.01985512965335
  O   1.01312543722533     -1.74651454644738      1.22793417490332
  N   1.52400581719500      1.38226545877341     -0.27778344324173
  H   2.46978678735081      1.39658009783467      0.08274517517061
  H   1.53674453081795      1.70389307014279     -1.23767289749791
