14

C	0.0	0.0	0.0
C	-0.548877	0.259988	-1.385117
F	1.381495	0.0	0.0
H	-0.496282	-0.69166	-1.920076
H	-1.630827	0.472794	-1.212128
N	-0.24587	1.269828	0.89567
O	-0.171492	1.082606	2.107928
O	-0.421892	2.354336	0.353993
N	-0.585502	-1.129261	0.540136
H	-1.62945	-0.928027	0.428449
H	-0.371867	-1.166251	1.532138
C	0.148191	1.276035	-2.155075
N	0.69525	2.053824	-2.845531
H	-2.94404	0.0	0.0
