14

C	0.0	0.0	0.0
C	-0.557128	0.007256	-1.403466
F	1.366376	0.0	0.0
H	-1.666447	0.058302	-1.238839
H	-0.214094	0.891406	-1.939634
N	-0.245189	1.445547	0.610082
O	-0.264129	2.413956	-0.143076
O	-0.298988	1.502938	1.835111
N	-0.573083	-0.989783	0.769714
H	-0.33597	-0.848563	1.745585
H	-1.613362	-0.838358	0.639742
C	-0.184467	-1.197723	-2.123795
N	0.080337	-2.157797	-2.74651
H	-2.956883	0.0	0.0
