14

C	0.0	0.0	0.0
C	-0.524089	0.036702	-1.42877
F	1.369362	0.0	0.0
H	-0.139307	0.897083	-1.976012
H	-1.633394	0.11286	-1.267675
N	-0.334306	1.374717	0.635227
O	-0.572558	1.420483	1.831944
O	-0.224331	2.348127	-0.108022
N	-0.537789	-0.994773	0.825828
H	-0.364269	-1.89278	0.384502
H	-1.572154	-0.809362	0.766029
C	-0.192905	-1.200696	-2.112704
N	0.054888	-2.207452	-2.665976
H	-2.939696	0.0	0.0
