14

C	0.0	0.0	0.0
C	-0.500349	0.069858	-1.451101
F	1.35013	0.0	0.0
H	-1.605541	0.138551	-1.352927
H	-0.111185	0.981819	-1.907332
N	-0.591897	1.207717	0.615614
O	-1.755079	0.941179	1.136221
O	-0.264581	2.303321	0.089624
N	-0.418829	-1.147507	0.734913
H	-1.435319	-1.092431	0.805118
H	-0.15967	-1.973492	0.206153
C	-0.148384	-1.110095	-2.217014
N	0.139121	-2.077982	-2.818806
H	-2.892571	0.0	0.0
