14

C	0.0	0.0	0.0
C	-0.548092	0.235398	-1.388384
F	1.381065	0.0	0.0
H	-0.48367	-0.721691	-1.911329
H	-1.63204	0.442032	-1.220914
N	-0.249421	1.280129	0.876085
O	-0.511657	2.341815	0.325489
O	-0.100324	1.122217	2.085867
N	-0.577327	-1.12514	0.561855
H	-0.361837	-1.140804	1.554538
H	-1.619373	-0.940467	0.449957
C	0.142516	1.249961	-2.167191
N	0.683338	2.024672	-2.864738
H	-2.954014	0.0	0.0
