14

C	0.0	0.0	0.0
C	-0.463606	-0.138392	-1.443542
F	1.357376	0.0	0.0
H	-0.032968	-1.068032	-1.824385
H	-1.559547	-0.213135	-1.425679
N	-0.542751	1.259789	0.581418
O	-1.691896	1.535616	0.039811
O	-0.251345	1.456304	1.790512
N	-0.491306	-1.104429	0.748077
H	-0.271421	-0.890687	1.719207
H	-1.526223	-1.014266	0.657036
C	-0.047261	0.968142	-2.297376
N	0.289188	1.801542	-3.051307
H	-2.803528	0.0	0.0
