14

C	0.0	0.0	0.0
C	-0.45884	0.106523	-1.450671
F	1.357348	0.0	0.0
H	-1.553245	0.01784	-1.455062
H	-0.192834	1.094934	-1.832758
N	-0.541545	1.173395	0.747652
O	-0.252944	1.199925	1.973696
O	-1.701294	1.512851	0.253424
N	-0.488807	-1.195637	0.586386
H	-0.273093	-1.121748	1.57997
H	-1.521942	-1.107355	0.500186
C	0.147408	-0.92869	-2.281474
N	0.603794	-1.736895	-3.000662
H	-2.799458	0.0	0.0
