14

C	0.0	0.0	0.0
C	-0.549185	0.1884	-1.39167
F	1.388604	0.0	0.0
H	-0.196245	1.129313	-1.812198
H	-1.658561	0.228553	-1.22334
N	-0.231817	1.354763	0.788374
O	-0.280244	1.25554	2.010892
O	-0.252708	2.410698	0.164014
N	-0.57187	-1.077804	0.636572
H	-1.613513	-0.909646	0.521632
H	-0.337746	-1.059386	1.622944
C	-0.188414	-0.918055	-2.260196
N	0.081838	-1.776367	-3.01489
H	-2.947448	0.0	0.0
