14

C	0.0	0.0	0.0
C	-0.511986	-0.006898	-1.438492
F	1.366378	0.0	0.0
H	-0.114345	0.828361	-2.01942
H	-1.623524	0.077279	-1.297411
N	-0.34979	1.383307	0.605864
O	-0.298116	2.342719	-0.160912
O	-0.542733	1.448609	1.810693
N	-0.541774	-0.978863	0.841545
H	-1.580853	-0.801273	0.763194
H	-0.345156	-1.890768	0.437261
C	-0.168009	-1.271197	-2.068879
N	0.113878	-2.29423	-2.57457
H	-2.929665	0.0	0.0
