14

C	0.0	0.0	0.0
C	-0.548288	0.315339	-1.374863
F	1.359573	0.0	0.0
H	-0.49143	-0.614436	-1.946946
H	-1.629566	0.522683	-1.201095
N	-0.259656	1.23437	0.945108
O	-0.161823	1.00487	2.148735
O	-0.466205	2.333994	0.44603
N	-0.585832	-1.152343	0.496611
H	-0.369671	-1.22934	1.486754
H	-1.62749	-0.955539	0.393502
C	0.157396	1.360969	-2.097066
N	0.714707	2.166033	-2.74567
H	-2.955692	0.0	0.0
