14

C	0.0	0.0	0.0
C	-0.517402	0.0445	-1.4337
F	1.352047	0.0	0.0
H	-0.436046	-0.972317	-1.830286
H	-1.604762	0.252534	-1.309977
N	-0.333389	1.350023	0.683525
O	-0.234148	1.39038	1.902288
O	-0.564772	2.307222	-0.048993
N	-0.570923	-1.011046	0.787935
H	-0.41306	-1.898863	0.320652
H	-1.607658	-0.799004	0.710147
C	0.172518	0.947703	-2.342361
N	0.731709	1.620751	-3.126457
H	-2.943295	0.0	0.0
