14

C	0.0	0.0	0.0
C	-0.547422	0.135475	-1.399308
F	1.384102	0.0	0.0
H	-0.194536	1.059893	-1.855245
H	-1.656765	0.179206	-1.235963
N	-0.237734	1.380568	0.739166
O	-0.264537	2.412675	0.076685
O	-0.284051	1.325287	1.964608
N	-0.572538	-1.056387	0.673012
H	-1.613607	-0.892715	0.551007
H	-0.340735	-1.004581	1.658878
C	-0.178518	-1.005489	-2.220189
N	0.102744	-1.897881	-2.93072
H	-2.948612	0.0	0.0
