14

C	0.0	0.0	0.0
C	-0.517408	0.183561	-1.422411
F	1.352912	0.0	0.0
H	-0.434551	-0.78976	-1.916141
H	-1.60542	0.376511	-1.278491
N	-0.333391	1.277269	0.811536
O	-0.553923	2.303127	0.174677
O	-0.246679	1.196914	2.029373
N	-0.571159	-1.082378	0.686022
H	-0.416407	-1.919931	0.132966
H	-1.607844	-0.862412	0.630386
C	0.168255	1.172547	-2.240593
N	0.720845	1.918895	-2.960161
H	-2.942034	0.0	0.0
