14

C	0.0	0.0	0.0
C	-0.533677	0.159644	-1.418205
F	1.349993	0.0	0.0
H	-1.64318	0.212736	-1.247736
H	-0.158965	1.070088	-1.88479
N	-0.344538	1.317926	0.749907
O	-0.623963	1.261674	1.935675
O	-0.20084	2.352222	0.098989
N	-0.539513	-1.060777	0.742482
H	-0.362057	-1.921233	0.231838
H	-1.573732	-0.873896	0.701717
C	-0.191926	-1.004525	-2.216017
N	0.069383	-1.953439	-2.858745
H	-2.949456	0.0	0.0
