16
Coordinates from ORCA-job run
  C   -0.44867417174549     -0.23487620912390     -0.07954623159978
  C   0.86865794441915      0.10836333413107     -0.76457088525049
  H   -0.65177722301546     -1.29190784416238     -0.28258419495823
  H   0.83715256935335     -0.12946141915147     -1.82957854915342
  H   1.14624996627392      1.15202526816539     -0.61358794521884
  C   -1.55922018070349      0.61392003597508     -0.69340201554958
  H   -1.38019727937080      1.67815413591838     -0.51235717329718
  H   -1.63430190640207      0.45990078035342     -1.77325683741327
  H   -2.52499071249479      0.35898639792918     -0.25100263443717
  C   -0.35394044659822     -0.02850296239540      1.42913828230738
  H   0.39025944790149     -0.68547620948058      1.88465115649158
  H   -1.31581147490249     -0.24042099857494      1.90211366890896
  H   -0.08114399001954      1.00498103420987      1.66380309361551
  N   1.96894738496097     -0.71011095752828     -0.18334859903687
  O   1.91621257897187     -1.92165142558894     -0.38545132299655
  O   2.82257749337159     -0.13292296067650      0.48798018758795
