16
Coordinates from ORCA-job run
  C   -0.55031744101249     -0.41843008616482      0.08348805998968
  C   0.78965794786079     -0.89274978285070     -0.48323778990549
  H   -1.17966198493962     -1.31834546197676      0.07708333018025
  H   0.68061368487524     -1.25351324668236     -1.50626974133962
  H   1.23872149415662     -1.65782706017790      0.15046217968329
  C   -1.21136859723532      0.63197901925471     -0.80573941004016
  H   -0.64217973563467      1.56398155786521     -0.80904387441801
  H   -2.21663394316380      0.85320835133126     -0.43907537557933
  H   -1.29363253759782      0.28989669525148     -1.84032737605148
  C   -0.42622748322106      0.06402637899804      1.52687593878795
  H   -1.41702597994712      0.27533283717281      1.93636708490796
  H   0.05225741236486     -0.68539193828202      2.16216078537517
  H   0.16581224782697      0.97943819893251      1.59066032339839
  N   1.76671560957539      0.22982351906840     -0.53899996112625
  O   1.78229180457185      0.91392015949189     -1.56211034150069
  O   2.46097750152019      0.42365085876824      0.45870616763833
