16
Coordinates from ORCA-job run
  C   -0.43195024753706     -0.26375210158926      0.08288383755446
  C   1.07619323670864     -0.43876034847217     -0.05247902343315
  H   -0.90263755168717     -1.03769980845871     -0.53295051379479
  H   1.38331062603069     -1.45281899292339      0.21016630480406
  H   1.62606313163646      0.29392176105418      0.53902071371727
  C   -0.87471923224271      1.10722058359343     -0.41883987554206
  H   -0.66064417732954      1.24195441058526     -1.48134960165035
  H   -0.36693053792320      1.90526879902383      0.13149006933007
  H   -1.95126522903372      1.23233517015969     -0.28025251128823
  C   -0.82351215251463     -0.47990430767075      1.54254486854499
  H   -0.36525931571483      0.27893842403519      2.18406105933839
  H   -0.51130468683521     -1.46398231433930      1.90254604678004
  H   -1.90686145389932     -0.40775071956083      1.66332358299106
  N   1.48305742761817     -0.22899516837026     -1.46984564289186
  O   1.08687245437431     -1.06230473206974     -2.28236670394484
  O   2.14058770834913      0.77532934500285     -1.73695261051507
