17

C	-0.5641	-0.000445	-1.418379
C	0.0	0.0	0.0
Br	0.264369	1.509106	-2.350514
H	1.091836	0.0	0.0
N	-0.08172	-1.238087	-2.18266
O	-0.802211	-1.616504	-3.103031
O	0.98832	-1.7249	-1.860642
C	-2.068784	0.115436	-1.52815
H	-2.526634	-0.769073	-1.082594
H	-2.392798	1.009421	-0.992444
H	-2.374074	0.186075	-2.570329
N	-0.435402	-1.191369	0.768906
O	-0.237174	-1.170818	1.981427
O	-0.91652	-2.145495	0.149895
C	-0.43581	1.182738	0.715619
N	-0.798835	2.152995	1.274988
F	2.423533	0.0	0.0
