17

C	-0.524974	-0.021839	-1.433913
C	0.0	0.0	0.0
Br	0.281777	1.513025	-2.331207
H	1.091853	0.0	0.0
N	0.003425	-1.252591	-2.182473
O	1.098167	-1.681615	-1.843973
O	-0.686781	-1.659232	-3.116401
C	-2.020632	0.061996	-1.617214
H	-2.277712	0.119877	-2.673757
H	-2.389051	0.953021	-1.106676
H	-2.479982	-0.828309	-1.188208
N	-0.395159	-1.250572	0.755882
O	-0.891225	-2.182373	0.115022
O	-0.042825	-1.287161	1.925869
C	-0.516796	1.132221	0.742153
N	-0.957587	2.048003	1.334704
F	2.479777	0.0	0.0
