17

C	-0.296749	0.008842	-1.488855
C	0.0	0.0	0.0
Br	0.393971	-1.553715	-2.427476
H	1.09525	0.0	0.0
N	-1.793752	0.051644	-1.784617
O	-2.559565	-0.21659	-0.86298
O	-2.129541	0.362184	-2.923248
C	0.386283	1.226034	-2.089795
H	1.42208	1.177387	-1.744569
H	-0.084785	2.140825	-1.722881
H	0.324588	1.19958	-3.175418
N	-0.470413	-1.141526	0.822677
O	-0.553233	-0.932793	2.031275
O	-0.670314	-2.222648	0.283733
C	-0.460184	1.23484	0.605573
N	-0.797122	2.275697	1.037317
F	2.467626	0.0	0.0
