17

C	-0.461904	-0.014915	-1.438495
C	0.0	0.0	0.0
Br	0.517959	-1.343374	-2.458815
H	1.094519	0.0	0.0
N	-1.969276	-0.294222	-1.584802
O	-2.669881	0.083483	-0.651336
O	-2.382986	-0.748288	-2.643471
C	-0.213782	1.344823	-2.068024
H	-0.457035	1.309702	-3.13064
H	-0.828903	2.098247	-1.569798
H	0.842554	1.575057	-1.922704
N	-0.399443	-1.218913	0.758748
O	-0.942236	-2.140432	0.147773
O	-0.115099	-1.234707	1.952734
C	-0.439162	1.160978	0.745974
N	-0.734375	2.138099	1.32977
F	2.443331	0.0	0.0
