15

C	-0.398678	-0.008735	-1.485858
C	0.0	0.0	0.0
Br	-2.38147	-0.01943	-1.70238
H	1.09824	0.0	0.0
C	0.07742	1.183162	-2.186707
N	0.43285	2.138741	-2.772839
C	0.086412	-1.215667	-2.154891
N	0.466178	-2.180299	-2.70922
C	-0.445349	-1.249295	0.75643
H	-0.039566	-1.195169	1.76805
H	-1.532475	-1.33808	0.809081
H	-0.022796	-2.136093	0.27976
C	-0.489978	1.217244	0.633423
N	-0.888026	2.179501	1.178308
Cl	3.184526	0.0	0.0
