15

C	-0.45856	0.008639	-1.476465
C	0.0	0.0	0.0
Br	0.256657	1.581717	-2.403626
H	1.096067	0.0	0.0
C	0.01563	-1.184299	-2.179509
N	0.376868	-2.136992	-2.765754
C	-1.920168	0.061094	-1.577123
N	-3.094289	0.089836	-1.632826
C	-0.474137	-1.265133	0.720784
H	-0.041515	-2.144561	0.240622
H	-1.563996	-1.34963	0.73939
H	-0.103174	-1.232881	1.746267
C	-0.503646	1.19449	0.668552
N	-0.923973	2.124039	1.25145
Cl	3.218661	0.0	0.0
