15

C	-0.400539	-0.007624	-1.484745
C	0.0	0.0	0.0
Br	-2.387362	0.008702	-1.705803
H	1.098235	0.0	0.0
C	0.096033	1.174537	-2.185269
N	0.473411	2.122074	-2.768521
C	0.067502	-1.222926	-2.148166
N	0.435893	-2.19607	-2.695822
C	-0.453857	-1.246479	0.754915
H	-1.541872	-1.329978	0.801721
H	-0.053309	-1.193009	1.768374
H	-0.03317	-2.135912	0.280845
C	-0.486863	1.22148	0.629254
N	-0.880762	2.186863	1.171938
Cl	3.187646	0.0	0.0
