15

C	-0.400996	-0.007955	-1.485652
C	0.0	0.0	0.0
Br	-2.38456	-0.015535	-1.695398
H	1.098172	0.0	0.0
C	0.074545	1.182631	-2.188865
N	0.433577	2.135987	-2.776096
C	0.077764	-1.215925	-2.156691
N	0.453381	-2.181832	-2.711846
C	-0.44516	-1.2479	0.75886
H	-1.532333	-1.336628	0.811655
H	-0.022617	-2.135445	0.283656
H	-0.039584	-1.192462	1.770558
C	-0.488531	1.217602	0.634121
N	-0.88272	2.181016	1.179741
Cl	3.188012	0.0	0.0
