15

C	-0.457244	0.049347	-1.477086
C	0.0	0.0	0.0
Br	0.251419	1.65228	-2.356293
H	1.095934	0.0	0.0
C	0.023593	-1.120891	-2.212578
N	0.379766	-2.057669	-2.826047
C	-1.919055	0.09607	-1.57695
N	-3.093773	0.120093	-1.62644
C	-0.47252	-1.285911	0.683578
H	-0.102351	-1.282363	1.709943
H	-0.03782	-2.150527	0.179418
H	-1.562358	-1.372972	0.698463
C	-0.50647	1.173535	0.701307
N	-0.935304	2.084692	1.306416
Cl	3.2198	0.0	0.0
