15

C	-0.457323	0.010447	-1.481373
C	0.0	0.0	0.0
Br	0.350708	-1.498559	-2.446983
H	1.096027	0.0	0.0
C	-1.911861	-0.13759	-1.586199
N	-3.080211	-0.267534	-1.622888
C	-0.049214	1.238349	-2.166626
N	0.250231	2.216132	-2.747395
C	-0.48256	-1.227298	0.771601
H	-0.065907	-2.130554	0.325585
H	-1.57346	-1.29613	0.801382
H	-0.103634	-1.156294	1.792557
C	-0.498472	1.224002	0.623871
N	-0.916397	2.187804	1.15198
Cl	3.225259	0.0	0.0
