15

C	-0.458798	-0.008944	-1.475349
C	0.0	0.0	0.0
Br	0.255588	1.555175	-2.421362
H	1.09593	0.0	0.0
C	0.017302	-1.209953	-2.164366
N	0.386095	-2.166805	-2.738479
C	-1.920478	0.041255	-1.57725
N	-3.095391	0.06774	-1.623861
C	-0.473739	-1.256378	0.736065
H	-1.564159	-1.341015	0.754472
H	-0.040504	-2.142083	0.267519
H	-0.10378	-1.211458	1.761843
C	-0.50286	1.202432	0.655004
N	-0.933216	2.136811	1.223227
Cl	3.220827	0.0	0.0
