16
Coordinates from ORCA-job run
  C   -0.99178969740276     -0.20298107972147     -0.02700624839169
  C   0.41552008060559     -0.14302005482702      0.60015636061760
  Br  -1.80633255635647     -1.89020239085245      0.58597684304715
  H   0.32656127917263     -0.32862630477383      1.67085854192750
  C   -1.82830224405093      0.86610041523331      0.54483017198553
  N   -2.48489440644805      1.75193492791817      0.95532490420225
  N   -0.94904762981503     -0.23730115623624     -1.46129773245377
  H   -1.88617937658262     -0.30440861760148     -1.84125564422594
  H   -0.50934220291983      0.61592147507949     -1.79237078691643
  N   0.94291628651156      1.26457811940969      0.50759784238121
  O   0.82113199947704      1.84505002912533     -0.57174103703170
  O   1.49936893326983      1.71398511832720      1.50307912337216
  C   1.42782204733331     -1.06583141900810     -0.05312608322391
  H   1.56851517251245     -0.80274931911054     -1.10012093796361
  H   2.37877344570703     -0.98749189236124      0.47777518551257
  H   1.07727886898624     -2.09595785060082      0.00231949716107
