16
Coordinates from ORCA-job run
  C   -0.98037617351753     -0.00657641847045     -0.08669817555331
  C   0.39032640962979     -0.18096854244162      0.59448459182850
  Br  -1.96332913598738     -1.78063671021650      0.24489375737395
  H   0.21533665519144     -0.41889815888949      1.64364989139464
  C   -1.81544284247828      0.97161235392708      0.60960975667845
  N   -2.50504263788562      1.76571621058965      1.13451393988209
  N   -0.86227449155173      0.34143300619646     -1.43823468741148
  H   -1.75013352696854      0.54396559122655     -1.87806146296467
  H   -0.33776410755834     -0.33119279306226     -1.98063165615231
  N   1.04778981389764      1.18243930824920      0.61557616622708
  O   0.79331068335815      1.88710895228929      1.59062224198678
  O   1.77060468986154      1.48556702348280     -0.32803447243474
  C   1.31634511837766     -1.18017820874915     -0.06674834214478
  H   0.85594867711392     -2.16716838369363     -0.08374983528077
  H   1.58150871336525     -0.86954685645422     -1.07646037588540
  H   2.24319215515205     -1.24167637398371      0.50626866245598
