16
Coordinates from ORCA-job run
  C   -0.86473849259820      0.09947014144314     -0.40704515239878
  C   0.45048395055292     -0.31067106915328      0.28269137212075
  Br  -0.86974890324994      2.11478913742354     -0.66171132036506
  H   0.39534237452411     -1.40114406220221      0.38069127975654
  C   -0.82947941961578     -0.42970684525360     -1.77257900409552
  N   -0.80967089050514     -0.88935090208561     -2.85410499095223
  N   -2.00824480605819     -0.40796142110480      0.24787912821618
  H   -2.10947464848238      0.00042174744097      1.16774011472427
  H   -2.84847481744138     -0.27198302535408     -0.29949137302754
  N   0.52780116015306      0.17311116954579      1.71628228481742
  O   1.59196388662583     -0.03763565901578      2.28533213074738
  O   -0.45566443553078      0.70121334274150      2.22971908004445
  C   1.72034584490422      0.09462863547618     -0.44428998568885
  H   1.85617292199846      1.17536412372603     -0.41531371231871
  H   2.57623540173721     -0.38139060080199      0.03024192085730
  H   1.67415087298597     -0.22815471282580     -1.48504177243759
