16
Coordinates from ORCA-job run
  C   -1.06458541971626     -0.07943934593743     -0.10947038279528
  C   0.30604381297129     -0.19450172159656      0.61596656676444
  Br  -2.02564076680611     -1.74808993781426      0.31229483456440
  H   0.13534355305811     -0.45585853140196      1.66057074933258
  C   -1.82342121292545      1.01648061812420      0.50210200379248
  N   -2.38556806512081      1.91669970744246      1.00738402910224
  N   -1.07614597868346      0.07450865477833     -1.53580494436222
  H   -0.66703858319793     -0.73429501460845     -1.98740558070563
  H   -0.55363642042000      0.90753768239930     -1.78661480979340
  N   0.92696946490392      1.17438674666697      0.66378460714148
  O   1.27186978906363      1.59761405878724      1.76212674893534
  O   1.06066244863141      1.76337047731701     -0.40969037400849
  C   1.28708070477987     -1.13514165516357     -0.05495607855425
  H   1.53336618292882     -0.78234523376897     -1.05677571799949
  H   2.20752083454979     -1.18124801751315      0.53038151448949
  H   0.86717965598319     -2.13967848771115     -0.11289316590370
