16
Coordinates from ORCA-job run
  C   -0.98954696079556     -0.21347213024741     -0.06246761752649
  C   0.40404339691948     -0.17768811960130      0.59660558458426
  Br  -1.79522293293467     -1.94703129997091      0.42164921495137
  H   0.29570515948991     -0.43400337638993      1.65072993538048
  C   -1.84974742308424      0.80572309479859      0.56214912931405
  N   -2.51001785843760      1.65798774362046      1.03332812965333
  N   -0.91675304359745     -0.15246445940165     -1.49438377843015
  H   -1.84534173921578     -0.19321228895042     -1.89816355474721
  H   -0.46951612661385      0.71973447954832     -1.75943964649964
  N   0.91124091930010      1.24019846808434      0.60676947144388
  O   1.40499732096799      1.64577930712434      1.65287306882027
  O   0.83620973987416      1.87395022827450     -0.44655111635854
  C   1.44124685515861     -1.04355013758910     -0.09407476608703
  H   1.59622165980365     -0.71507196241803     -1.12028284792058
  H   1.10572420591943     -2.08013090505599     -0.10745167498743
  H   2.38175682724582     -0.98474864182583      0.45771046840943
