16
Coordinates from ORCA-job run
  C   -0.99536724731386      0.03310283160512     -0.03796921631130
  C   0.36835627827777     -0.32546327048703      0.57004365548820
  Br  -2.29879314154533      0.23405538379101      1.40779370820515
  H   0.22893194648252     -1.25580331190709      1.12038326646517
  C   -0.97726777009929      1.29428203660264     -0.79150435984303
  N   -0.99469147082269      2.22343282672609     -1.51291162949164
  N   -1.41914689058640     -1.09740563440487     -0.84832251866726
  H   -2.40616645643507     -1.00746040325803     -1.06390259192240
  H   -0.91302828017145     -1.08236490463298     -1.72907269878620
  N   0.78153593149262      0.69048047381580      1.58914565587887
  O   0.98615423475481      0.28323056934137      2.72955316393104
  O   0.91517736857472      1.84681812157487      1.19583229850505
  C   1.46995862741667     -0.43222051191655     -0.47095146466463
  H   1.56695289365260      0.49738432098305     -1.03414378542307
  H   2.41993023158103     -0.63859899653299      0.02649683256694
  H   1.26846374474137     -1.26146953130042     -1.15047031593090
