16
Coordinates from ORCA-job run
  C   -1.05497800548951      0.07144091878456     -0.03392151876065
  C   0.34219515758556     -0.31892123296151      0.49627584505124
  Br  -2.26589338452853      0.20419297688805      1.51633609081007
  H   0.24822476967981     -1.30081737052088      0.96514778404983
  C   -1.04403785927920      1.36450370475874     -0.71964578416527
  N   -1.03514122767895      2.35223361153296     -1.35630707534571
  N   -1.61590894114035     -0.90100749536526     -0.93350538156865
  H   -1.18457064968862     -0.85857399707006     -1.84845124160587
  H   -1.56468741925445     -1.83716456950597     -0.55016476725354
  N   0.79090306446279      0.58982312881129      1.59964559232263
  O   0.86372338768268      1.78616004973160      1.33197930931895
  O   1.08088871221828      0.06446314783090      2.67103113635348
  C   1.40708260036138     -0.30292858367111     -0.58719997098603
  H   2.36675669688169     -0.60190293831685     -0.16047753789650
  H   1.50807274997280      0.69704943823639     -1.01161371523021
  H   1.15837034821463     -1.01055078916285     -1.37912876509378
