16
Coordinates from ORCA-job run
  C   -0.82913380438810      0.18910592442117     -0.42685410729070
  C   0.46426063115115     -0.25605736090214      0.28582560982536
  Br  -0.68901604643339      1.99566346350938     -1.18335843455750
  H   0.31281761326234     -1.30586190604822      0.55496170253760
  C   -1.01113567033551     -0.71123674212455     -1.57848753919932
  N   -1.16718059008188     -1.48504055116126     -2.45101929672767
  N   -1.91753351350723      0.20073326049422      0.50930199303916
  H   -1.98010566194125     -0.68085453362842      1.00819473404846
  H   -2.79632324740495      0.40022155707590      0.04745852939906
  N   0.54512697475817      0.44930376217074      1.60935167549205
  O   0.12753143297472     -0.17321368869994      2.58387888943740
  O   1.01171339437229      1.58303527148063      1.61812551211543
  C   1.74275301422612     -0.07812823352622     -0.50151841160366
  H   1.66526666210121     -0.59063679269113     -1.46241598407857
  H   2.57571726913804     -0.51330027557951      0.05411068200302
  H   1.94624154210828      0.97726684520935     -0.66955555444012
