16
Coordinates from ORCA-job run
  C   -0.84654302220963      0.24045320999591     -0.35785861734470
  C   0.49611584880551     -0.29002707585340      0.18445637809664
  Br  -0.95002821917626      2.20091256814196     -0.32630938942189
  H   0.48573701304188     -1.36990068006242      0.00771975923175
  C   -0.91131600102647     -0.13823746032127     -1.78029376997804
  N   -0.98755479841093     -0.51010966130573     -2.89401011741928
  N   -1.92449054481300     -0.25785412000751      0.44855282170760
  H   -2.82311561588989      0.00089015413612      0.06012700625061
  H   -1.86832323325597     -1.26590133998563      0.55175476763279
  N   0.48677187933096     -0.16829955501832      1.68120593529819
  O   0.15849215491161     -1.17462703476674      2.30681739132768
  O   0.80009975005216      0.91483065086951      2.16282447486570
  C   1.73744274572784      0.34303500937950     -0.40246341578301
  H   1.72534046236953      0.25222675465599     -1.49043714788495
  H   2.62251800890510     -0.17226626039010     -0.02431792310522
  H   1.79885357163757      1.39387484053215     -0.12776815347387
