16
Coordinates from ORCA-job run
  C   -0.99368530743702      0.05558107516210     -0.05245260512680
  C   0.35282561221572     -0.31844817588256      0.58283689936773
  Br  -2.30931078986506      0.32914347155393      1.37028783002033
  H   0.18536340389589     -1.23049845637946      1.15547211914190
  C   -0.93593214048284      1.29350299604105     -0.84170919730517
  N   -0.92157487473014      2.19922023533359     -1.59236375611041
  N   -1.43500324809921     -1.08736691611700     -0.83558598530834
  H   -0.92064530630916     -1.10829921603520     -1.71139793405118
  H   -2.41777696281795     -0.98227903980573     -1.06316790563471
  N   0.77828434675088      0.71279070133990      1.58153886947488
  O   0.92344822393922      1.86003557448280      1.16670951770681
  O   0.97968052378075      0.32473852448984      2.72915554029121
  C   1.46572315910994     -0.47672191325507     -0.43963755097063
  H   1.59354988446680      0.43757848707723     -1.02156069053449
  H   1.25306691420096     -1.31520857048213     -1.10425573889936
  H   2.40298656138122     -0.69576877752330      0.07613058793825
