11

C	-0.250543	0.073223	-1.478189
C	0.0	0.0	0.0
Cl	-2.0205	0.029824	-1.966986
H	1.095702	0.0	0.0
H	0.210787	-0.776267	-1.979544
H	0.148224	0.997685	-1.893984
H	-0.406439	0.883187	0.502902
N	-0.459757	-1.222523	0.656033
H	-1.329246	-1.547765	0.247835
H	0.250424	-1.927973	0.502889
F	2.693547	0.0	0.0
