18

C	-0.469323	-0.062139	-1.444017
C	0.0	0.0	0.0
Br	-2.416308	-0.450632	-1.562344
H	1.090951	0.0	0.0
N	-0.251702	1.357744	-1.985135
O	-1.185451	2.141615	-2.064767
O	0.914737	1.597346	-2.279507
C	0.302272	-1.016523	-2.326288
H	0.107786	-0.79629	-3.378402
H	0.01369	-2.039251	-2.103488
H	1.363688	-0.886054	-2.091732
N	-0.350563	-1.259661	0.706971
O	0.044651	-2.320671	0.213186
O	-0.93395	-1.176838	1.796825
N	-0.427782	1.171355	0.673426
H	-1.32587	1.036484	1.120861
H	0.267415	1.393332	1.378043
H	2.543028	0.0	0.0
