18

C	-0.628704	0.013433	-1.38671
C	0.0	0.0	0.0
Br	0.077796	1.576944	-2.351141
H	1.096328	0.0	0.0
N	-0.163967	-1.16445	-2.236879
O	1.015285	-1.474351	-2.163008
O	-0.997601	-1.679541	-2.978224
C	-2.134629	0.096768	-1.365126
H	-2.402118	0.946508	-0.736714
H	-2.538904	0.227061	-2.368069
H	-2.52478	-0.829777	-0.940971
N	-0.40037	-1.15595	0.722415
O	-0.709841	-2.192429	0.08227
O	-0.272631	-1.134927	1.971194
N	-0.298165	1.224078	0.718123
H	-0.619135	0.938539	1.637736
H	0.60776	1.672867	0.868105
H	2.330992	0.0	0.0
