18

C	-0.413149	-0.061433	-1.47069
C	0.0	0.0	0.0
Br	-2.365224	-0.38992	-1.683605
H	1.089761	0.0	0.0
N	-0.138542	1.349676	-1.99303
O	-1.008515	2.213473	-1.909269
O	1.008835	1.533529	-2.389907
C	0.370489	-1.040665	-2.310117
H	0.050171	-2.053672	-2.086857
H	1.423795	-0.931365	-2.032133
H	0.224661	-0.828209	-3.371533
N	-0.413112	-1.27269	0.666112
O	-1.165634	-1.226794	1.637601
O	0.071791	-2.312799	0.208447
N	-0.411462	1.124654	0.74694
H	-1.289217	1.531553	0.464452
H	0.336519	1.80363	0.766079
H	2.586843	0.0	0.0
