13
Coordinates from ORCA-job run
  C   0.77679585174683     -0.25524421100972     -0.12195062291955
  C   -0.46087302646977      0.32318296915138     -0.04328819543798
  C   0.98127333068180     -1.55974681576493      0.44257893658615
  N   1.16935745804045     -2.61955771984914      0.91844611567163
  N   1.86481161931036      0.26668616138391     -0.79234921828390
  H   1.79321192961458      1.24416834659823     -1.03945110537608
  H   2.76810339751782      0.00369054776406     -0.43030510895402
  C   -1.67654621171436     -0.31518621023907      0.56774166654461
  H   -2.45638571408705     -0.45819695141198     -0.18484879702215
  H   -1.43340905845213     -1.28707126025759      0.99923809872754
  H   -2.08695941744155      0.32086361032274      1.35609451591340
  C   -0.58732489055178      1.62742796702433     -0.60311918937123
  N   -0.64905526819520      2.70898356628776     -1.06878709607843
