13
Coordinates from ORCA-job run
  C   0.77581305171799     -0.25644817607143     -0.12681664082074
  C   -0.45953820417321      0.32562987571613     -0.03889936223917
  C   0.97477058616434     -1.56901291101353      0.42080234183318
  N   1.15500828987615     -2.63669781282939      0.88194326609674
  N   1.86451923840723      0.26978868710885     -0.79283913694699
  H   2.76762686336143     -0.00566926824205     -0.43972133329194
  H   1.79829592363660      1.25189583197060     -1.02198942106297
  C   -1.67606256997266     -0.31502538560784      0.56816318400214
  H   -1.43631281744098     -1.29450251211619      0.98400853243483
  H   -2.46006907026719     -0.44226516509454     -0.18308116885629
  H   -2.07937957472384      0.31111816225372      1.36789501836127
  C   -0.58252462275063      1.63661580082556     -0.58359296212952
  N   -0.64114709383523      2.72357287310012     -1.03687231738053
