13
Coordinates from ORCA-job run
  C   0.80186290100893     -0.20384617790320      0.03616625369659
  C   -0.45862753301374      0.31601867629677     -0.08000805815018
  C   0.97397237944394     -1.51580362692672      0.59493272909483
  N   1.12993657808747     -2.59848825674807      1.02883336663357
  N   1.97531096822813      0.46426141634360     -0.24906363666904
  H   1.87206617566726      1.31462355850639     -0.78460657688771
  H   2.74994898822662     -0.11174040455681     -0.53965011403162
  C   -1.72156159596619     -0.36334358022423      0.36935676487509
  H   -2.41008843582423     -0.48163128270168     -0.47114811446890
  H   -2.22915989072859      0.23583174615902      1.12993868174657
  H   -1.51150766278074     -1.34807757876848      0.78959985092630
  C   -0.56040181285629      1.61142258137125     -0.66516113910351
  N   -0.60975105949257      2.68077292915215     -1.15919000766198
