13
Coordinates from ORCA-job run
  C   0.79933455196488     -0.25845623305745      0.04419668706709
  C   -0.37360904552284      0.37980601249500      0.33213731539995
  C   1.98355346289779      0.00325820528263      0.80882324815620
  N   2.97776120528232      0.19870508938659      1.40812021363757
  N   0.91097010387093     -1.25024409298844     -0.91269494176136
  H   0.23944201153244     -1.21020793086323     -1.66387724130141
  H   1.84839679551659     -1.44785425839908     -1.22553603075053
  C   -1.62781745309384      0.07480662472300     -0.44227315948415
  H   -1.80991135301007     -1.00436763486734     -0.46793151281249
  H   -2.49200905856785      0.55411192813751      0.01575989100105
  H   -1.55623329117938      0.43487646063887     -1.47510894530894
  C   -0.41025052493159      1.35441410968424      1.36670395628950
  N   -0.48962740475938      2.17115171982770      2.21268051986752
