13
Coordinates from ORCA-job run
  C   0.74298262083154     -0.26905364228991     -0.28861951444371
  C   -0.45288071111755      0.38540630402670     -0.20096399634525
  C   1.63616447996896     -0.02134829022112     -1.38241191472447
  N   2.39910069672665      0.16221829437633     -2.25994408822538
  N   1.13175581649644     -1.26448091165434      0.58870829780366
  H   2.11723808669553     -1.47523377843897      0.59685515648529
  H   0.72580059915110     -1.21747050504141      1.51055779762659
  C   -1.41008449361706      0.09538866974655      0.92396190688443
  H   -2.36710464464732      0.58707103877117      0.75461459272986
  H   -1.01785543461771      0.45229712123397      1.88328066691436
  H   -1.58964980437440     -0.98132628823303      1.00695854982415
  C   -0.79460698573542      1.36287467747548     -1.17530007158329
  N   -1.12086022576077      2.18265731024856     -1.95669738294625
