13
Coordinates from ORCA-job run
  C   0.77833182237064     -0.25533222643688     -0.11645902802968
  C   -0.45900864682398      0.32470391812504     -0.04563191642162
  C   0.97345935682782     -1.56465293082768      0.43989681277852
  N   1.14890520484059     -2.62987411749573      0.90830525328478
  N   1.87340332729706      0.26936517819630     -0.77291273203490
  H   2.77351024073519     -0.00513754617433     -0.41138897278451
  H   1.80926388377699      1.25051496327175     -1.00677734326850
  C   -1.68102218697250     -0.31462787262914      0.55169609358466
  H   -2.45482650923694     -0.45051730057574     -0.20855421719886
  H   -2.09646047652496      0.31708352609896      1.34082471878940
  H   -1.44387810332874     -1.29003700308933      0.97854779389892
  C   -0.57995227291828      1.63185076018032     -0.59970583474230
  N   -0.64072564004290      2.71666065135646     -1.05784062785590
