13
Coordinates from ORCA-job run
  C   0.78926590633788     -0.24240447436176     -0.04646453121145
  C   -0.44886882220359      0.34029558555616     -0.03530305313707
  C   0.95893992270804     -1.54512834978505      0.53321316546316
  N   1.10947532506404     -2.62010480926365      0.98823980903833
  N   1.95158337437627      0.35428720566449     -0.49242331597902
  H   1.82158609075084      1.18021317150354     -1.06023820135556
  H   2.65923673741356     -0.27252660762862     -0.84310578916594
  C   -1.68289978208205     -0.26187352095117      0.57607964372951
  H   -2.05505130917063      0.36700587997564      1.38933259842723
  H   -2.47779470810267     -0.34710681532709     -0.16912611338801
  H   -1.47648839540470     -1.25545548123302      0.97577067084464
  C   -0.55101049692020      1.62353608441749     -0.64605714527667
  N   -0.59897384276679      2.67926213143304     -1.16891773798914
