13
Coordinates from ORCA-job run
  C   0.78698866535674     -0.24640853254978     -0.05262778903929
  C   -0.44728019625729      0.34416270509088     -0.02960430257356
  C   0.95155813883697     -1.55414702981575      0.51754305665460
  N   1.09484703779284     -2.63381211116162      0.96348983090943
  N   1.95058507143745      0.34504916634462     -0.50237474101472
  H   2.65134535642352     -0.28549593138391     -0.85931429383807
  H   1.82388031299147      1.17462102609092     -1.06553465439836
  C   -1.68135947102653     -0.25582586442575      0.58370850329971
  H   -2.05981261146005      0.38200452847772      1.38702753822923
  H   -1.47169498679740     -1.24245397409500      0.99856439793302
  H   -2.47287229346779     -0.35471180951034     -0.16347761831556
  C   -0.54414411515799      1.63201069942008     -0.63161913309147
  N   -0.58204090867193      2.69300712751792     -1.14478079475493
