13
Coordinates from ORCA-job run
  C   0.78779639542252     -0.24313473015349     -0.03714365446203
  C   -0.44938562964020      0.34110820462371     -0.04095324725673
  C   0.95129861458609     -1.54592133815910      0.54430560735085
  N   1.10284052117956     -2.62077870373301      0.99931248519691
  N   1.95665568531193      0.35122790670876     -0.46955863311088
  H   2.66599589765362     -0.27914743889853     -0.80946615164533
  H   1.83799406199353      1.17709321464909     -1.03981177163043
  C   -1.69106961077306     -0.26003081019464      0.55554070112413
  H   -1.48861872248233     -1.24966263478125      0.96683926782438
  H   -2.47310893028269     -0.35353350415480     -0.20240497604132
  H   -2.07907174882767      0.37424688757069      1.35722218141593
  C   -0.54199586988990      1.62558292461904     -0.65065562740578
  N   -0.57733066425140      2.68295002190352     -1.17122618135970
