13
Coordinates from ORCA-job run
  C   0.75810918258270     -0.28209996063543     -0.16861397651254
  C   -0.44652168766993      0.34597897036834     -0.00527972104502
  C   0.92392273543187     -1.62408163997537      0.31503989667686
  N   1.08323551368325     -2.71736387421649      0.72038728385463
  N   1.84154216488792      0.22743881808460     -0.85602033649501
  H   1.80812766512833      1.22051332331215     -1.04035031305399
  H   2.74507975393274     -0.09905657582773     -0.55070581765168
  C   -1.66527598359543     -0.27098582836545      0.62155165696389
  H   -2.48026162798087     -0.33461484507908     -0.10445473456664
  H   -1.45112774984718     -1.27604417065027      0.98728229535782
  H   -2.01380724884055      0.33657927745279      1.46055694518350
  C   -0.53559152262031      1.68341452379807     -0.48907569011494
  N   -0.56843119509254      2.79132198173384     -0.89131748859687
