13
Coordinates from ORCA-job run
  C   0.79238147970300     -0.32285483690190      0.08875087120989
  C   -0.37807781363237      0.33059345690502      0.40470055039100
  C   1.94113283008221     -0.16680249021270      0.94418018219648
  N   2.91445941145016     -0.22366239550349      1.60580796017367
  N   1.06997338077202     -0.91419916395095     -1.13494181632130
  H   1.64339086937652     -1.74969807231675     -1.09017269840768
  H   0.25077872581904     -1.06981070617244     -1.70957565494841
  C   -1.64898510387480      0.06160692463959     -0.36608315261740
  H   -1.69495044940466     -0.98744356313267     -0.66804861357988
  H   -2.51492891342820      0.26533743356399      0.26679211349473
  H   -1.74591284278100      0.69405566498441     -1.25687075493922
  C   -0.31536063071583      1.52565896541623      1.17281994215063
  N   -0.31490094336610      2.55821878268166      1.74164107119749
