13
Coordinates from ORCA-job run
  C   0.79534176525064     -0.26792777090450      0.08315147500448
  C   -0.34116991102064      0.27161976975180     -0.44866555822108
  C   2.03237094129571     -0.22863306196740     -0.64017766040255
  N   3.06526233854125     -0.19708914846062     -1.20374700346523
  N   0.82058269406440     -0.95794150129004      1.28135544533212
  H   0.10622350697423     -0.70312464809564      1.94610933379647
  H   1.73130075765223     -1.06728565863914      1.69906586549890
  C   -1.65000416901850      0.19948185112180      0.29175244583701
  H   -1.63471985351728      0.83083778960206      1.18764155950414
  H   -1.85906409468449     -0.82954931215627      0.60008841116543
  H   -2.47018699400835      0.54150379819795     -0.33857706885429
  C   -0.29031959332610      0.92775242129280     -1.70947845616288
  N   -0.30561738820310      1.48235547154720     -2.74951878903252
