13
Coordinates from ORCA-job run
  C   0.77773594568752     -0.31776669075472      0.07586245530245
  C   -0.36537440934074      0.38789645596591      0.32524533626624
  C   1.93244522648261     -0.15050027520970      0.90914597132321
  N   2.90005384509356     -0.01577958495785      1.56578858150441
  N   0.88098405373201     -1.27916469629242     -0.91257933953468
  H   0.25366582451962     -1.17068693571687     -1.69443399732469
  H   1.82251837512615     -1.51894055689993     -1.18187608217598
  C   -1.59307743057244      0.19668717399065     -0.52460684465370
  H   -2.44459293567667      0.72461655189026     -0.09719946973438
  H   -1.43810755118880      0.58125153474632     -1.53878704240390
  H   -1.85208823702947     -0.86465102154939     -0.59517928864991
  C   -0.39741303963535      1.32138145137731      1.39654481565925
  N   -0.47674966719800      2.10665659341043      2.27207490442168
