13
Coordinates from ORCA-job run
  C   0.77564963390517     -0.28918934549022      0.14929412716816
  C   -0.41630002120372      0.36060397738847      0.30153973655818
  C   1.82092274743054     -0.14061434477850      1.11938454363680
  N   2.70419389000389     -0.03723687968521      1.89077836646304
  N   1.02608011961989     -1.19103146359690     -0.86804296014404
  H   1.99841434800501     -1.39181031448167     -1.04082779437461
  H   0.48893586664861     -1.05942272451189     -1.71124173247009
  C   -1.53008304397224      0.17112290768566     -0.69307286878476
  H   -1.27909780232345      0.61714416332280     -1.66242512354811
  H   -2.44791401212680      0.64035675936448     -0.34113052684024
  H   -1.72889723953574     -0.89417427100190     -0.84817738831602
  C   -0.60535952451375      1.23730888657455      1.40480296867484
  N   -0.80654496193740      1.97694264921034      2.30011865197683
