13
Coordinates from ORCA-job run
  C   0.80142611324925     -0.24925228208936      0.05185362044457
  C   -0.35120051965285      0.45644867288454      0.25051632340669
  C   1.98894426703531      0.06249001781997      0.79225039161399
  N   2.98032659861225      0.28389739549947      1.38720646144015
  N   0.93972967550801     -1.22303314078707     -0.91993323400847
  H   0.08943214221060     -1.69006266357671     -1.19515126357496
  H   1.71748422531890     -1.85172831728940     -0.79549864586257
  C   -1.58592123660707      0.15929328582954     -0.55771531867158
  H   -2.35552489511930      0.90901127828208     -0.37902548370737
  H   -1.35293251721755      0.15703238347997     -1.62733591253947
  H   -2.00723811258189     -0.81853192404413     -0.29717568312075
  C   -0.39157246902598      1.47663403893526      1.23996743994415
  N   -0.47395327172968      2.32880125505584      2.05004130463562
