13
Coordinates from ORCA-job run
  C   0.79132114474314     -0.23475474297760     -0.03844381684056
  C   -0.45280558829118      0.33489526204864     -0.04494277452429
  C   0.97272950122420     -1.52229642023436      0.57105851794622
  N   1.13370518792685     -2.58597610366836      1.04832618972700
  N   1.94925890717266      0.36309748952103     -0.49419141344442
  H   1.81461418027811      1.17428340032073     -1.08187531445689
  H   2.66402818154017     -0.26553802969831     -0.82595560375477
  C   -1.68200850357661     -0.26589809897193      0.57720077557134
  H   -2.47623564750613     -0.36817569217254     -0.16659989639138
  H   -2.05826117379767      0.37302405261833      1.38064806400150
  H   -1.46882861621268     -1.25145903490918      0.99316258613787
  C   -0.56622030366677      1.60274923663216     -0.68538620971252
  N   -0.62129726983408      2.64604868149137     -1.23200110425910
