13
Coordinates from ORCA-job run
  C   0.80462681044337     -0.24265146894322      0.01981388480900
  C   -0.33911457875100      0.47011448573766      0.24352247297860
  C   2.03168190142325      0.11539431550161      0.66954428068027
  N   3.05550809830743      0.37376289130654      1.19000581550115
  N   0.89195028248526     -1.27273117305898     -0.89815043059016
  H   1.67959048370388     -1.89086532705229     -0.78366693964911
  H   0.02954286746642     -1.75593617646194     -1.09713153565414
  C   -1.61650605460839      0.11993529556318     -0.47153701038561
  H   -2.01109481781046     -0.84501461145415     -0.13261282916307
  H   -1.44724830558531      0.05905344811930     -1.55133438956843
  H   -2.38231653227627      0.87274528246028     -0.28922115185961
  C   -0.32818031074122      1.54833229046072      1.17015257446925
  N   -0.36943984405695      2.44786074782130      1.93061525843186
