13
Coordinates from ORCA-job run
  C   0.58447204158163     -0.52708095347866     -0.29553411894781
  C   -0.61025668808145      0.10417160519744     -0.09835845616174
  C   0.67483816548709     -1.68072607744628     -1.14176713844473
  N   0.79470317413891     -2.63621358657520     -1.81926993055873
  N   1.78670430486426     -0.05133115352717      0.20379450236874
  H   1.71813278586603      0.46063075007243      1.06995203392099
  H   2.53570091891285     -0.72600336589530      0.21470807732399
  C   -0.70205058856832      1.34520221028130      0.74892047758307
  H   0.08222712320199      2.05593181689210      0.47059884828489
  H   -1.66713960919336      1.83220453208978      0.61445824806981
  H   -0.59392098211047      1.10663736146615      1.81401183335636
  C   -1.79573293641581     -0.43863817373810     -0.66726980061180
  N   -2.80767770968332     -0.84478496533850     -1.11324457618304
