13
Coordinates from ORCA-job run
  C   0.77617958697753     -0.25666330447020     -0.12058852933799
  C   -0.46151340719007      0.32237505775530     -0.04866062927164
  C   0.98200775836218     -1.55258877004643      0.46289011476508
  N   1.17284692342568     -2.60509562888712      0.95375284763709
  N   1.86312840967711      0.25623112282460     -0.80006967813648
  H   2.76690438186435     -0.00704196609793     -0.43958483091170
  H   1.79373326317731      1.23229648644274     -1.05300314741598
  C   -1.67540312460419     -0.30753579273156      0.57466556213475
  H   -2.45756031603444     -0.45889722903467     -0.17404528217875
  H   -1.43160523696231     -1.27451890419036      1.01656562513004
  H   -2.08326364627083      0.33785916710312      1.35663884700754
  C   -0.59039511945571      1.61865534147054     -0.62621798064153
  N   -0.65505947296660      2.69492441986196     -1.10334291878043
