13
Coordinates from ORCA-job run
  C   0.79561906817664     -0.26305813706061      0.06688671203744
  C   -0.36041314434886      0.43341799956897      0.27816207463049
  C   2.00246798716226      0.09145225635356      0.75527471850045
  N   3.01531737528090      0.35757057046245      1.29312216821827
  N   0.86940835606188     -1.39234443993453     -0.72762395322902
  H   0.18138475031431     -1.45557412832063     -1.46208665779604
  H   1.79613415707406     -1.65314154126090     -1.02564372033417
  C   -1.63693455687132      0.03520821530581     -0.41281386855536
  H   -1.58312474157779      0.22584467285701     -1.49086242415533
  H   -2.48257194665064      0.59797189832788     -0.01966143705586
  H   -1.83683406192713     -1.03075854200158     -0.26382209863950
  C   -0.35759377969881      1.55615945276797      1.15039109918663
  N   -0.40485946299552      2.49625172293460      1.85967738719201
