13
Coordinates from ORCA-job run
  C   0.79789831372564     -0.24896023320443      0.09918993997389
  C   -0.41314706570342      0.34122093492179      0.32694009469806
  C   1.89314062741103     -0.04565982089743      1.00174102274178
  N   2.81691239978010      0.10564657636641      1.71560900103182
  N   1.02751834119020     -1.13985358561173     -0.93212752891776
  H   0.43118217330236     -1.04025062125060     -1.73874016497652
  H   1.99524768731284     -1.29673960212141     -1.16558202295637
  C   -1.57658771628716      0.09293348784706     -0.59620995122906
  H   -2.49257421545131      0.51703754936278     -0.18636816444054
  H   -1.72894694758844     -0.98125464172570     -0.74076482759128
  H   -1.40844187560694      0.55196305052220     -1.57711858462134
  C   -0.57794522557652      1.20662837373931      1.44235062135806
  N   -0.76325649650837      1.93528853205176      2.35008056492927
