13
Coordinates from ORCA-job run
  C   0.80340631867787     -0.22126358804140      0.11140969952723
  C   -0.40783807896327      0.38745850719666      0.28022376965502
  C   1.86696514456164     -0.01247456559794      1.05011114656951
  N   2.76037778991060      0.12599451705845      1.80404948818689
  N   1.12243603488533     -0.98643454359542     -0.99509530536779
  H   0.34389185191189     -1.42417012459523     -1.46312710717282
  H   1.91778163591791     -1.59584721352276     -0.88732264679795
  C   -1.51112762598200      0.19978415794297     -0.72631085083681
  H   -1.14883776431895      0.41424629510969     -1.73679186800072
  H   -1.89363476938148     -0.82736117049702     -0.71102258969557
  H   -2.34605563638703      0.86657397625387     -0.51525085485994
  C   -0.63601931495795      1.19770910104421      1.42599890093672
  N   -0.87334558587455      1.87478465124390      2.36112821785621
