13
Coordinates from ORCA-job run
  C   0.82375896213750     -0.17018797816182      0.00764669133180
  C   -0.37462051454714      0.44302810273164      0.24005966036839
  C   2.02591449195979      0.31186235289521      0.62273556561832
  N   3.03142906377493      0.67493846559029      1.11555368713639
  N   0.98493784537047     -1.21021081166766     -0.88905018665250
  H   0.16515397684626     -1.77281725454184     -1.05736485203748
  H   1.82608099419803     -1.75379784501399     -0.77660424185928
  C   -1.62962154572465     -0.03513864834269     -0.43947916252670
  H   -1.93086842779406     -1.02250805686255     -0.07080106964814
  H   -2.45518331885953      0.65152781329141     -0.25682113437161
  H   -1.47750232770156     -0.10623966151171     -1.52120902793044
  C   -0.44200547403757      1.53999365752082      1.14209815203861
  N   -0.54747372562246      2.44954986407288      1.88423591853263
