13
Coordinates from ORCA-job run
  C   0.83725539950306     -0.07432208491448     -0.02425954027872
  C   -0.41611160427967      0.35217176860899      0.31175295618717
  C   1.99160518800827      0.42558260216862      0.66396186701633
  N   2.96163690575880      0.80663971170618      1.21135779939529
  N   1.09359190463874     -0.92155428523080     -1.08660350866479
  H   1.99219552273198     -1.37757035831568     -1.07030164389369
  H   0.33836513021065     -1.53734956804402     -1.34608688323471
  C   -1.62505965097354     -0.14180800948137     -0.43634103757166
  H   -1.81071272824387     -1.20367705988497     -0.23742223944637
  H   -2.51633655863901      0.41029372876977     -0.14107026869187
  H   -1.48685582623349     -0.01559373959645     -1.51487066739997
  C   -0.58509535369022      1.26286065210765      1.39051477894660
  N   -0.77447832879171      2.01332664210655      2.27936838763641
