13
Coordinates from ORCA-job run
  C   0.83166553634146     -0.12186454969996     -0.00707619139680
  C   -0.40296569115881      0.36992440898284      0.30924000326206
  C   1.99737805693927      0.30513084586736      0.71021127483390
  N   2.97514222105560      0.62676999160127      1.28149953746050
  N   1.06270974078669     -0.96829843276188     -1.07618066566222
  H   0.28011127710877     -1.53846513845127     -1.35801700179644
  H   1.93317218252805     -1.47541364073469     -1.04591530883336
  C   -1.62058668507966     -0.04447098079020     -0.47198567285001
  H   -1.86857692639711     -1.09757845284933     -0.29541898986845
  H   -2.48678252087208      0.55105058240194     -0.18639256214434
  H   -1.45136141544715      0.09093487549937     -1.54503080874980
  C   -0.54273530074534      1.27613159371186      1.39596355562743
  N   -0.70817047505969      2.02714889722268      2.28910283011753
