13
Coordinates from ORCA-job run
  C   0.79426784036206     -0.26000649172974      0.09039346159741
  C   -0.39824031524538      0.36541491537954      0.32027276885140
  C   1.92038005697314     -0.02894858615791      0.94736529673711
  N   2.86779847801129      0.14218381552942      1.62490491701113
  N   0.97596693236320     -1.21037273986169     -0.89714606257601
  H   1.93356138971041     -1.40518629831963     -1.14291040258058
  H   0.36644848719466     -1.13176673132861     -1.69649461053676
  C   -1.59327852535914      0.09015630347477     -0.55233664573971
  H   -2.49021445169060      0.54728546367310     -0.13649411176735
  H   -1.76571398271603     -0.98766480186032     -0.63596367877962
  H   -1.45198955948790      0.49333939560476     -1.56186142026012
  C   -0.51002466951804      1.30015576324145      1.38569125276696
  N   -0.64896168059766      2.08540999235485      2.25357923527616
