13
Coordinates from ORCA-job run
  C   0.80154283443961     -0.18894106448018      0.05064137412970
  C   -0.46862957819333      0.28031397115444     -0.15370752739289
  C   1.01609473926486     -1.25492342036307      0.98816480778626
  N   1.20612094948349     -2.13984992880818      1.73952277863098
  N   1.94637913575492      0.33987577940827     -0.50316478895709
  H   1.81365223730756      0.97608144495840     -1.27686166934760
  H   2.73473951349550     -0.27858755158465     -0.59434079646211
  C   -1.69674163381454     -0.22182623615576      0.55383191764702
  H   -1.43694201711787     -0.96641605848722      1.30767445877521
  H   -2.21335109891321      0.60338109489171      1.05091375124943
  H   -2.39589406511702     -0.67259216879107     -0.15449558133311
  C   -0.61201889575952      1.33125181820173     -1.10336000129676
  N   -0.69695212083040      2.19323232005566     -1.90381872342918
