13
Coordinates from ORCA-job run
  C   0.80128077605146     -0.23951362846800      0.08654521921416
  C   -0.38443809318992      0.41047171038098      0.28066845478111
  C   1.90970150786719     -0.02351097690559      0.97005358716789
  N   2.83771707129876      0.11835959105051      1.68036879667698
  N   1.05201564046705     -1.05722587353834     -0.99949538614585
  H   0.24290786825062     -1.48899729655342     -1.41849069769350
  H   1.83366787509528     -1.68537412983377     -0.89915265972138
  C   -1.53534221940145      0.21410403517960     -0.66939048321960
  H   -1.21316013424406      0.38145469901126     -1.70210568026424
  H   -2.34372074327468      0.90993037403166     -0.44835971970888
  H   -1.94194576578927     -0.80140475675298     -0.59814686058492
  C   -0.54067153367575      1.27162302311849      1.40109809925249
  N   -0.71801224945523      1.99008322927960      2.31840733024574
