13
Coordinates from ORCA-job run
  C   0.81160568001113     -0.21732634827151      0.04566807571911
  C   -0.38225694539275      0.39438590968648      0.30432507159630
  C   1.95445029837163      0.02288793352880      0.87759416677182
  N   2.91115856528561      0.18672234047831      1.54380251332420
  N   1.03404167671286     -1.01502019166529     -1.06125661632676
  H   1.83804661076656     -1.62006426717236     -1.00607425678307
  H   0.21876601738468     -1.46685188896352     -1.44585437549154
  C   -1.57127287228717      0.17436636040256     -0.59225391501911
  H   -2.38401330949633      0.85047909446869     -0.33018658109801
  H   -1.30173056054671      0.35370476336892     -1.63803462397974
  H   -1.95059193289535     -0.85057556960725     -0.50752281524518
  C   -0.51023023188197      1.23984976061574      1.44022624764121
  N   -0.66697299603219      1.94744210313043      2.36956710889077
