13
Coordinates from ORCA-job run
  C   0.78647435252818     -0.28005487260504      0.09988339991887
  C   -0.36899868292505      0.42725331782389      0.27539419165738
  C   1.88838547780233     -0.12078124132839      1.00331338008433
  N   2.81000225207825     -0.02409053189701      1.72932846256239
  N   1.01559100522354     -1.10642947207213     -0.98465833165515
  H   1.76528282885233     -1.77060184269832     -0.87342116879989
  H   0.19341615514822     -1.50071476515269     -1.41525994275059
  C   -1.51066321607678      0.29181177884070     -0.69609735003186
  H   -2.28318020428885      1.03218139251579     -0.49245560831825
  H   -1.15948356614424      0.43789612180829     -1.72266284634687
  H   -1.97451455876420     -0.69923965904408     -0.63095157637135
  C   -0.50231206455447      1.29252165453891      1.39566098458355
  N   -0.66099977887925      2.01924811927007      2.30992640546745
