13
Coordinates from ORCA-job run
  C   0.79058227139671     -0.27482231044892      0.06312528713824
  C   -0.39439393802908      0.34051244491614      0.35216436910943
  C   1.91806533963979     -0.14257289529685      0.93905843267034
  N   2.86605326135724     -0.05285061841052      1.63170755227747
  N   0.95976698500146     -1.13531239984551     -1.00763091071233
  H   1.91813585878372     -1.30309162449070     -1.27203328822948
  H   0.35532044617446     -0.96850485938510     -1.79791121313228
  C   -1.59522240337775      0.15600029132898     -0.53683329949876
  H   -1.75804405987733     -0.90686390441382     -0.73945957338327
  H   -2.49136566226958      0.55919841757285     -0.06769725129277
  H   -1.46221951708847      0.66832778529925     -1.49701663712415
  C   -0.48976843069721      1.17845191883402      1.49701013896485
  N   -0.61591015101394      1.88152775434019      2.43451639321271
