13
Coordinates from ORCA-job run
  C   0.79328344434717     -0.23685402798494      0.13809396524953
  C   -0.41666056139248      0.38263554648796      0.27601436255182
  C   1.82196116513352     -0.06423624782189      1.12156941490952
  N   2.68821740644344      0.04699702089585      1.91110537509731
  N   1.14831712993198     -0.96911573677778     -0.98200654169370
  H   1.93063978412995     -1.59257056753527     -0.85609804321334
  H   0.38178403085882     -1.40204628493680     -1.47492188463570
  C   -1.47594646245220      0.24452074675915     -0.78338895571971
  H   -2.29685541181336      0.93863284378816     -0.60563527863278
  H   -1.05677006284723      0.45632260413742     -1.77201524434666
  H   -1.89437611413619     -0.76866525877046     -0.79965475773778
  C   -0.68124168047210      1.15831098414262      1.43829064757559
  N   -0.94135266773133      1.80506837761599      2.38864694059589
