18
Coordinates from ORCA-job run
  C   0.60508531340766      0.26168582353151     -0.35040730139152
  C   -0.61350153162306     -0.32197242967223      0.36768279884975
  F   0.34433291576643      0.39135210097600     -1.67635501062207
  H   -0.32761027030717     -0.53571269401192      1.39677627421698
  C   1.14110218542105      1.56065822271362      0.19492257729355
  H   2.06844391190668      1.80640304663087     -0.32585191676625
  H   1.32817698464327      1.48492116812359      1.26454848116659
  H   0.41765721965519      2.35477874983546      0.00857704823235
  N   1.69555754611130     -0.80173907069199     -0.21255402455068
  O   2.14010809917627     -1.30142072883381     -1.23548833783116
  O   2.03211785089291     -1.05402383917812      0.94044925907790
  C   -1.19630069880728     -1.52828389347845     -0.33721426717479
  H   -2.08600429166876     -1.87396015611692      0.19136974487808
  H   -0.46850405339386     -2.34212162919719     -0.34384089409685
  H   -1.46672281252405     -1.28237364655459     -1.36166991021765
  N   -1.62908125287474      0.77858922162082      0.46891797710013
  O   -2.34755192318195      0.97961787201330     -0.50639922696863
  O   -1.63730519259989      1.42260188229004      1.51753672880426
