18
Coordinates from ORCA-job run
  C   0.62210358474835      0.25507731839951     -0.32559531207514
  C   -0.63225431214801     -0.31538036179483      0.33960464965353
  F   0.39783648694688      0.44974839248222     -1.65017877626603
  H   -0.37796875746937     -0.58198060360807      1.36471051084164
  C   1.18849671561132      1.51038633121742      0.28720731513838
  H   1.34528528680854      1.38392175760827      1.35685839370905
  H   0.49776916555052      2.33661101859250      0.11692921315604
  H   2.13690426573440      1.74453542387091     -0.19985925209999
  N   1.67131933700111     -0.85151790319014     -0.20913757606724
  O   1.97715114996793     -1.15824157883530      0.93920682691856
  O   2.11503494334405     -1.33065153476745     -1.24224130931917
  C   -1.23933233861005     -1.46975630040254     -0.42889763844413
  H   -0.54165577824555     -2.30924283126262     -0.45119517567684
  H   -1.47369789038586     -1.17257076359576     -1.44863983345477
  H   -2.15479880799920     -1.80282720416591      0.06248971425037
  N   -1.61167374308248      0.81507817300024      0.46558914840675
  O   -1.62313779389029      1.41417376240016      1.54035843013217
  O   -2.29938151388228      1.08163690405138     -0.51620932880317
