18
Coordinates from ORCA-job run
  C   0.51974552647081      0.64812776073710     -0.25544775464796
  C   -0.80203796084363      0.12646623090609      0.30362495538342
  F   0.26848129663163      1.87961560687332     -0.78730109612703
  H   -1.10643451027413      0.85571370652312      1.05767652440231
  C   1.61396775102457      0.76363466437230      0.77674948482193
  H   2.48024804031831      1.23782329308273      0.31154452648066
  H   1.90436410828333     -0.21385635457239      1.15513530466190
  H   1.27054017273861      1.39546649224463      1.59764401381547
  N   1.04133199240397     -0.22153255254095     -1.39466565498483
  O   1.09305783093709      0.26577739928785     -2.51183852259015
  O   1.40243704875916     -1.34586751949081     -1.06034596529805
  C   -0.82639406725900     -1.28373348072672      0.86089038237355
  H   -1.81865184071014     -1.48043199888513      1.27248641204039
  H   -0.09743359025625     -1.39128197541470      1.66467717069422
  H   -0.60576191129078     -2.01387027074096      0.08593514027471
  N   -1.85166173443686      0.24092469567275     -0.76500268817009
  O   -2.81016826049166      0.97178960524800     -0.53521912441678
  O   -1.67562989200504     -0.43476530257624     -1.77554310871368
