18
Coordinates from ORCA-job run
  C   0.58724577217158      0.27981665693307     -0.36608344162028
  C   -0.59448715884009     -0.33694242929692      0.38531772305946
  F   0.29081104370658      0.38865475116080     -1.68649430050400
  H   -0.28040126558885     -0.52540838573562      1.41109316896003
  C   1.09302655664519      1.60066359909995      0.15495843469710
  H   0.34001646263073      2.36915457327288     -0.02137577287610
  H   1.99956673183409      1.87125657066605     -0.38959819107163
  H   1.30704156287938      1.54159007636552      1.22056991379028
  N   1.71468698437693     -0.74592766877143     -0.24511701101486
  O   2.15268131962200     -1.23933072868999     -1.27385998557125
  O   2.08456380616511     -0.97769899957370      0.90199590784135
  C   -1.14747703168950     -1.57348420399585     -0.29069252709986
  H   -1.44113056356246     -1.35453051257303     -1.31486884413314
  H   -2.01761736495773     -1.93871731022498      0.25697108586043
  H   -0.39353243924972     -2.36317630016218     -0.29412086570601
  N   -1.64668666647911      0.72815139421902      0.49188669879348
  O   -1.65280994249104      1.39075866314154      1.52892005440647
  O   -2.39549780717310      0.88517025416486     -0.46850204781147
