18
Coordinates from ORCA-job run
  C   0.48946528366585      0.53632457901788     -0.46367486580549
  C   -0.80191970351544     -0.26659829959473     -0.27525911964472
  F   0.12159541035896      1.69567186898460     -1.09238717843469
  H   -1.23437549695711     -0.39517065314715     -1.26932809425109
  C   1.29703433165855      0.85958849180372      0.76049210167475
  H   1.56554111730342     -0.03925523710871      1.30894209290514
  H   2.20595154613500      1.38213599587257      0.46007724195082
  H   0.71148906959003      1.51773547580699      1.40283646099000
  N   1.33279192112060     -0.23970108428493     -1.47522164658218
  O   2.22851884134393     -0.94293604042198     -1.01764825034036
  O   1.00960387380919     -0.12942749508370     -2.65031041128980
  C   -1.77362243673720      0.38447576746786      0.68547819373009
  H   -2.70810983422131     -0.17928310926659      0.70122850904466
  H   -1.98892569835960      1.39947012719938      0.34952878114380
  H   -1.37116006025890      0.40954552492637      1.69660118557827
  N   -0.45134405841759     -1.65336156962961      0.18272211713352
  O   -0.22464566841343     -1.81433941706733      1.38007620737298
  O   -0.40888843810495     -2.52387492547467     -0.68415332517570
