18
Coordinates from ORCA-job run
  C   0.67828286134047      0.48932719520218      0.20563550902026
  C   -0.80841204011270      0.14387224025268      0.33915401949909
  F   1.07768286053941      0.91068043471308      1.44577632056296
  H   -1.30502131968529      1.04466452093151      0.70478755840084
  C   1.60565942583711     -0.58530091187759     -0.28490592701085
  H   1.62022584869953     -1.39612921498475      0.44368380934257
  H   1.29275077390975     -0.97061681596042     -1.25148770194998
  H   2.61214050556482     -0.17395004576874     -0.37081698681680
  N   0.75326711793695      1.71852992801108     -0.69936331997676
  O   0.48642166774433      2.79376621822291     -0.17964032921366
  O   1.02674529353556      1.51495134967754     -1.87838010531050
  C   -1.06587485159335     -1.04681776275434      1.23792070713707
  H   -2.14097709816279     -1.17911009108134      1.37229140569463
  H   -0.61571391586854     -0.86638105265624      2.21471840139827
  H   -0.65917506775377     -1.96059523201115      0.80828782977197
  N   -1.37968172915809     -0.09158602361197     -1.02960889179879
  O   -1.97672525340987      0.85094017588980     -1.54559719857747
  O   -1.20259507936352     -1.19824491219424     -1.53445510017282
