18
Coordinates from ORCA-job run
  C   0.51053528104743      0.65659185556743     -0.25355673731288
  C   -0.80234083502927      0.11413381418459      0.30684174916845
  F   0.24146914764155      1.88793128678290     -0.77680943213120
  H   -1.11412295033600      0.83428002140277      1.06656842353062
  C   1.60651585281322      0.78028273802574      0.77581782664356
  H   2.46583729297122      1.26666426644686      0.31023201643614
  H   1.90995835659788     -0.19511592163556      1.14923128890950
  H   1.25803495654447      1.40468735767159      1.60025339188403
  N   1.03910285436715     -0.19920156205254     -1.39979896887631
  O   1.41609134170965     -1.32067437275360     -1.07327840999046
  O   1.08026259665783      0.29528272844019     -2.51427243856318
  C   -0.80615280189194     -1.29987362512245      0.85539011427252
  H   -1.79365503685071     -1.51117294970370      1.27119396063965
  H   -0.58109370877625     -2.02235421678195      0.07454182343176
  H   -0.07147955178306     -1.40415689582701      1.65434782233637
  N   -1.85746678221952      0.22078287156717     -0.75686475769896
  O   -1.67603186226409     -0.44526997817613     -1.77284749497074
  O   -2.82546415119955      0.93618258196370     -0.51799017770889
