18
Coordinates from ORCA-job run
  C   0.50320850738636      0.66520817957758     -0.24465692282503
  C   -0.80516494919738      0.10084441316950      0.30481292410028
  F   0.22083677210453      1.89824668618044     -0.75687256408954
  H   -1.12839251312458      0.80931217649699      1.07071741505378
  C   1.59341249592025      0.79238089334709      0.79034165349147
  H   1.23434863806657      1.40675196406699      1.61778243874378
  H   1.90533036439388     -0.18265065543266      1.15770227611275
  H   2.44970817754981      1.29137239695797      0.33264931631190
  N   1.04724646958365     -0.17243884468007     -1.39710132962643
  O   1.08744627397506      0.33387762448389     -2.50630656783942
  O   1.43780939077973     -1.29200466533201     -1.08002709081372
  C   -0.79362663209766     -1.31876133421249      0.83827899023340
  H   -0.55383243962557     -2.03002488015519      0.05157163487651
  H   -1.78086376064806     -1.54770681637336      1.24529007071587
  H   -0.06290724821997     -1.42106829181411      1.64112748707685
  N   -1.85704003463886      0.20607276108722     -0.76221798472017
  O   -2.83466143280871      0.90714593192559     -0.51999175762064
  O   -1.66385807939905     -0.44755753929338     -1.78409998918164
