18
Coordinates from ORCA-job run
  C   0.51504079372887      0.65184829065781     -0.25617937920059
  C   -0.80191281099842      0.12109265303684      0.30560454909289
  F   0.25451574822513      1.88220895736047     -0.78640633366273
  H   -1.10942795850266      0.84747116060745      1.06114498584334
  C   1.61065064469102      0.77393174324108      0.77362845020238
  H   1.26615519018775      1.40701256868512      1.59311225276011
  H   2.47464435053972      1.24994070349573      0.30597931557997
  H   1.90577650407505     -0.20113745493844      1.15451234699480
  N   1.03918621202257     -0.21341608169676     -1.39749184440140
  O   1.08308505188545      0.27433885057291     -2.51474083046645
  O   1.41008496273862     -1.33486089346902     -1.06400040016740
  C   -0.81584771355462     -1.29005775942237      0.86088388011427
  H   -0.08505912618219     -1.39504144086904      1.66330620603761
  H   -0.59203319271235     -2.01759690422754      0.08435439600453
  H   -1.80625434085141     -1.49401769634565      1.27347023103611
  N   -1.85532518023145      0.22941961803347     -0.75974035639862
  O   -1.67796604264127     -0.44433644971721     -1.77133960431613
  O   -2.81831309241979      0.95320013499515     -0.52609786505268
