18

C	-0.508388	-0.059055	-1.437612
C	0.0	0.0	0.0
Br	0.23747	-1.692379	-2.380519
H	1.095629	0.0	0.0
C	-1.963134	-0.307053	-1.466332
N	-3.1408	-0.354738	-1.460473
N	-0.152389	1.072873	-2.213546
H	0.055194	1.878725	-1.632126
H	-0.802895	1.264926	-2.96249
C	-0.461818	-1.198284	0.809436
H	0.085729	-1.188312	1.756544
H	-0.198869	-2.136355	0.311458
H	-1.542201	-1.203821	1.020275
C	-0.441949	1.288537	0.677785
H	-1.524373	1.480894	0.615349
H	-0.17748	1.225029	1.739148
H	0.099694	2.162901	0.299108
F	2.606581	0.0	0.0
