15

C	0.0	0.0	0.0
C	-0.261136	-0.162819	-1.528102
Cl	1.848233	0.0	0.0
H	0.3989	-0.975827	-1.836262
C	-0.401677	1.317321	0.517376
N	-0.549141	2.371111	1.018652
N	-0.447052	-1.13903	0.719806
H	-1.490648	-0.965722	0.642252
H	-0.153869	-1.027232	1.685692
C	0.101401	1.053467	-2.250469
N	0.436057	2.01575	-2.834478
N	-1.620544	-0.640309	-2.021258
O	-1.815302	-1.839824	-1.891825
O	-2.303973	0.145979	-2.657851
F	-2.508614	0.0	0.0
