15

C	0.0	0.0	0.0
C	-0.254041	0.371988	-1.495969
Cl	1.834873	0.0	0.0
H	0.358509	-0.333955	-2.059146
C	-0.389271	1.079644	0.925455
N	-0.58687	1.89749	1.746415
N	-0.487284	-1.2975	0.286342
H	-1.53623	-1.071584	0.249163
H	-0.228076	-1.523267	1.241869
C	0.189613	1.734687	-1.780123
N	0.558457	2.818089	-2.042177
N	-1.63632	0.181852	-2.110353
O	-2.286079	1.179935	-2.375197
O	-1.88567	-0.966277	-2.446319
F	-2.557568	0.0	0.0
