15

C	0.0	0.0	0.0
C	-0.270035	-0.337156	-1.495327
Cl	1.856585	0.0	0.0
H	0.399052	-1.169726	-1.719806
C	-0.397604	1.369039	0.367128
N	-0.510939	2.467058	0.774402
N	-0.442817	-1.045541	0.850577
H	-1.48712	-0.898402	0.749261
H	-0.159211	-0.81637	1.797999
C	0.064217	0.797119	-2.349955
N	0.353221	1.674453	-3.075077
N	-1.62867	-0.889189	-1.916473
O	-2.320435	-0.203112	-2.65072
O	-1.80976	-2.061766	-1.626016
F	-2.508936	0.0	0.0
