16

C	0.0	0.0	0.0
C	-0.375992	-0.409486	-1.435474
F	1.393336	0.0	0.0
H	0.14673	0.311913	-2.074267
H	-0.334797	1.029427	0.161068
C	-0.528327	-0.915622	1.073356
H	-0.180894	-1.938039	0.906065
H	-1.620607	-0.897582	1.064545
H	-0.179925	-0.578927	2.051342
C	-1.886672	-0.398978	-1.747167
H	-2.273676	-1.405254	-1.920018
H	-2.070885	0.200795	-2.642727
H	-2.494758	0.020396	-0.944612
C	0.234425	-1.711501	-1.73377
N	0.699441	-2.757968	-1.993437
Br	-4.891853	0.0	0.0
