13
Coordinates from ORCA-job run
  C   -0.30926669038350      0.14647105455122     -0.19915959693819
  C   0.97965704446649      0.51059018669211     -0.19601461914093
  H   1.37088741433920      1.30478132140214     -0.81638791853594
  N   -1.18252660858841      1.00897838435438     -1.04001395343335
  O   -2.38318413336600      0.96463204278780     -0.77810431447685
  O   -0.66446605926721      1.70354571480569     -1.90947332028699
  C   -1.01530689022731     -0.94035263992739      0.52857725879489
  H   -0.30638256026081     -1.66203478592055      0.92487660266028
  H   -1.58598026243446     -0.52166986874845      1.36019952488984
  H   -1.72288013460683     -1.43150622099506     -0.14015243579840
  N   2.00016544582007     -0.18938156582779      0.56702179798088
  O   3.12001939633072     -0.18640956682962      0.05607368027753
  O   1.69826403817804     -0.70664405634446      1.64155729400724
