13
Coordinates from ORCA-job run
  C   -0.32139980476255      0.17344209566621     -0.15359967686894
  C   0.95729265319754      0.57098883457661     -0.12553064786090
  H   1.29258385284041      1.51339409074963     -0.53558946435292
  N   -1.22456960070053      1.08388677306701     -0.90788278417658
  O   -2.28186380768198      0.58590750273934     -1.29019425395923
  O   -0.86268630152080      2.23931886561896     -1.10971669791461
  C   -0.97412841749627     -1.04271820432319      0.39808912125060
  H   -1.92808453643787     -0.77380449003115      0.85265851689384
  H   -0.33126445700905     -1.52772753713155      1.12748444815821
  H   -1.18139462444006     -1.75141415201142     -0.40652944189301
  N   2.00660461603915     -0.17769191113088      0.54664014744162
  O   1.93694118209787     -1.40523478791619      0.58775681917341
  O   2.91196924587415      0.51065292012663      1.01741391410852
