13
Coordinates from ORCA-job run
  C   -0.32142400787573      0.16237413347736     -0.16430427273914
  C   0.95744084389002      0.56019560517690     -0.16660966219165
  H   1.30164011413516      1.44131688229105     -0.68991562644378
  N   -1.25203755862194      1.10372142326558     -0.84322530355863
  O   -2.43780428805220      0.99102678340993     -0.53758470506189
  O   -0.79087942999593      1.92178460545930     -1.63371284736043
  C   -0.96808097403338     -1.03190899214596      0.43983936767415
  H   -1.51261622142294     -0.74383408972434      1.34147688506232
  H   -0.22524236552780     -1.77793967059627      0.70813766055456
  H   -1.69127691636334     -1.45160274969296     -0.26020703296517
  N   2.02839345291525     -0.20524746655279      0.45075090631326
  O   3.12304862692899     -0.10082504941232     -0.10234741135140
  O   1.78883872402385     -0.87006141495548      1.45770204206780
