13
Coordinates from ORCA-job run
  C   -0.31238426536248      0.18590782778863     -0.15834191724668
  C   0.95765301815916      0.58394034847234     -0.00838094975420
  H   1.32218287600165      1.54087270482650     -0.35492976528325
  N   -1.21048459510430      1.22174420209995     -0.73535348537915
  O   -0.71086177821199      2.16108258173192     -1.34759759410886
  O   -2.41207026008816      1.05491351966074     -0.53398044602456
  C   -0.97835113852098     -1.09431913143583      0.19819645114155
  H   -0.24314638776430     -1.87237217855090      0.38399705031768
  H   -1.65234425742897     -1.39390362726874     -0.60496180630486
  H   -1.57960667849860     -0.96249568733766      1.10020891219252
  N   1.99608336202526     -0.26736714211854      0.54878954353161
  O   1.69927157680157     -1.08945989002978      1.41447054736812
  O   3.12405852799213     -0.06854352783863      0.09788345955009
