13
Coordinates from ORCA-job run
  C   -0.33393992550282      0.21058442267955      0.03071583590281
  C   0.93061356667762      0.52861430471554      0.33673173078384
  H   1.21161622724101      1.47732767735282      0.77226215868990
  N   -1.30458031285087      1.32022373777648      0.22732925208691
  O   -2.36451891223632      1.21375412707977     -0.38707678338194
  O   -0.99147577915798      2.25577461343047      0.95779380499269
  C   -0.91748988826076     -1.04421417842447     -0.51159113070708
  H   -0.21714426174623     -1.86897605656935     -0.41304084216333
  H   -1.15754333522985     -0.91722321084006     -1.56926564571869
  H   -1.84742225568210     -1.27215998690746      0.01049002653886
  N   2.03741564879035     -0.40493830424316      0.20691383965736
  O   2.93988227931321     -0.25388090866709      1.03023516088908
  O   2.01358694864473     -1.24388623738304     -0.69249740757042
