13
Coordinates from ORCA-job run
  C   -0.27662309652291     -0.14996875246972      0.00331840037636
  C   0.99474290552959     -0.24436697339904      0.40058642878977
  H   1.38792307060349     -1.12066391383662      0.89878799206822
  N   -0.78149267554379      1.03040634750670     -0.71355135418420
  O   -1.44995303661358      1.81162085179636     -0.04666706949525
  O   -0.55928148029935      1.07734955477599     -1.91761571906914
  C   -1.32516855246436     -1.18419150403721      0.22319595485719
  H   -0.91640294523125     -2.05603157463378      0.73378500809995
  H   -2.13433280088301     -0.76167689087889      0.82383842510484
  H   -1.74256232369788     -1.49624658786241     -0.73799097998177
  N   2.00267808475051      0.77826856195255      0.16576071944846
  O   1.63358998317042      1.90420870540671     -0.15664309171404
  O   3.16688286720211      0.41129217567938      0.32319528569962
