13
Coordinates from ORCA-job run
  C   -0.27290720076748     -0.15722835434150      0.00045549575114
  C   1.00536670075577     -0.23317806203647      0.37907444478042
  H   1.42623654234839     -1.11476721192571      0.84416657848469
  N   -0.81519773693155      1.03321039239824     -0.67101419264891
  O   -0.60225326222264      1.12970300620418     -1.87383112519318
  O   -1.50045959601101      1.77112101139764      0.02750722513292
  C   -1.29320251427252     -1.22300657942370      0.20129034390505
  H   -2.10373350665139     -0.83964832676380      0.82578877811102
  H   -1.71669391017344     -1.51548861237338     -0.76341159900841
  H   -0.85615643988241     -2.10019569813367      0.67822977412324
  N   1.98460748062340      0.82196701370039      0.16705958871005
  O   3.15961841563795      0.47772619190020      0.29285798718716
  O   1.58377502754692      1.94978522939757     -0.10717329933519
