13
Coordinates from ORCA-job run
  C   -0.31979066520246      0.15150307240919     -0.17806849435130
  C   0.95307838345793      0.56810503184642     -0.16686103629053
  H   1.28513594684351      1.46758661103284     -0.66622642320124
  N   -1.21885538651999      0.96639518236608     -1.03850809618840
  O   -2.26306778860627      0.41738976939034     -1.38543299266865
  O   -0.86699817610321      2.09971643788038     -1.35250825914292
  C   -0.96928539928004     -1.00903708685953      0.48583654060530
  H   -0.33155137207091     -1.41235098731078      1.26754219507030
  H   -1.16192761178001     -1.79651050523065     -0.24578445777776
  H   -1.93062167767986     -0.70420758879106      0.90066685621921
  N   1.99742178748615     -0.09208121392469      0.59949844674227
  O   1.94475051543054     -1.31036868465276      0.76185129935449
  O   2.88171144402464      0.65485996184421      1.01799442162923
