13
Coordinates from ORCA-job run
  C   -0.27737320625683     -0.14823491245510      0.01529375479937
  C   0.99354901189357     -0.21245054932950      0.42035076782949
  H   1.38371656814677     -1.04308052824426      0.99349149246505
  N   -0.77747056318655      0.96621445078539     -0.80293464172956
  O   -1.44315179104359      1.80559933818829     -0.20773395575614
  O   -0.55358397994040      0.90730444795230     -2.00616668059346
  C   -1.32990773451986     -1.15439262915353      0.32731176785010
  H   -1.74788147888395     -1.55169017166316     -0.60166305138643
  H   -2.13798981383510     -0.67608329956372      0.88606704605285
  H   -0.92449328796387     -1.97742089217514      0.91566962422563
  N   2.00570923090385      0.78176357838934      0.09685585824842
  O   3.16844210267610      0.42470070348187      0.28517830502096
  O   1.64143494200987      1.87677046378721     -0.32272028702628
