13
Coordinates from ORCA-job run
  C   -0.27885720016825     -0.14684051212612     -0.00229782397096
  C   0.96008954238462     -0.21651270817210      0.49111871705308
  H   1.30296788371418     -1.04375908943570      1.09834281586927
  N   -0.70979734396345      0.96408989960064     -0.86371781100955
  O   -1.43337877781202      1.79827160465733     -0.33199980360899
  O   -0.37773566260236      0.90676678207394     -2.04184596841105
  C   -1.35814239550284     -1.14342655202754      0.24100993826164
  H   -0.99979421042352     -1.96743628156613      0.85786337684801
  H   -2.19879013706998     -0.65736585979095      0.74185939823620
  H   -1.71528791264090     -1.54114460203115     -0.71286062294413
  N   1.99768096914786      0.77105763885788      0.23354769093216
  O   3.14536578254293      0.40010786369417      0.47801207208261
  O   1.66567946239371      1.87519181626575     -0.18903197933828
