13
Coordinates from ORCA-job run
  C   -0.26719758549998     -0.16547780150955     -0.00835867105779
  C   0.91488856453019     -0.07137659176880      0.60570322178493
  H   1.19883415144818     -0.71388196137836      1.42866032261815
  N   -0.65309435367540      0.74367227453838     -1.09762808750139
  O   -0.57620042919138      0.28026531016480     -2.22949762042408
  O   -1.09212279916817      1.83896745725048     -0.76742789473313
  C   -1.32007975267748     -1.17072609350141      0.30538084485010
  H   -1.01444805725183     -1.81587183853422      1.12895491354597
  H   -1.51526998209777     -1.78318615636948     -0.57825843052064
  H   -2.24817840988206     -0.66043566709008      0.57696676061071
  N   1.92689434225718      0.92351066789821      0.28444427486078
  O   1.82632114356101      1.54467840462120     -0.77010441720618
  O   2.82065316764752      1.04986199567881      1.12116478317256
