13
Coordinates from ORCA-job run
  C   -0.26135853047324     -0.16289226329065     -0.06432019515747
  C   1.05034575687246     -0.28640293859058      0.15338453875400
  H   1.56717905424910     -1.23481510846936      0.08968705887095
  N   -0.93904715192303      1.14104809442596     -0.01381497386916
  O   -0.86700115754400      1.83593521951052     -1.02037564943415
  O   -1.58230800396149      1.36621249540572      1.00473068282269
  C   -1.19037424742021     -1.28556925034254     -0.37086956429423
  H   -1.95693546239013     -1.34744150517566      0.40538644205813
  H   -1.68856716348868     -1.10218423960733     -1.32672359059070
  H   -0.65602972596391     -2.23399970585648     -0.42440479264718
  N   1.93919151726722      0.82747888296754      0.44777081103337
  O   3.14017875454850      0.58133157635210      0.33821495195985
  O   1.44572636022741      1.90129874267076      0.78133428049390
