13
Coordinates from ORCA-job run
  C   -0.25822571126890     -0.14958338659375     -0.09910024968134
  C   1.00552637579122     -0.33898183151945      0.28855317183885
  H   1.44753103206410     -1.32223137858266      0.38084321022634
  N   -0.85574679521375      1.19158693660771     -0.17671724897013
  O   -1.26727408139987      1.67096814955298      0.87305987082338
  O   -0.95943236539864      1.66206149298948     -1.30366209717011
  C   -1.20440604484946     -1.22763390791028     -0.49924246882980
  H   -1.51869300863100     -1.07238805088369     -1.53415989462349
  H   -0.74207754015492     -2.21032843744102     -0.40736769495250
  H   -2.09432337156556     -1.19134503482137      0.13505439878161
  N   1.91026802515933      0.73166740520073      0.67870176768942
  O   2.92178773803500      0.36932204046157      1.27906541297416
  O   1.61506574743242      1.88688600293973      0.38497182189361
