13
Coordinates from ORCA-job run
  C   -0.26115645863835     -0.17464497801772     -0.01576697141098
  C   0.91602348067794     -0.06888232014898      0.60558737093861
  H   1.21708039830968     -0.73133235779205      1.40634681207592
  N   -0.67090751125620      0.76417521999385     -1.07100176107966
  O   -1.13173870078949      1.83787316590383     -0.70213311390312
  O   -0.58782624701414      0.34189758243615     -2.21855521135927
  C   -1.28797752376696     -1.21766430768713      0.25849276659103
  H   -1.46646564583697     -1.80215438341696     -0.64728112780848
  H   -0.96772682918314     -1.88431026622878      1.05909032468252
  H   -2.22898967441064     -0.74095585513229      0.54638414173742
  N   1.89933775235085      0.96582935567626      0.32246592236849
  O   1.78996552595827      1.61265688343687     -0.71559879919944
  O   2.78038143359916      1.09651226097696      1.17196964636696
