13
Coordinates from ORCA-job run
  C   -0.25766056952359     -0.14258727041146     -0.11526015048763
  C   0.98341992649056     -0.37340045437457      0.31996400524668
  H   1.39612933585618     -1.36941081491081      0.41101861731345
  N   -0.81339890267525      1.21722207865232     -0.18156438554472
  O   -0.90615036697688      1.69767256693113     -1.30542800025210
  O   -1.20219939245227      1.70601306928535      0.87272006728870
  C   -1.21341342698824     -1.18473834264990     -0.58138644031738
  H   -0.77840091992697     -2.18064143449627     -0.49832453889785
  H   -1.48120210381854     -0.99425080068624     -1.62334276563926
  H   -2.12745384125801     -1.14365645161443      0.01723404138774
  N   1.89382449428031      0.66667558775678      0.77526743815090
  O   1.67668694104355      1.82680480320377      0.43644696540772
  O   2.82881882594915      0.27429746331431      1.47265514634377
