13
Coordinates from ORCA-job run
  C   -0.27936788960238     -0.14460058723489     -0.00180091782935
  C   0.97829881351692     -0.25152897790930      0.43415339028629
  H   1.33915805828979     -1.11908792114892      0.97061668906234
  N   -0.74059053374344      1.02282262524031     -0.76747507800402
  O   -1.40884743530236      1.83819876509420     -0.14270210375556
  O   -0.48753397497892      1.02681260863985     -1.96638466684959
  C   -1.35463804151026     -1.14997650804795      0.22309969780009
  H   -2.17088154248772     -0.69201216592548      0.78695451367178
  H   -0.97758385477450     -2.01190337012256      0.77338844761899
  H   -1.75227231298716     -1.48616315594914     -0.73834672267739
  N   2.01345311396650      0.74357790679809      0.19783510923125
  O   1.67744829499078      1.86358556320994     -0.17710564776465
  O   3.16435730462275      0.36127521735585      0.40776728920981
