13
Coordinates from ORCA-job run
  C   -0.93282842849864     -0.56310792389876     -0.08651763633212
  C   0.31779124790121     -0.42619263816998      0.74317731550622
  F   -1.97625714819949     -0.98207549103247      0.68213704860810
  H   0.06496537932682      0.20348852904507      1.60045168610675
  H   -0.83212417394371     -1.22239648656950     -0.94895643669488
  H   0.55295801906797     -1.42381033083040      1.12481100883838
  N   -1.29116915344968      0.78837121601066     -0.65050196641817
  O   -1.77024880215246      1.60395215352947      0.12796672236273
  O   -1.01502657938365      0.97335365790700     -1.83379140416800
  C   1.49141067324901      0.15059126324229     -0.04204759465513
  H   1.68362615194561     -0.42017676014933     -0.95338218498637
  H   2.39655846309424      0.12859078246461      0.56634593241297
  H   1.31034435104279      1.18741202845133     -0.32969249058046
