13
Coordinates from ORCA-job run
  C   -0.94667486959162     -0.54558153118814     -0.04150869875258
  C   0.32967909488270     -0.40745225714368      0.74806885702233
  F   -1.97597699922446     -0.91477855264103      0.77036059059903
  H   0.55515148367695     -1.39644575906966      1.15703061318695
  H   -0.88453800394089     -1.23656275805137     -0.88250329969560
  H   0.11358756722801      0.25552698396790      1.59020455999490
  N   -1.29239979806252      0.79281469881441     -0.64288437792933
  O   -1.73799611496455      1.64367854094939      0.11738690744429
  O   -1.03922487581063      0.93209045424805     -1.83752399621457
  C   1.49275983563943      0.11761571860554     -0.08745653608043
  H   1.32540254498569      1.14810389073076     -0.40454596629101
  H   1.64742659580973     -0.48666772302995     -0.98419643549551
  H   2.41380353937216      0.09565829380777      0.49656778221154
