13
Coordinates from ORCA-job run
  C   -0.99265647201786     -0.45996728574963      0.14009490236134
  C   0.45289289382302     -0.79756082825413     -0.13899648953376
  F   -1.22095832668846     -0.33447669301954      1.47309345197841
  H   0.55751727672462     -0.96714251532558     -1.21286498755673
  H   -1.69954878530901     -1.17791305594586     -0.27859341281668
  H   0.65479790485891     -1.74599797972837      0.36742624541951
  N   -1.31790766583487      0.85955766994206     -0.52319748792051
  O   -1.35049309945366      0.81276295950292     -1.74925567021986
  O   -1.47578732548841      1.84619329705689      0.18109397547323
  C   1.41102585315946      0.28634998143846      0.34444193467966
  H   1.29694024443152      1.20613402934162     -0.23247580281355
  H   1.23963591473503      0.52028806010075      1.39581681625190
  H   2.44354158705971     -0.04822763935959      0.23341652469705
