13
Coordinates from ORCA-job run
  C   -0.68957229899970      0.49021897174413      0.00422374989064
  C   0.72790364971800      0.69988285482018     -0.53754089508524
  Br  -0.81126490447897      1.23785910701215      1.81820432798800
  H   0.71466659323747      0.38151507079777     -1.58744352851190
  H   -1.38734985269863      1.09385135221736     -0.58183093592580
  H   0.95134676732547      1.76980612492505     -0.53374141862028
  C   -1.13176806804308     -0.95987475031774      0.02957017010017
  H   -1.06432734611051     -1.37721697001726     -0.98082367517376
  H   -2.16258765108062     -1.05349549577334      0.37266423484486
  H   -0.50167220170915     -1.55171760176287      0.69510110659802
  N   1.81332621854278      0.00601258375859      0.12874810373398
  H   1.84316812028879      0.26087630137207      1.10794018708527
  H   1.69913097400816     -0.99671754877610      0.06592857307604
