15

C	0.0	0.0	0.0
C	-0.242027	-0.073736	-1.544795
F	1.355184	0.0	0.0
H	0.458857	-0.863422	-1.833318
H	-0.342324	0.891351	0.509133
N	-0.591861	-1.146373	0.685885
O	-0.575247	-2.234145	0.047351
O	-0.590535	-1.093305	1.939836
C	0.273579	1.178885	-2.113068
N	0.651779	2.192581	-2.571618
C	-1.580079	-0.421067	-2.197705
H	-1.965583	-1.328141	-1.740209
H	-1.401537	-0.591485	-3.272289
H	-2.311041	0.373984	-2.069054
H	-2.151818	0.0	0.0
