15

C	0.0	0.0	0.0
C	-0.489634	-0.245733	-1.416926
F	1.350214	0.0	0.0
H	-1.589095	-0.168643	-1.340436
H	-0.378262	0.980183	0.341437
N	-0.582971	-0.944216	0.950627
O	-0.318492	-0.703195	2.155133
O	-1.740102	-1.364537	0.514323
C	-0.133298	-1.586359	-1.877363
N	0.169902	-2.619641	-2.348518
C	0.061676	0.812981	-2.373834
H	1.151763	0.781505	-2.414494
H	-0.247906	1.804585	-2.032624
H	-0.330474	0.659012	-3.382203
H	-2.795127	0.0	0.0
