17

C	0.0	0.0	0.0
C	-0.283582	-0.054513	-1.555673
Cl	1.761371	0.0	0.0
H	0.466543	0.629241	-1.960472
N	-0.568372	1.222294	0.616137
O	-0.529023	2.245984	-0.1061
O	-0.62149	1.254121	1.861223
C	-0.493432	-1.167202	0.718009
N	-0.612635	-2.207849	1.264071
C	-1.621377	0.391094	-2.14476
H	-1.443734	0.544382	-3.223577
H	-2.392462	-0.368942	-2.027027
H	-1.966227	1.328456	-1.713522
N	0.09078	-1.406341	-1.984012
H	-0.66012	-2.039083	-1.721889
H	0.145022	-1.412556	-2.996511
H	-2.012779	0.0	0.0
