17

C	0.0	0.0	0.0
C	-0.294418	-0.012143	-1.553235
Cl	1.761706	0.0	0.0
H	0.512272	0.601733	-1.96216
N	-0.443099	1.271034	0.654933
O	-0.390768	2.291071	-0.049187
O	-0.53186	1.275304	1.886636
C	-0.576623	-1.128077	0.709936
N	-0.645285	-2.165057	1.280229
C	-1.584753	0.549751	-2.15206
H	-2.412967	-0.149274	-2.056702
H	-1.37772	0.713524	-3.224378
H	-1.868165	1.500687	-1.705548
N	-0.033357	-1.391253	-1.976473
H	-0.04192	-1.414119	-2.990612
H	-0.811337	-1.964767	-1.659526
H	-2.034463	0.0	0.0
