17

C	0.0	0.0	0.0
C	-0.304177	0.018562	-1.5531
Cl	1.761436	0.0	0.0
H	0.530235	0.590572	-1.965123
N	-0.384949	1.298196	0.669826
O	-0.304477	2.316908	-0.024129
O	-0.516165	1.291476	1.892495
C	-0.658015	-1.093172	0.694207
N	-0.706904	-2.132552	1.270244
C	-1.56436	0.653652	-2.145357
H	-1.348151	0.822023	-3.214963
H	-2.426691	-0.002447	-2.055145
H	-1.801534	1.612795	-1.689936
N	-0.116831	-1.370066	-1.982553
H	-0.183988	-1.393544	-2.994866
H	-0.898921	-1.910099	-1.619949
H	-2.052328	0.0	0.0
