17

C	0.0	0.0	0.0
C	-0.249109	-0.00953	-1.579141
Cl	1.769771	0.0	0.0
H	0.471407	0.728408	-1.940756
N	-0.504993	1.225215	0.660772
O	-0.580848	1.218551	1.900481
O	-0.466904	2.261075	-0.034233
C	-0.538767	-1.174684	0.658331
N	-0.61632	-2.256044	1.135366
C	-1.596174	0.391232	-2.161898
H	-2.341682	-0.396591	-2.054294
H	-1.422933	0.564199	-3.23319
H	-1.973348	1.301754	-1.702645
N	0.110854	-1.301016	-2.156435
H	1.040644	-1.564667	-1.855236
H	-0.527104	-2.001038	-1.789542
H	-1.96216	0.0	0.0
