18

C	0.0	0.0	0.0
C	-0.388837	0.027715	-1.477109
F	1.433594	0.0	0.0
H	-1.487093	0.043406	-1.465195
C	-0.449325	1.237955	0.734581
H	-1.542686	1.276487	0.664482
H	-0.008909	2.12933	0.289994
H	-0.148056	1.143955	1.780736
N	-0.481509	-1.163799	0.672621
H	-1.494294	-0.990355	0.762022
H	-0.399681	-1.932961	0.013549
N	0.051681	-1.232515	-2.093114
H	1.059586	-1.199267	-2.204421
H	-0.366575	-1.320326	-3.01189
N	0.108776	1.249733	-2.110044
H	1.122928	1.231886	-2.07486
H	-0.172159	1.256404	-3.084117
H	-3.259723	0.0	0.0
