18

C	0.0	0.0	0.0
C	-0.44421	0.048692	-1.485129
F	1.409064	0.0	0.0
H	0.358248	-0.479664	-2.020805
C	-0.516647	1.128519	0.852989
H	-0.188759	0.989048	1.888615
H	-0.12764	2.078733	0.488211
H	-1.612126	1.104207	0.81823
N	-0.404306	-1.256679	0.563012
H	-0.108884	-1.296069	1.531174
H	0.064333	-2.00426	0.062
N	-0.418948	1.44016	-1.943133
H	-1.24051	1.878206	-1.531452
H	-0.637539	1.387497	-2.934168
N	-1.706041	-0.584634	-1.808195
H	-2.46422	-0.262809	-1.162358
H	-1.638803	-1.576439	-1.602428
H	-3.791805	0.0	0.0
