18

C	0.0	0.0	0.0
C	-0.425023	0.086706	-1.468694
F	1.404503	0.0	0.0
H	-1.515438	0.189656	-1.451027
C	-0.420448	1.230422	0.779763
H	-1.516057	1.256062	0.767948
H	-0.061067	1.136144	1.812137
H	-0.011073	2.13671	0.332332
N	-0.512295	-1.22702	0.544531
H	-1.538133	-1.112369	0.420704
H	-0.365949	-1.202738	1.549909
N	-0.087409	-1.123502	-2.229349
H	-0.665209	-1.871879	-1.858201
H	0.862681	-1.37323	-1.961795
N	0.173354	1.2693	-2.071686
H	1.179561	1.173588	-1.996815
H	-0.048118	1.225545	-3.059893
H	-3.195309	0.0	0.0
