18

C	0.0	0.0	0.0
C	-0.432255	-0.284918	-1.457582
F	1.425936	0.0	0.0
H	0.355849	0.163929	-2.076848
C	-0.468096	1.340651	0.505664
H	-1.558805	1.321037	0.583521
H	-0.022864	1.530557	1.487264
H	-0.150578	2.137643	-0.169842
N	-0.446783	-1.042457	0.856505
H	0.059421	-1.882903	0.622599
H	-0.30533	-0.807666	1.828648
N	-1.709758	0.250567	-1.8751
H	-1.649273	1.263037	-1.953042
H	-2.466564	0.064874	-1.172313
N	-0.382127	-1.735304	-1.664572
H	-1.207643	-2.092144	-1.185229
H	-0.582718	-1.869168	-2.651544
H	-3.79174	0.0	0.0
