18

C	0.0	0.0	0.0
C	-0.401	-0.019093	-1.476394
F	1.419405	0.0	0.0
H	-1.498276	0.017072	-1.453494
C	-0.453146	1.263024	0.690868
H	-0.01877	2.139545	0.21151
H	-1.54667	1.294844	0.624228
H	-0.147783	1.210063	1.738337
N	-0.488197	-1.136468	0.713319
H	-1.502555	-0.960875	0.786326
H	-0.399846	-1.931358	0.085918
N	0.004667	-1.307067	-2.057007
H	0.999007	-1.278291	-2.254165
H	-0.489607	-1.45066	-2.929534
N	0.115662	1.169185	-2.154544
H	1.128913	1.150511	-2.094334
H	-0.141113	1.130186	-3.134452
H	-3.258326	0.0	0.0
