18

C	0.0	0.0	0.0
C	-0.369808	0.018455	-1.508285
F	1.38758	0.0	0.0
H	0.432095	0.607065	-1.975252
C	-0.399555	1.296779	0.690853
H	-0.023803	2.160633	0.137344
H	-1.48622	1.355816	0.758942
H	0.042282	1.29797	1.695572
N	-0.528121	-1.172248	0.649958
H	-0.303463	-1.109569	1.640552
H	-1.55028	-1.060887	0.583433
N	-1.607936	0.728565	-1.723974
H	-1.893405	0.631349	-2.692156
H	-2.380461	0.385364	-1.115641
N	-0.224235	-1.34986	-2.048999
H	-0.694451	-1.983633	-1.410929
H	-0.724377	-1.379355	-2.930468
H	-3.480872	0.0	0.0
