18

C	0.0	0.0	0.0
C	-0.35574	-0.091991	-1.51363
F	1.402742	0.0	0.0
H	-0.129237	0.908651	-1.919336
C	-0.467744	1.284054	0.642897
H	-1.560869	1.291656	0.632272
H	-0.117282	1.324023	1.679061
H	-0.075431	2.155034	0.110052
N	-0.429334	-1.195773	0.670325
H	-0.472583	-1.021214	1.667953
H	-1.381087	-1.39082	0.369155
N	-1.700895	-0.540094	-1.703801
H	-2.417179	-0.211424	-1.020596
H	-2.023228	-0.314395	-2.63484
N	0.499286	-1.025861	-2.249274
H	1.458994	-0.875408	-1.962914
H	0.227152	-1.942024	-1.913963
H	-3.654696	0.0	0.0
