15

C	-0.376197	-0.010538	-1.483401
C	0.0	0.0	0.0
Cl	0.205029	1.501997	-2.266343
H	1.093022	0.0	0.0
H	-0.346028	-0.965186	0.402546
C	0.347795	-1.185213	-2.126753
H	1.39094	-1.092276	-1.811932
H	-0.064615	-2.121794	-1.74025
H	0.252344	-1.175282	-3.212946
C	-1.825582	-0.049695	-1.680173
N	-2.99272	-0.132218	-1.798353
N	-0.547946	1.143689	0.7107
H	0.190552	1.535168	1.28234
H	-1.31609	0.878206	1.313298
F	2.684106	0.0	0.0
