15

C	-0.289647	-0.050144	-1.503401
C	0.0	0.0	0.0
Cl	0.063709	1.576971	-2.220939
H	1.100181	0.0	0.0
H	-0.363012	-0.951213	0.410055
C	0.69094	-1.046642	-2.116534
H	0.672747	-1.010549	-3.207324
H	1.676111	-0.787421	-1.702378
H	0.423646	-2.055874	-1.785766
C	-1.687338	-0.3445	-1.822836
N	-2.796783	-0.647411	-2.06667
N	-0.682336	1.108104	0.671998
H	-0.059788	1.90713	0.620057
H	-0.748069	0.874713	1.655599
F	2.736259	0.0	0.0
