18

C	-0.554856	-0.054092	-1.400964
C	0.0	0.0	0.0
F	-0.038873	-1.159121	-2.039177
H	1.088562	0.0	0.0
N	-1.961453	-0.121354	-1.493826
H	-2.32997	0.683004	-0.997927
H	-2.219583	-0.052516	-2.472635
N	0.011892	1.097098	-2.286253
O	0.954011	1.759609	-1.883673
O	-0.525237	1.20144	-3.391715
C	-0.277255	-1.276922	0.775562
H	0.129811	-2.114431	0.207598
H	-1.343293	-1.434393	0.954684
H	0.263356	-1.214476	1.719336
N	-0.462624	1.15306	0.707924
O	-0.14659	1.248118	1.908309
O	-1.075432	2.06232	0.08729
H	2.446382	0.0	0.0
