18

C	-0.602957	-0.039775	-1.394721
C	0.0	0.0	0.0
F	-0.459878	-1.307323	-1.914793
H	1.090473	0.0	0.0
N	-1.970287	0.300974	-1.440939
H	-2.052813	1.241202	-1.066556
H	-2.272093	0.325297	-2.408588
N	0.236974	0.797865	-2.414433
O	1.384347	0.420599	-2.612426
O	-0.323437	1.738736	-2.974742
C	-0.338619	-1.23343	0.809203
H	0.043635	-2.110845	0.287799
H	0.172921	-1.154817	1.767376
H	-1.414989	-1.336337	0.967755
N	-0.345303	1.207323	0.667476
O	-0.494739	2.243007	-0.035199
O	-0.277095	1.238578	1.912876
H	2.394074	0.0	0.0
