18

C	-0.25728	-0.075361	-1.496094
C	0.0	0.0	0.0
F	-0.28243	1.166715	-2.122219
H	1.092768	0.0	0.0
N	0.666552	-0.960666	-2.029
H	0.648907	-0.980908	-3.039303
H	1.597375	-0.754035	-1.63263
N	-1.694545	-0.547947	-1.810499
O	-1.858955	-1.34185	-2.734032
O	-2.586623	-0.034855	-1.139083
C	-0.472938	-1.233817	0.734761
H	-0.01445	-1.250799	1.724675
H	-1.556635	-1.257641	0.849471
H	-0.131613	-2.112529	0.185429
N	-0.455446	1.239909	0.648354
O	-0.023184	2.305493	0.208299
O	-1.172332	1.146736	1.652102
H	2.658629	0.0	0.0
