18

C	-0.278925	0.186338	-1.497637
C	0.0	0.0	0.0
F	-1.442388	0.890838	-1.74783
H	1.089812	0.0	0.0
N	0.815424	0.730669	-2.131763
H	0.896315	0.4867	-3.106337
H	1.685041	0.554296	-1.60254
N	-0.657072	-1.230732	-2.0868
O	-1.823186	-1.598253	-1.998409
O	0.260252	-1.890209	-2.570157
C	-0.518546	-1.250641	0.663077
H	-0.070283	-2.118611	0.175608
H	-1.605787	-1.330782	0.634782
H	-0.188655	-1.250128	1.701543
N	-0.422282	1.219678	0.714487
O	-1.101407	1.09535	1.741782
O	-0.019792	2.298182	0.278835
H	2.657682	0.0	0.0
