18

C	-0.344611	0.027012	-1.491851
C	0.0	0.0	0.0
F	-1.619031	0.481014	-1.696752
H	1.091124	0.0	0.0
N	0.54927	0.730267	-2.341284
H	0.464965	1.700908	-2.055063
H	1.490096	0.446699	-2.049229
N	-0.342746	-1.432388	-1.964334
O	-1.418956	-2.020194	-1.999805
O	0.752352	-1.911977	-2.23283
C	-0.514405	-1.172392	0.799335
H	-0.199766	-1.053503	1.83535
H	-0.055194	-2.086982	0.419284
H	-1.601845	-1.266206	0.764589
N	-0.39272	1.279242	0.588871
O	-0.892925	1.291151	1.722022
O	-0.117281	2.312948	-0.040076
H	2.585559	0.0	0.0
