13
Coordinates from ORCA-job run
  C   0.11564460164412     -0.11904977287717      0.36263927285786
  C   -0.08718355828655      1.35334791373686      0.04245272100193
  F   0.01696994802603     -0.21521053740388      1.75789491388510
  H   -1.06469784767885      1.69618418831400      0.38756844175170
  H   0.67979055704075      1.94381856258809      0.54999695349372
  H   -0.00851841511262      1.52567592104701     -1.03321912902068
  C   -0.96147347130118     -1.00871779384179     -0.22293682800106
  H   -0.98032634524012     -0.93989436212525     -1.31346189463625
  H   -1.93716377394808     -0.70987910053696      0.16159976746882
  H   -0.76696329816595     -2.04134390423726      0.06901597311883
  N   1.41198563162863     -0.63690867608461      0.01072918328665
  H   2.13670149229651      0.04581733701755      0.19489095927928
  H   1.44623447909730     -0.89383977559660     -0.96617033448592
