14
Coordinates from ORCA-job run
  C   -0.65650908588015     -0.38301251446196      0.58711372270868
  C   0.80629032158981      0.03879451511341      0.60798803727478
  Br  -1.39130263680846     -0.19790113752418      2.40091876512974
  H   0.86672708260538      1.08684559134758      0.91937130576361
  H   -0.73237757515879     -1.45333641739082      0.37845785718100
  H   1.32755334999353     -0.54638879319816      1.37076631504928
  C   -1.52174969056859      0.40682383790708     -0.37738131301790
  H   -2.56754332226053      0.10624444342730     -0.30257155197465
  H   -1.19246573776304      0.23440850682512     -1.40543892370466
  H   -1.45526564384347      1.47625578005647     -0.16359721834448
  C   1.49026140517627     -0.15404924723362     -0.74517676100969
  H   1.36696288303342     -1.17854589815850     -1.10783484707698
  H   1.09651392236279      0.52432094629433     -1.50395339297972
  H   2.56190472752181      0.03854038699594     -0.65766199499902
