14
Coordinates from ORCA-job run
  C   -0.70885964716261     -0.35237117250391      0.63207008986739
  C   0.65949199920494     -0.78995975838033      0.12213722439015
  Br  -0.51505831551519      0.69667111906138      2.28564426788562
  H   0.47291375534926     -1.51223006017996     -0.68385236595329
  H   -1.26754622658275     -1.23388209890553      0.95381134241793
  H   1.17108456904089     -1.33722346114778      0.91912147735072
  C   -1.52661985685445      0.44321597523116     -0.36893462908087
  H   -2.52893771177273      0.63862400737867      0.01467894891250
  H   -1.61652632308480     -0.12877247223524     -1.29862815771015
  H   -1.05856166094822      1.40174900280623     -0.59488252831479
  C   1.55220447447571      0.33204172130295     -0.39545218723346
  H   1.71455163519389      1.09122355208768      0.37161175568926
  H   1.12449221232492      0.81838826159227     -1.27426437052690
  H   2.52737109633112     -0.06647461610757     -0.68406086769409
