9
Coordinates from ORCA-job run
  C   -0.64754462985006      0.11140783383410     -0.53353889340876
  C   0.22053725837602      0.00564783261465      0.48031740197095
  H   -0.33285872026532     -0.12725000064771     -1.54491567026771
  H   0.02045219398688      0.21476651787096      1.52332995615904
  C   -1.98984511975215      0.53452448010365     -0.30741890734377
  N   -3.10086582944002      0.88172878298633     -0.13572267782251
  N   1.59294530010319     -0.43062304444947      0.22516027193716
  O   1.92039293211418     -0.69305186825717     -0.92759495926285
  O   2.31478661472728     -0.49615053405534      1.22038347803845
