9
Coordinates from ORCA-job run
  C   -0.69251326525232      0.00854128754310     -0.48585698025461
  C   0.27236637074219      0.12913574158637      0.43444218614485
  H   -0.50777157425862     -0.55400977786275     -1.39598903267287
  H   0.20261591001485      0.66233975339268      1.37380409212506
  C   -1.97015771405450      0.60977105371409     -0.29094599574429
  N   -3.02880144268825      1.10161347017199     -0.14353428094235
  N   1.57524845331027     -0.49777697490551      0.21387626400251
  O   1.75535145403862     -1.12699772090987     -0.82365380433589
  O   2.39466180814776     -0.33361683273011      1.11785755167761
