9
Coordinates from ORCA-job run
  C   -1.00816483013594     -0.23980938427533      0.12359168386492
  C   0.22546971919878     -0.73514686843723      0.29966889954239
  H   -1.83976196885614     -0.87780198670562      0.41001018838261
  H   0.41716625735834     -1.71996386994543      0.70477890391340
  C   -1.35157262698734      1.04194833687190     -0.39949654298115
  N   -1.75464038457177      2.06739272970079     -0.81224075517475
  N   1.45285830903286     -0.01663581581007     -0.02932228327423
  O   2.49353793330411     -0.62955301838983      0.21322737224245
  O   1.36610759165711      1.10956987699081     -0.50821746651563
