9
Coordinates from ORCA-job run
  C   -0.78884283498012     -0.18914030890312     -0.24206694041440
  C   0.37211110901864      0.33176074464560      0.17449456782032
  H   -0.84593546729685     -1.23780842797461     -0.51745913911632
  H   0.54632345276343      1.35751551403754      0.47288032638294
  C   -1.96241083542406      0.61522630585467     -0.32942041989207
  N   -2.93865280736488      1.26751965799892     -0.40625112854602
  N   1.56406714640656     -0.51161954154134      0.25755350240229
  O   2.58231119733385      0.05847645030498      0.64987284079946
  O   1.47002903954343     -1.69293039442265     -0.05960360943621
