9
Coordinates from ORCA-job run
  C   -0.73280381441404     -0.07389789795089     -0.41706761843231
  C   0.30435623532551      0.19198446684533      0.38684604591746
  H   -0.60945591291088     -0.75032288991478     -1.25732384792783
  H   0.29811514612702      0.84612139011434      1.24920090375313
  C   -2.00727509376710      0.52228119262635     -0.18858993493755
  N   -3.06456859417234      1.00733585391408     -0.01168490738380
  N   1.60376623773364     -0.42972324772673      0.13406453469147
  O   1.71422123575650     -1.18981071198402     -0.82248339978607
  O   2.49364456032169     -0.12396815592369      0.92803822410549
