9
Coordinates from ORCA-job run
  C   -0.66441463921568      0.04615986643581     -0.52063221704838
  C   0.23856276569465      0.07189630906913      0.46750822197980
  H   -0.39429486520535     -0.35509240376595     -1.49268785304280
  H   0.08464063711969      0.44694251459602      1.47108434484718
  C   -1.98659263954855      0.53951331140024     -0.31974720983598
  N   -3.08152138701486      0.94409091674274     -0.17182089160477
  N   1.58939483277492     -0.43889421982265      0.23587933837244
  O   2.35118557931290     -0.35945620880409      1.19961244784747
  O   1.86203971608228     -0.89616008585124     -0.86919618151496
