9
Coordinates from ORCA-job run
  C   -1.01504334231624     -0.20958857221269      0.12607366012252
  C   0.19320131515162     -0.48540220536983      0.63841402051423
  H   -1.87082421552215     -0.67892489280677      0.60347642109924
  H   0.34220579266666     -1.14028804730288      1.48664287586149
  C   -1.30193540847561      0.63860460891636     -0.98433010392958
  N   -1.65980721921270      1.31058122338275     -1.88125348669914
  N   1.44665858959157      0.05781328545898      0.12383227664217
  O   2.45658611594111     -0.30767002347967      0.72701992927988
  O   1.40895837217574      0.81487462341376     -0.84087559289082
