9
Coordinates from ORCA-job run
  C   -0.99620697284905     -0.31125063425619      0.02618715047740
  C   0.25795686550353     -0.76811265778068      0.15549004969725
  H   -1.79787996255338     -1.03592550561309      0.13860450630560
  H   0.49364536528862     -1.80334351820108      0.36401420172279
  C   -1.39565259975370      1.03072577923449     -0.24615485004306
  N   -1.84417138870037      2.09621165944339     -0.46470010250252
  N   1.45125660834802      0.06427845612987      0.03664038034216
  O   2.51741995555304     -0.53138293188143      0.19764286791966
  O   1.31463212916328      1.25879935292472     -0.20772420391927
