9
Coordinates from ORCA-job run
  C   -0.80414752900451      0.10652760065170      0.24193182508498
  C   0.39901342594999      0.04996090252284     -0.34280543190701
  H   -0.94729414082536     -0.31719266556586      1.23136098867419
  H   0.65893343309572      0.43678537489369     -1.31975803052464
  C   -1.91079321305246      0.71654534014280     -0.41716982111699
  N   -2.83185235200771      1.21795384360602     -0.95063135967988
  N   1.52078035641000     -0.58048738802882      0.35252296658536
  O   1.32922221042631     -1.05161511689218      1.46895330451390
  O   2.58613780900802     -0.57847789133019     -0.26440444162991
