9
Coordinates from ORCA-job run
  C   -0.69168156585447      0.01124119019862     -0.48674686584182
  C   0.26556591219544      0.11069459178706      0.44402259296886
  H   -0.48131099025865     -0.48138734628332     -1.43117114032519
  H   0.17176075570032      0.57617898429440      1.41669126401864
  C   -1.99358908112163      0.54512087276780     -0.25948637465308
  N   -3.07189366320385      0.98336019141055     -0.08762682197571
  N   1.59392645892836     -0.44552209512906      0.18838699473535
  O   1.80167129375719     -0.99756105095066     -0.88724619298176
  O   2.40555088173633     -0.30312536537001      1.10317654266846
