9
Coordinates from ORCA-job run
  C   -1.02070855642119     -0.11499057169558      0.18706360257027
  C   0.18482596826755     -0.32401251483023      0.73591080447100
  H   -1.88660399782987     -0.40464274771187      0.77598612435613
  H   0.32306704910644     -0.75755916423396      1.71758144224985
  C   -1.29301499120685      0.44947947117305     -1.09429376446004
  N   -1.64007344202002      0.89922274387111     -2.12455937711808
  N   1.45043372689258      0.00549565060244      0.08723547656960
  O   2.45591499102571     -0.25449422354747      0.74970624402274
  O   1.42615925218564      0.50150135637251     -1.03463055266146
