9
Coordinates from ORCA-job run
  C   -0.79914649105819      0.27833599536626      0.01002963568032
  C   0.38347899040779     -0.32488655421087     -0.16356587907020
  H   -0.88386486310537      1.12259032198521      0.68739712849891
  H   0.58588767396874     -1.17030500298580     -0.80837070700972
  C   -1.95953299392414     -0.17175368593817     -0.68496541792503
  N   -2.92551230752298     -0.53155686439065     -1.25225397691058
  N   1.56128637250729      0.15313021837900      0.55988881221158
  O   2.60085438985733     -0.46690806669736      0.33489393226044
  O   1.43654922886954      1.11035363849238      1.31694647226429
