9
Coordinates from ORCA-job run
  C   -0.62455973317265      0.44214102702344     -0.35894912703203
  C   0.18956497608522     -0.34860216533617      0.35129085954435
  H   -0.22199915213458      1.05522968712279     -1.15967089144165
  H   -0.09651334849450     -1.00021961383116      1.16686438420940
  C   -2.02173720328835      0.49627064706026     -0.08161837562627
  N   -3.17645043492818      0.55522927604020      0.13606998628838
  N   1.62010356717911     -0.38315197966809      0.04928766146358
  O   2.04432651650933      0.31822486474272     -0.86340047422408
  O   2.28726481224460     -1.13512174315399      0.76012597681831
