9
Coordinates from ORCA-job run
  C   -0.98985228633994     -0.32207609835212     -0.08212325141663
  C   0.24489660815829     -0.76108157453355      0.20239601832385
  H   -1.79178615535374     -1.05431833818984     -0.04708279390757
  H   0.46423210828827     -1.78896171914183      0.45945206701213
  C   -1.36766331995840      1.00895348136442     -0.42858229158726
  N   -1.79628205443152      2.06422098778004     -0.72346549691065
  N   1.43636091202729      0.08229042067608      0.20293044054646
  O   2.48329163916892     -0.49934148026589      0.49124013342295
  O   1.31680254844083      1.27131432066269     -0.07476482548327
