9
Coordinates from ORCA-job run
  C   -1.01119695785498     -0.16138395541842      0.20367206704074
  C   0.21025067073245     -0.65271486780267      0.45849780128476
  H   -1.85356712679173     -0.68006254543385      0.65294407973871
  H   0.38223072709331     -1.52263613917495      1.07861196831483
  C   -1.32818295999750      0.97443157581838     -0.59911290725275
  N   -1.70955153671264      1.88904499794118     -1.23324350161870
  N   1.44953053717710     -0.08344724431523     -0.06215813247126
  O   1.38654044202989      0.91227357212318     -0.77614302263681
  O   2.47494620432410     -0.67650539373762      0.27593164760047
