9
Coordinates from ORCA-job run
  C   -0.74638149416417     -0.04099132352231     -0.39641974701721
  C   0.31434388159653      0.14848517727211      0.39829767239274
  H   -0.63658005009132     -0.59015938612989     -1.32657389940604
  H   0.32423415904883      0.67708868461859      1.34288042004655
  C   -2.02900750800135      0.46885501643622     -0.04047921455012
  N   -3.09355058904630      0.88311289525226      0.24149623251398
  N   1.62068362338642     -0.38526075599014      0.01374502607017
  O   2.53229572094232     -0.16186443436698      0.81046719005859
  O   1.71496225632903     -1.00026587356987     -1.04341368010867
