18

C	0.0	0.0	0.0
C	-0.551591	0.009532	-1.489291
Cl	1.726648	0.0	0.0
H	-1.647903	-0.015415	-1.545549
N	-0.433569	1.434794	0.720124
O	-1.665407	1.369517	1.009049
O	0.349768	2.287102	1.119335
N	-0.40283	-1.24173	0.688748
O	-1.181582	-2.125298	0.13899
O	0.047027	-1.372314	1.843474
C	-0.05321	-1.112384	-2.361776
H	-0.547426	-1.038368	-3.335519
H	1.024008	-1.074425	-2.489861
H	-0.360004	-2.039355	-1.87049
N	-0.264429	1.359366	-2.079776
O	-1.087584	2.244599	-1.839748
O	0.73326	1.496466	-2.787076
H	-1.591799	0.0	0.0
