13
Coordinates from ORCA-job run
  C   -0.32144524556284     -0.02308950138874      0.54508197756905
  C   1.15641600171675      0.34087377626920      0.30630371676666
  Br  -0.82961522678541      0.78074637294622      2.26478596680930
  H   1.77223274738411     -0.04227989720146      1.12369750644737
  H   1.25130445855922      1.43039173227767      0.29609104471224
  C   -1.23525791508706      0.51724397544110     -0.54865860882477
  H   -1.12292951897912      1.60092206920126     -0.62013251403430
  H   -0.96840891832217      0.06239326470075     -1.50601820540226
  H   -2.27626192088544      0.28409617536196     -0.32445593065851
  C   -0.46629236973498     -1.47056643865978      0.67725091497226
  N   -0.57804317991643     -2.63866342223642      0.74750704636739
  C   1.62974439541894     -0.20388293489927     -0.96549500353646
  N   1.98855669219442     -0.63918517181249     -1.99495791118798
