13
Coordinates from ORCA-job run
  C   -0.34761868382348     -0.01430401238309      0.52897684075926
  C   1.14903169419398      0.31057082161687      0.36112544071320
  Br  -0.91573636893263      0.80334385786961      2.22316868542414
  H   1.71511368959885     -0.08915693105916      1.20609498106373
  H   1.27304571951200      1.39720859314592      0.35731636912669
  C   -1.19388765187065      0.54932011377458     -0.60654689555431
  H   -2.25010477991670      0.34362951344503     -0.43216099561882
  H   -1.04986298827457      1.62962907722668     -0.67176969812164
  H   -0.89391437644847      0.08720014471850     -1.55052462612317
  C   -0.53607108896125     -1.45743760148414      0.65331578937935
  N   -0.67938741791819     -2.62237927941332      0.71913749037877
  C   1.66736374388399     -0.24596142812280     -0.88778781885539
  N   2.06102850895712     -0.69066286933468     -1.90034556257181
