13
Coordinates from ORCA-job run
  C   -0.30965334220884     -0.14677203009641      0.46145759997987
  C   1.13561551260780     -0.39529279242728     -0.01164717537815
  Br  -0.25715498753220      0.93144131056981      2.10069258641755
  H   1.10586325106924     -1.08267440242911     -0.86476590983433
  H   1.71089186039150     -0.87474795662636      0.78415766260026
  C   -1.15029829875958      0.57402082616249     -0.58652528084148
  H   -0.71489608295283      1.54954515329593     -0.80621305674296
  H   -2.16940392661231      0.71299612712907     -0.22623503684931
  H   -1.17778146567281     -0.02306592787601     -1.50258425542261
  C   -0.90474870575355     -1.43623911089104      0.80418130144797
  N   -1.37701706881299     -2.48807493286391      1.03355494868335
  C   1.79550266477062      0.84180009607082     -0.41982211025025
  N   2.31108058946596      1.83706363998201     -0.76725127380991
