13
Coordinates from ORCA-job run
  C   -0.33342796745246     -0.02922214325377      0.53695461062743
  C   1.15450592355564      0.31626231489714      0.33616051160348
  Br  -0.86504488236127      0.74880845362881      2.26153392795441
  H   1.74720571018559     -0.09390619604334      1.15755164543111
  H   1.26642965066133      1.40412523053987      0.35138432016626
  C   -1.21590181952544      0.54666118220825     -0.56422889225455
  H   -2.26473749949207      0.32542874795784     -0.36610314219157
  H   -0.93608619391423      0.10687704660645     -1.52488134262334
  H   -1.08573369754880      1.62965434484947     -0.61160315099101
  C   -0.50235925839358     -1.47656572516825      0.63881766593520
  N   -0.63293421009970     -2.64369342105252      0.68991681388060
  C   1.64627840780280     -0.20849289646911     -0.93699551336051
  N   2.02180583658219     -0.62693693870084     -1.96750745417751
