13
Coordinates from ORCA-job run
  C   -0.30846030405071     -0.08465012201450      0.31602550224026
  C   1.02403067954629      0.36231379789943     -0.30852411287332
  Br  -0.25836809690930      0.29481163996761      2.23991003125144
  H   0.97063442158802      0.18963042647060     -1.38938993505851
  H   1.14378975570240      1.43687022807169     -0.14328663421739
  C   -1.47508497344263      0.67495614307672     -0.30870217504801
  H   -1.34066928558926      1.74769361476585     -0.15774895307005
  H   -1.51750971181984      0.46186345335747     -1.38062850522527
  H   -2.41732472061344      0.37123676537389      0.14731820918917
  C   -0.48443631070851     -1.52480322747403      0.14878827531824
  N   -0.64196350716342     -2.67455566242328     -0.03921145690869
  C   2.18296291368840     -0.34453922080165      0.22864739381943
  N   3.12139913977201     -0.91082783626980      0.64780236058271
