13
Coordinates from ORCA-job run
  C   -0.33368825672341     -0.00048141911270      0.53736093509449
  C   1.14927275321270      0.35483609271610      0.31816180380777
  Br  -0.88244235837213      0.87516155048460      2.20911637703103
  H   1.74598333025450      0.00590430709153      1.16453944873967
  H   1.24466229711185      1.44309448724830      0.26524688135466
  C   -1.22221737305931      0.49125210166054     -0.59921256931486
  H   -2.26760961070822      0.26346834470473     -0.39012207681827
  H   -0.93119837138980     -0.00137622757220     -1.53049859043829
  H   -1.11156774072220      1.57161565874105     -0.71251909946276
  C   -0.48071214813800     -1.44090235088852      0.72894289374186
  N   -0.59270370201827     -2.60491154714123      0.84954185235923
  C   1.65143446468032     -0.24087212945645     -0.91935260719898
  N   2.03178671587196     -0.71778886847574     -1.92220524889556
