13
Coordinates from ORCA-job run
  C   -0.32999084600293     -0.01315054357370      0.53966410613153
  C   1.15429356419779      0.33604891208430      0.31923180889811
  Br  -0.85788982930427      0.81580988724493      2.24151688959744
  H   1.25813166866247      1.42455848298286      0.29446786697116
  H   1.75408359195825     -0.03983611633912      1.15183730661998
  C   -1.22245478227591      0.52116357317831     -0.57437532499789
  H   -0.94266063774308      0.05496653431662     -1.52246642053496
  H   -2.26845124096960      0.29659621157770     -0.36524893255590
  H   -1.10247055231982      1.60332656861457     -0.65494694530904
  C   -0.48848337839746     -1.45761230281312      0.68773082554124
  N   -0.61079411135498     -2.62370952253195      0.77281707185065
  C   1.64301300150064     -0.23150222809348     -0.93667971140416
  N   2.01267355204889     -0.68665945664792     -1.95354854080818
