13
Coordinates from ORCA-job run
  C   -0.30208389926034     -0.06780579507000      0.32547723329965
  C   1.01348841132411      0.35626433645074     -0.34893861948380
  Br  -0.22949988932390      0.44301029483201      2.21827086063617
  H   1.11802001882380      1.44118100470124     -0.25738491924097
  H   0.94714727334754      0.11111860142061     -1.41495100207654
  C   -1.49035235440397      0.62940410140739     -0.33040896067058
  H   -1.54565537417767      0.34298997727350     -1.38441478037051
  H   -2.42031387080115      0.34312795221366      0.16057104048683
  H   -1.37129575987534      1.71176448516856     -0.25508360493397
  C   -0.45710619819814     -1.51846156282510      0.25965624623500
  N   -0.59867074688136     -2.68076949534203      0.15470963414217
  C   2.19157196472710     -0.29471630832867      0.21612716716561
  N   3.14475042469933     -0.81810759190190      0.65736970481095
