13
Coordinates from ORCA-job run
  C   -0.29108969403279     -0.11484812572874      0.48341833026246
  C   1.17897116474578     -0.23174107870954      0.03608143234831
  Br  -0.40205277187250      1.19694633545457      1.93899413472036
  H   1.80809904853814     -0.49506125916695      0.88981386376544
  H   1.25227757085141     -1.04285244204857     -0.69718084185546
  C   -1.21362490875785      0.31562505917765     -0.65137479918488
  H   -1.14882319678921     -0.41085505197724     -1.46675810420741
  H   -0.91613738963376      1.29796170890922     -1.02078219884005
  H   -2.24568287304853      0.36443714840147     -0.30408607051932
  C   -0.70450413061723     -1.40741518354288      1.02469347720077
  N   -1.02515232158636     -2.46830398373756      1.41651371765746
  C   1.66460157277548      1.00404928042504     -0.57129373090885
  N   2.04311792942743      1.99205759254352     -1.07903921043884
