13
Coordinates from ORCA-job run
  C   -0.27113283199289     -0.13542935719048      0.48788668617360
  C   1.17219276971854     -0.25800035735651     -0.03767351850215
  Br  -0.28101071727612      1.09829904545019      2.01474704984830
  H   1.83429335237900     -0.58753276588374      0.76676343858022
  H   1.18975824671102     -1.02371467914446     -0.82147161963610
  C   -1.23760682486571      0.37391009972088     -0.57523609271912
  H   -0.93355086485228      1.36645336902547     -0.91026889674628
  H   -2.24945518380916      0.42955375898575     -0.17382104538946
  H   -1.23268787916028     -0.31179932750872     -1.42750628685978
  C   -0.68679470484603     -1.44610594917347      0.98174181171520
  N   -1.00879098405472     -2.51996074200653      1.33521689073073
  C   1.66105361569665      1.00210949882764     -0.59049232095062
  N   2.04273200635197      2.01221740625397     -1.04988609624454
