13
Coordinates from ORCA-job run
  C   -0.27139097849383     -0.26020214522568      0.43579460652421
  C   1.14164880383794     -0.33125854263590     -0.17477610112102
  Br  -0.12857689688075      0.42000803705569      2.27150267536168
  H   1.06890513475013     -0.81272640785138     -1.15650503731173
  H   1.78793470043952     -0.94903832783243      0.45339982103145
  C   -1.20703652539422      0.64127555784619     -0.36156947920638
  H   -2.20100406882603      0.64790111493748      0.08586892728266
  H   -0.81784265332360      1.66022031731047     -0.37770728329434
  H   -1.28331922791401      0.26821957358477     -1.38720775394460
  C   -0.80101005175442     -1.61971622710281      0.51177896075998
  N   -1.21760720502949     -2.71902522460572      0.52419302760821
  C   1.73357119429522      0.99363046017480     -0.33730180258956
  N   2.19572777429354      2.06171181434452     -0.48747056110057
