13
Coordinates from ORCA-job run
  C   -0.31417152471376     -0.11325601883023      0.46815638400955
  C   1.17734394272850     -0.21798464945903      0.09514843864017
  Br  -0.51163783325850      1.21411388895574      1.90062307938135
  H   1.76552938255156     -0.46983593109154      0.98098552200970
  H   1.29518573091349     -1.03252073586449     -0.62842275283693
  C   -1.18417658504864      0.29296222910415     -0.71579785404125
  H   -1.07361071386228     -0.44390387289974     -1.51670617769951
  H   -2.23228059675780      0.33712227645827     -0.41998493552479
  H   -0.87751206574479      1.27283088989285     -1.08407593815614
  C   -0.73863721354062     -1.40404829786269      1.00510895100516
  N   -1.06502301933006     -2.46429533933743      1.39387513081666
  C   1.68125810544276      1.01963932475845     -0.49373307819454
  N   2.07673239062012      2.00917623617570     -0.98517676940942
