13
Coordinates from ORCA-job run
  C   -0.30162902286013     -0.07639096808265      0.32348767198960
  C   1.02195022351799      0.34425881084012     -0.33666697204919
  Br  -0.19845212342880      0.31880803107740      2.24269594013549
  H   0.93886369164061      0.16802809784819     -1.41505374454632
  H   1.16447002839363      1.41724757651722     -0.17961403683180
  C   -1.47146981134117      0.69616908381949     -0.27882089799199
  H   -2.40606099762987      0.41326158181293      0.20531356068099
  H   -1.54583854053957      0.47211291629515     -1.34667723319619
  H   -1.31554896731122      1.76805699826156     -0.14378395105742
  C   -0.50477574187093     -1.51497908493554      0.17460327915442
  N   -0.68427252435904     -2.66427666577834      0.00471415262155
  C   2.18175433405845     -0.37959635318313      0.17557314922577
  N   3.12000945173005     -0.96070002449239      0.57422908186506
