19

C	-0.519514	0.01107	-1.435541
C	0.0	0.0	0.0
Br	0.352773	1.560979	-2.313075
H	1.087454	0.0	0.0
C	0.047883	-1.220247	-2.134543
H	-0.474827	-2.109723	-1.780536
H	-0.084412	-1.136659	-3.215241
H	1.110914	-1.289184	-1.890432
C	-2.015178	0.212605	-1.619253
H	-2.553844	-0.591617	-1.118134
H	-2.258854	0.210146	-2.68409
H	-2.338961	1.165531	-1.198225
N	-0.455745	-1.179199	0.796554
O	-1.323761	-1.93857	0.360784
O	0.097771	-1.31198	1.88335
N	-0.510515	1.161998	0.792915
O	0.180839	2.170858	0.816579
O	-1.608684	1.043275	1.347999
F	2.505152	0.0	0.0
