19

C	-0.568271	0.000389	-1.41367
C	0.0	0.0	0.0
Br	0.36728	-1.458348	-2.370387
H	1.087377	0.0	0.0
C	-2.049247	-0.287104	-1.603481
H	-2.292184	-0.251507	-2.668867
H	-2.632342	0.461579	-1.067703
H	-2.314393	-1.271902	-1.221816
C	-0.136413	1.299214	-2.080088
H	-0.714109	2.12955	-1.664408
H	0.930732	1.463985	-1.904318
H	-0.325384	1.249058	-3.155266
N	-0.460202	-1.192113	0.794923
O	0.391979	-2.031744	1.062889
O	-1.627339	-1.188423	1.204955
N	-0.45306	1.182884	0.817157
O	-1.550851	1.709287	0.560688
O	0.385824	1.640126	1.591082
F	2.516081	0.0	0.0
