15

C	-0.335819	-0.027898	-1.477388
C	0.0	0.0	0.0
F	-1.726235	0.046316	-1.674152
H	1.092158	0.0	0.0
H	0.078472	0.907712	-1.867335
C	0.21795	-1.187407	-2.265851
H	-0.325114	-2.099746	-2.038398
H	0.129397	-0.962792	-3.3313
H	1.268776	-1.3194	-2.000095
N	-0.408484	-1.173035	0.771001
O	-0.939744	-1.008915	1.876193
O	-0.07921	-2.275238	0.317689
C	-0.497234	1.21412	0.618171
N	-0.814417	2.249831	1.075864
H	2.481302	0.0	0.0
