15

C	-0.350675	-0.047398	-1.475343
C	0.0	0.0	0.0
F	-1.743641	-0.079754	-1.657678
H	1.092128	0.0	0.0
H	-0.014237	0.920665	-1.862628
C	0.291752	-1.150741	-2.279976
H	-0.174365	-2.107307	-2.059488
H	0.182686	-0.926809	-3.344577
H	1.351239	-1.197975	-2.016552
N	-0.392785	-1.163377	0.792881
O	-0.196412	-2.277518	0.294175
O	-0.767225	-0.981773	1.958471
C	-0.493531	1.217383	0.614971
N	-0.806875	2.255258	1.070681
H	2.479516	0.0	0.0
