15

C	-0.458956	0.083303	-1.455078
C	0.0	0.0	0.0
F	-0.124353	-1.128951	-2.055618
H	1.091913	0.0	0.0
H	-1.549594	0.163205	-1.519183
C	0.268805	1.206708	-2.159462
H	-0.058469	2.176472	-1.77693
H	1.342859	1.095517	-1.978285
H	0.055824	1.162793	-3.231135
N	-0.568556	-1.248105	0.612716
O	-1.790024	-1.400425	0.519311
O	0.203759	-2.029163	1.154947
C	-0.50604	1.136497	0.747469
N	-0.906902	2.080169	1.322714
H	2.706416	0.0	0.0
