15

C	-0.363961	0.027552	-1.480732
C	0.0	0.0	0.0
F	-0.00492	1.293458	-1.95298
H	1.092094	0.0	0.0
H	0.275333	-0.698478	-1.988561
C	-1.829728	-0.182958	-1.786505
H	-1.996123	-0.099518	-2.864164
H	-2.144679	-1.173483	-1.456496
H	-2.427798	0.580561	-1.281902
N	-0.343195	-1.24894	0.626563
O	-0.294701	-2.262816	-0.098201
O	-0.484665	-1.282054	1.859912
C	-0.522904	1.128371	0.731852
N	-0.925822	2.089252	1.278104
H	2.386112	0.0	0.0
