15

C	-0.455831	0.047644	-1.452413
C	0.0	0.0	0.0
F	-0.045098	-1.140329	-2.053894
H	1.091864	0.0	0.0
H	-1.546015	0.071067	-1.534508
C	0.222507	1.199483	-2.160513
H	0.013529	1.140688	-3.231572
H	1.297942	1.123454	-1.983361
H	-0.134906	2.159642	-1.783091
N	-0.516042	-1.222272	0.689972
O	0.125169	-1.619186	1.659508
O	-1.548688	-1.741692	0.256756
C	-0.480467	1.154424	0.73145
N	-0.848532	2.130434	1.275967
H	2.625261	0.0	0.0
