15

C	-0.344717	0.176462	-1.465951
C	0.0	0.0	0.0
F	-1.735562	0.181346	-1.657321
H	1.097935	0.0	0.0
H	-6.9e-05	1.189279	-1.701847
C	0.296526	-0.798743	-2.423524
H	-0.17811	-1.773171	-2.352506
H	0.197736	-0.415662	-3.442296
H	1.353581	-0.893193	-2.163605
N	-0.390168	-1.265923	0.611196
O	-0.740863	-1.261051	1.798018
O	-0.218225	-2.293633	-0.054862
C	-0.493334	1.112078	0.787164
N	-0.834078	2.079957	1.362141
H	2.46964	0.0	0.0
