15

C	-0.368812	-0.020763	-1.470727
C	0.0	0.0	0.0
F	-1.760556	-0.096537	-1.640425
H	1.093011	0.0	0.0
H	-0.070233	0.967752	-1.838272
C	0.310423	-1.080257	-2.305806
H	0.199459	-0.831559	-3.364309
H	1.370492	-1.099168	-2.03919
H	-0.125084	-2.056174	-2.11145
N	-0.371306	-1.176461	0.782306
O	-0.352998	-2.273181	0.214754
O	-0.534694	-1.028744	1.999667
C	-0.484882	1.201791	0.649187
N	-0.824131	2.233512	1.099109
H	2.475337	0.0	0.0
