18

C	-0.316319	0.069435	-1.500275
C	0.0	0.0	0.0
Cl	-0.161555	-1.630248	-2.160142
H	1.094857	0.0	0.0
H	-0.413415	-0.914783	0.435038
C	-1.722726	0.521767	-1.85675
H	-1.867477	1.557155	-1.535235
H	-2.472003	-0.103254	-1.363094
H	-1.886485	0.470141	-2.937081
C	0.770822	0.895766	-2.180984
H	0.624911	1.951771	-1.921665
H	0.730058	0.798236	-3.26992
H	1.738151	0.579727	-1.765122
C	-0.474751	1.225055	0.777287
H	-0.088337	1.162625	1.79864
H	-0.066628	2.144682	0.347282
H	-1.565861	1.324553	0.834146
F	2.776717	0.0	0.0
