16
Coordinates from ORCA-job run
  C   -0.77357088213188     -0.21862067558690      0.02220217318563
  C   0.63746106342192     -0.02977543537841     -0.53320820668700
  Br  -1.95313096037086     -0.46652155039038     -1.63620639923100
  H   0.93773731615174     -0.92815044353260     -1.08252707862243
  N   -0.95802654257895     -1.56071070078105      0.71655347072431
  O   -1.71718551179882     -1.57071074657583      1.67520936668662
  O   -0.37153613633493     -2.51445390821515      0.22951180575600
  N   -1.12216682341658      0.81818727149561      0.85083605395502
  H   -2.02902343190223      0.72917857635317      1.28538620280035
  H   -0.95233361138532      1.71356610567923      0.41037230271421
  N   1.61030524582876      0.04908576293880      0.63787663245801
  O   2.57235693016249      0.79985077813062      0.51416615660851
  O   1.39082569198577     -0.68827863511122      1.58863128388947
  N   0.69860599733508      1.22387195479861     -1.23866349568732
  H   1.65834999655859      1.54709455805669     -1.25245696334266
  H   0.37233165847522      1.09738708811881     -2.18768330520773
