16
Coordinates from ORCA-job run
  C   -0.77042500348484     -0.22841356794474      0.03190573271053
  C   0.63215594120274     -0.02480205744079     -0.53994130222303
  Br  -1.96521719885103     -0.49904730183192     -1.61166052048229
  H   0.93782858628648     -0.92214463760072     -1.08790680286974
  N   -0.93036735148543     -1.56913414089887      0.73486895384313
  O   -1.67855229176218     -1.58351509002303      1.70204698614574
  O   -0.33794650617603     -2.51806508224413      0.24563210816585
  N   -1.12246302804316      0.80824707100518      0.85933135834474
  H   -0.96831289495814      1.70335993519859      0.41255249664713
  H   -2.02355735050459      0.71076261800629      1.30395462189050
  N   1.61616647181763      0.07294461408049      0.62005712862155
  O   1.41755700167242     -0.66344380930839      1.57613650498179
  O   2.56596195754911      0.83689383138189      0.48293410476068
  N   0.66934136587579      1.22564833673824     -1.25282042904476
  H   1.62469261934696      1.56077173000659     -1.28000708512872
  H   0.33313768151426      1.08993755087532     -2.19708385636309
