16
Coordinates from ORCA-job run
  C   -0.60710852790339     -0.46504595707753      0.05339959932186
  C   0.61223727651026      0.46706230584349     -0.00805330193980
  Br  -0.06326390857515     -2.37753087998822      0.05773435496858
  H   0.23337733590506      1.45974519716776      0.26948273522565
  N   -1.27759148031504     -0.28683419615402      1.42834286134640
  O   -2.46502671632871     -0.56644972351269      1.49316368508138
  O   -0.57463647648209      0.09494593186886      2.35721429007770
  N   -1.57509360521102     -0.10643264019371     -0.89427893204774
  H   -1.26058467254552     -0.33249127895140     -1.82854854437346
  H   -2.45876130459034     -0.55679131503788     -0.68947369178421
  N   1.08891870428116      0.65910040354072     -1.43691421033635
  O   1.83022373572764      1.62582268927566     -1.58014642947639
  O   0.78597355421585     -0.14892894091607     -2.30840957164710
  N   1.77464895671512      0.01532138942110      0.69657589182921
  H   2.43833382226937      0.77901353964248      0.75352820071108
  H   1.51735330632681     -0.26050652492855      1.63438306304319
