16
Coordinates from ORCA-job run
  C   -0.72936182217146     -0.45527645709969     -0.27357026010124
  C   0.56887893623446      0.31374743235793     -0.56319969872809
  Br  -0.79378959976849     -2.02442907160822     -1.40673943532206
  H   0.59208282318232      0.46864681101248     -1.64144178519902
  N   -0.78925189699591     -0.92884013928233      1.21606256213970
  O   -1.16090186770874     -2.05474467231405      1.48973766269482
  O   -0.55102236341641     -0.02781845535732      2.01766051044393
  N   -1.80473553903302      0.40191836780875     -0.57029819882838
  H   -2.70822422692108     -0.01433485221278     -0.38853440899963
  H   -1.68149940020490      1.29797513573220     -0.11378384802817
  N   1.79470866726863     -0.54661112704587     -0.28936081373507
  O   2.77132768999472     -0.29783591759909     -0.99180246435674
  O   1.75506275810150     -1.34466998892742      0.64307812474465
  N   0.63121741862346      1.57679490068425      0.09092086428899
  H   1.35910759723892      2.15341955104573     -0.30969841978402
  H   0.74540082557600      1.48105848280541      1.09096960877032
