18
Coordinates from ORCA-job run
  C   -0.65561161142154     -0.21656763348427     -0.35267366087389
  C   0.62454557906901      0.29895400203009      0.31758452799629
  F   -0.34765406645721     -0.70291240084755     -1.58906281830521
  H   0.35608677265249      0.55339768841759      1.34652990240548
  C   -1.77103453242619      0.78701535783433     -0.47161604470060
  H   -2.62915733285729      0.32231286133223     -0.96135330760994
  H   -2.06706635887686      1.14735458418065      0.51353715925778
  H   -1.40686802812156      1.61504144093983     -1.07740423926421
  N   -1.15940378214385     -1.39313597444218      0.46802570849696
  O   -1.27289314237395     -2.48408136310145     -0.07477487585401
  O   -1.41390347874636     -1.13541524214768      1.64305202090735
  N   1.04887387269747      1.49460448837227     -0.40563469818614
  H   1.11865935862649      2.29176378822880      0.20943284037798
  H   1.94264543159380      1.35365368950715     -0.85474973085535
  C   1.70023837339035     -0.78150377647073      0.32455340935988
  H   1.35470710735160     -1.71270711353909      0.77766327333797
  H   2.01085610264973     -1.00383694317503     -0.69858298193261
  H   2.56797973539389     -0.43193745363495      0.88747351544226
