18
Coordinates from ORCA-job run
  C   -0.78873705028204      0.19779882988402     -0.30190254008362
  C   0.72698421801688      0.36215773042108     -0.25872273363993
  F   -1.36716908888680      1.44820153415998     -0.36077961203988
  H   0.96530461801746      0.96515062834371     -1.13877337518115
  C   -1.40670670289886     -0.58818488610951      0.81736689772063
  H   -1.25008215287887     -0.05087747056863      1.75348732380159
  H   -2.47739705042830     -0.69544387954866      0.64894747044752
  H   -0.96463295698322     -1.58120112602345      0.87580549739954
  N   -1.11371308826213     -0.44519702637688     -1.64914076457310
  O   -1.74040649018569     -1.49844333726296     -1.65886761447699
  O   -0.71838843293709      0.16697262694991     -2.63613444676906
  N   1.31318094346151     -0.96308974842368     -0.43229768337441
  H   2.11992471449969     -0.92609500207776     -1.03900291992299
  H   1.60668013705760     -1.34856650332827      0.45632067292283
  C   1.17992365195146      1.10139425693030      0.99426490870738
  H   1.03484630493134      0.48753125294052      1.88769600619265
  H   0.63537899217554      2.03828325390571      1.12591288220589
  H   2.24500943363154      1.33060886618456      0.91582003066309
