18
Coordinates from ORCA-job run
  C   -0.69780886535994     -0.10605474255914     -0.29757396287757
  C   0.64831327371717      0.29041795818121      0.30844351243072
  F   -0.54193915833102     -0.22656196539130     -1.65342514925748
  H   0.48060609548676      0.41831577044684      1.38134691493927
  C   -1.84763103352155      0.82089513047979     -0.00539264176107
  H   -2.03448816626544      0.86253926307194      1.06685490229578
  H   -2.74263208171973      0.46063079069798     -0.51693317100923
  H   -1.58562028248113      1.81221940017068     -0.36993181760499
  N   -1.04207743293685     -1.48903300489282      0.22722565708328
  O   -1.20362736914425     -1.55263942441334      1.44367290229959
  O   -1.11214473781772     -2.41775826067709     -0.56575157285905
  N   0.98337468268732      1.59656077665268     -0.25193481401650
  H   1.74022374517178      2.00920523390981      0.27879794789945
  H   1.30619508001112      1.47928231568277     -1.20585846742762
  C   1.70539571202350     -0.79055998152697      0.08286165105078
  H   1.80256737300670     -1.01489474159608     -0.98193662527968
  H   1.47061039510455     -1.71709711455295      0.61192190498690
  H   2.67068277036874     -0.43446740368401      0.44961282910742
