11

C	-0.442164	-0.052267	-1.45229
C	0.0	0.0	0.0
F	-1.82046	-0.223129	-1.556655
H	1.093639	0.0	0.0
H	0.034893	-0.897667	-1.954657
H	-0.354723	0.916522	0.477285
C	-0.096046	1.190218	-2.161304
N	0.139077	2.172526	-2.75866
C	-0.509111	-1.159346	0.723274
N	-0.93981	-2.088723	1.295862
Br	3.442173	0.0	0.0
