11

C	-0.518813	-0.008545	-1.432503
C	0.0	0.0	0.0
F	-0.040401	1.082368	-2.124804
H	1.093038	0.0	0.0
H	-1.612295	0.059339	-1.451857
H	-0.322272	-0.917463	0.504171
C	-0.13575	-1.247527	-2.134457
N	0.149064	-2.228559	-2.709912
C	-0.535822	1.151319	0.716785
N	-1.011366	2.062542	1.284375
Br	3.456652	0.0	0.0
