11

C	-0.445083	0.040228	-1.457749
C	0.0	0.0	0.0
F	-0.074433	-1.142837	-2.066787
H	1.093014	0.0	0.0
H	0.059997	0.859214	-1.976701
H	-0.361943	-0.923546	0.458587
C	-1.905533	0.188688	-1.610764
N	-3.067302	0.294878	-1.740258
C	-0.507022	1.156409	0.727207
N	-0.916043	2.100109	1.293117
Br	3.463682	0.0	0.0
