11

C	-0.544049	-0.01734	-1.423685
C	0.0	0.0	0.0
F	-0.153622	1.140123	-2.068994
H	1.092618	0.0	0.0
H	-1.639425	-0.02781	-1.418702
H	-0.328547	0.934442	0.465184
C	-0.094551	-1.184699	-2.20127
N	0.176547	-2.12487	-2.849169
C	-0.536029	-1.126893	0.753287
N	-1.004097	-2.034058	1.333294
Br	3.470765	0.0	0.0
