17
Coordinates from ORCA-job run
  C   0.86014122163807      0.18904228978094      0.23916799575501
  C   -0.68014880778142      0.02931232649383      0.27245633848849
  Br  1.38789719866121      1.77229241357595      1.28724425083410
  H   -0.93297915798145     -0.14810412974788      1.32425800123114
  C   1.57996227871957     -1.01914103760829      0.82912538431767
  H   2.66019754225783     -0.87153270774616      0.80335900613059
  H   1.26737421936963     -1.15168138113435      1.86720111904608
  H   1.30750138805273     -1.90446953768298      0.25621207913863
  C   1.28167491203029      0.41915490501393     -1.14078795833398
  N   1.56807852709000      0.55980475438104     -2.27251281162062
  N   -0.98085716913866     -1.19557221073244     -0.46993339411492
  H   -1.06631480520050     -0.98386991455695     -1.45881737376619
  H   -1.86825074610355     -1.57403724227011     -0.16270007537193
  C   -1.44229941698532      1.24773464894704     -0.23998900706503
  H   -2.51245722988794      1.02659776585677     -0.22573104408787
  H   -1.15714656474616      1.46888334992928     -1.27308010830984
  H   -1.26937338999433      2.13858570750040      0.36352759772868
