17
Coordinates from ORCA-job run
  C   0.83052519164221      0.15214782048558      0.47563720725684
  C   -0.70838160804549      0.28205444757563      0.37608267298491
  Br  1.29803586306733     -0.11563258891017      2.38023958676703
  H   -0.98305928047910      1.13508086165597      1.01521094229605
  C   1.40484842605792     -1.00740749235193     -0.32703292446741
  H   0.89304360190614     -1.92443289909441     -0.03988982412002
  H   2.47547579219125     -1.10330061566602     -0.14474197101368
  H   1.25058608957058     -0.82639075837440     -1.39347749455586
  C   1.44970986464539      1.41610881927242      0.08644421138647
  N   1.92147965590383      2.43113348176196     -0.27303988454129
  N   -1.31909068752299     -0.97176382736753      0.79599566905325
  H   -1.27644825970657     -1.06434505628886      1.80376340598008
  H   -2.29523758123036     -0.97644632075638      0.52608682381711
  C   -1.14058123126454      0.58711144803916     -1.05397670153103
  H   -0.97819161421507     -0.27983011102528     -1.69687818139737
  H   -0.61243143494039      1.44883012686121     -1.46555680801144
  H   -2.20928278758014      0.81908266418305     -1.06486672990365
