17
Coordinates from ORCA-job run
  C   0.82144779268719     -0.08434230013032      0.34535153813191
  C   -0.62656410347326      0.38489397713562      0.09666657044623
  Br  0.81207796416816     -1.79174370357387      1.34230120254529
  H   -0.50623424444863      1.37071857494609     -0.37365624797075
  C   1.62458611133650     -0.29234566679021     -0.93449053104759
  H   1.59706152241406      0.62613809637495     -1.52906464760477
  H   1.21118544030217     -1.11337350314601     -1.51937463445034
  H   2.66332456278724     -0.52374988481725     -0.69731310085911
  C   1.49522114429705      0.89231417474890      1.19929049987719
  N   2.08734207960982      1.70401360247311      1.80882510379680
  N   -1.26937730180045      0.61478678091258      1.38131184822416
  H   -2.08297643196581      1.20522990252871      1.26088738704633
  H   -1.57762282268022     -0.26507726861967      1.77934165985692
  C   -1.40261584415961     -0.51573898259457     -0.86229823838533
  H   -2.41534800240148     -0.12027885293384     -0.97239794215898
  H   -1.47735882381730     -1.53137253929400     -0.46675986926698
  H   -0.95514904285544     -0.55907240722022     -1.85762059818096
