17
Coordinates from ORCA-job run
  C   0.78231306176502      0.20139360615584      0.27614659240399
  C   -0.77326320475657      0.09926810201956      0.24579169983860
  Br  1.31619302740238      1.75419051015356      1.36881544807359
  H   -1.07989148091859      0.02785251929549      1.29639837326157
  C   1.44253910093118     -1.02873683915652      0.89466802891596
  H   1.02398821388998     -1.20689969684534      1.88800917165134
  H   2.51826687501865     -0.87989005776583      0.98985845085591
  H   1.27549487469501     -1.90424633633928      0.26444720332226
  C   1.28265761297817      0.41747392709216     -1.07823046542612
  N   1.63529875980455      0.53277856827174     -2.19418081487922
  N   -1.24546931907647     -1.09229247387808     -0.43547753191685
  H   -0.91318067024831     -1.94525147593436     -0.00742864403621
  H   -0.98556765557825     -1.08491250381909     -1.41525399294260
  C   -1.43726210290375      1.30862745932820     -0.39602323346608
  H   -2.51811595119013      1.17052561957661     -0.35214672133127
  H   -1.17577586920330      2.23859436270395      0.10670590722638
  H   -1.14822527260958      1.39152470914139     -1.44809947155125
