17
Coordinates from ORCA-job run
  C   0.86392481094684      0.17247006686378      0.22714443591230
  C   -0.67749467065860      0.03458536463625      0.28547004423067
  Br  1.43215892806087      1.72785230947054      1.29650980716720
  H   -0.91515446668515     -0.15841299062692      1.33804860047964
  C   1.57740818659915     -1.05666258492619      0.78019953559236
  H   2.65894484052016     -0.92370694032808      0.73648652498147
  H   1.28161930220507     -1.92667816014711      0.19552323222066
  H   1.28250697053334     -1.20469636251029      1.82135050617038
  C   1.26682322145732      0.42247539748357     -1.15481789970820
  N   1.56801874364753      0.56716286784897     -2.28213249921316
  N   -1.00942107045101     -1.17218177870141     -0.47369626645554
  H   -1.10959058120542     -0.94084250852795     -1.45680055632129
  H   -1.89681314213327     -1.54300822992931     -0.15721559699070
  C   -1.42948436970415      1.27349856478982     -0.19162557151269
  H   -2.50232560234353      1.06652030046848     -0.16742650723508
  H   -1.23606880775603      2.14915790924754      0.42773714346437
  H   -1.15505229303312      1.51246677488830     -1.22375493278239
