17
Coordinates from ORCA-job run
  C   0.77850570929194     -0.06893302739153      0.43650823255580
  C   -0.57198855489537      0.46435064990955     -0.08384433921443
  Br  0.46994572701134     -1.38172278791098      1.88198178073181
  H   -0.28701884759017      1.24146245115093     -0.80660144591094
  C   1.62394072506259     -0.74394895332634     -0.63862785442766
  H   1.13844972523188     -1.65107730347175     -0.99712744511082
  H   1.76112301995062     -0.05148907220813     -1.47503330878026
  H   2.60371334200868     -1.00893273673723     -0.24037579830177
  C   1.52607383702053      1.03747917299865      1.03156954203249
  N   2.18559246432373      1.92283085491874      1.43423875940240
  N   -1.25627908479389      1.14317832088537      1.00579666084275
  H   -1.71009107557407      0.46600865293605      1.60835102044849
  H   -1.96906775651912      1.76011625243013      0.63652658676772
  C   -1.40351982015251     -0.59003876614043     -0.81176610950147
  H   -0.90480240003146     -0.98276171417187     -1.70048445824752
  H   -1.64269242237645     -1.42320711658597     -0.14679350748582
  H   -2.34288458796827     -0.13431487728519     -1.13431831580075
