17
Coordinates from ORCA-job run
  C   0.78830333794441      0.16356824625293      0.48410341241953
  C   -0.75951928311108      0.35849393876468      0.38887588799731
  Br  1.25889298843640     -0.07306314966370      2.38946146801659
  H   -0.98854832535937      1.21997285726321      1.02560606974286
  C   1.31384103155844     -1.04176411498032     -0.28457054334947
  H   2.38839249546627     -1.15089524223391     -0.13606858861022
  H   0.82406826605570     -1.95108224386908      0.06623767262563
  H   1.12349563935946     -0.91389710419378     -1.35284837222332
  C   1.46363365284051      1.38219044758946      0.04992696473911
  N   1.97454519512068      2.36581718585287     -0.34310948925341
  N   -1.55081388660272     -0.75397931615269      0.86605144312196
  H   -1.45334380562502     -1.56206370793697      0.26431330190677
  H   -1.29847979376270     -1.01293304986942      1.81140495428236
  C   -1.17875630066604      0.68473829041773     -1.04093193310481
  H   -2.24283071815307      0.92411775868709     -1.03776619876875
  H   -0.62924914953130      1.53468725567147     -1.44820714957101
  H   -1.03363134397058     -0.17390805159957     -1.70247889997113
