17
Coordinates from ORCA-job run
  C   0.77726307777278      0.19325299034094      0.48871907135209
  C   -0.77275397343802      0.35435706043508      0.37187625285946
  Br  1.23061946708399      0.01423296715121      2.40438345071264
  H   -1.02586293039516      1.22778137477016      0.98271360613316
  C   1.33518309987762     -1.02053460373412     -0.24372006682802
  H   0.85724224796904     -1.92983297369944      0.12281629967852
  H   1.15693057908783     -0.92152259307751     -1.31706268021530
  H   2.40941868363052     -1.10585064066306     -0.07884532674974
  C   1.43622724764338      1.41136498004666      0.02959444351787
  N   1.96021532515111      2.37901032508392     -0.38541280659478
  N   -1.54822096870796     -0.76014244673574      0.86978276016683
  H   -1.42824579953413     -1.58201365815928      0.29118091552234
  H   -1.30225573917232     -0.98905764823605      1.82453602217705
  C   -1.18120427782413      0.63361943505373     -1.07101681120359
  H   -1.01574393298402     -0.24108099495527     -1.70619037340812
  H   -2.24873176689845      0.85655679029894     -1.08637341382584
  H   -0.64008033926210      1.47985963607981     -1.49698134329457
