13
Coordinates from ORCA-job run
  C   -0.91880399095553      0.29692404987961      0.22004658686506
  C   0.49460491263976      0.36651766674679     -0.37312241225782
  F   -0.82325062411530      0.58257201751030      1.57325752467691
  H   0.44276694694902      0.26428296556763     -1.45978180214997
  H   -1.50114856849845      1.12218275994898     -0.20963963779216
  N   -1.47499973297249     -0.98971893289692      0.03555114552541
  H   -1.05721123718030     -1.56095943138436     -0.68364194679260
  H   -2.47863864438206     -0.98489810803077     -0.02304092259146
  N   1.29452288849421     -0.81545305174797      0.11936057995610
  O   1.22574590555177     -1.82352832401535     -0.57920729670033
  O   1.92258860494533     -0.68515673709713      1.15945522252619
  C   1.16856878567278      1.60553284924944     -0.00997951206815
  N   1.70525475385126      2.62070227626975      0.22974247080280
