13
Coordinates from ORCA-job run
  C   -0.80169161902921     -0.36047381697055      0.07201728322540
  C   0.56640743179210      0.25771360173179     -0.21553243836741
  F   -1.06761226721562     -1.19068493155333     -1.02599958850187
  H   0.52618137489786      0.86163513586749     -1.12480699858021
  H   -0.73914672818882     -1.00576383424410      0.94875597163876
  N   -1.75417336169365      0.65353567088484      0.26784301229031
  H   -2.62963067447962      0.29291948279699      0.61963633767473
  H   -1.91745468317158      1.19135706705783     -0.57314816941039
  N   1.54227484852049     -0.85945411095553     -0.50322759363413
  O   1.69246592889891     -1.68316696690830      0.39076246668556
  O   2.08289904919610     -0.84963255043630     -1.60161426465013
  C   1.05077610692253      1.03455486546070      0.91666690542427
  N   1.44770459355053      1.65946038726847      1.82764707620512
