13
Coordinates from ORCA-job run
  C   -0.80259148933393     -0.33670476976557     -0.14224116253201
  C   0.57014556636906      0.32707692673958     -0.03600689506385
  F   -1.04705813145804     -0.45657710493824     -1.51751756501499
  H   0.54645317749902      1.32194482971320     -0.48627262896811
  H   -0.75600187116554     -1.34894038206624      0.26063586118355
  N   -1.75977046501608      0.42879143460175      0.54502458912776
  H   -2.64069032055517     -0.05660936038958      0.63862923566192
  H   -1.90990498603997      1.32994642520465      0.11032965502594
  N   1.55146642166048     -0.47581328688460     -0.85801539236121
  O   2.11145776113164      0.11077290401376     -1.77520314287928
  O   1.68600230893938     -1.64982581708147     -0.53581645813722
  C   1.03392842992983      0.38011286357697      1.34314438007829
  N   1.41556359803931      0.42482533727579      2.45230952387921
