13
Coordinates from ORCA-job run
  C   -0.90087910513206      0.15297271551764     -0.40243871767003
  C   0.61450588343879      0.39001757682362     -0.41933223262516
  F   -1.46817892388216      1.41045583177646     -0.50619735639107
  H   0.93140599676218      0.86382434059169     -1.35438344747569
  H   -1.19046684485347     -0.41988289731186     -1.28516086889901
  N   -1.28624567025810     -0.46210515506967      0.83160392761761
  H   -1.96498519186981      0.11577967648351      1.30844214561278
  H   -1.66638739506409     -1.38533823170753      0.68267650266782
  N   1.34035543440710     -0.93798134243451     -0.37939338653818
  O   2.53135057734696     -0.90410901281626     -0.10609994179644
  O   0.68861374329780     -1.93119910309012     -0.68689741096141
  C   1.02959658598230      1.20615613652168      0.71329803006741
  N   1.34131490982456      1.90240946471536      1.60488275639137
