13
Coordinates from ORCA-job run
  C   -0.81324278639338     -0.31470265312252     -0.13187274674293
  C   0.58131537464299      0.30518520671717     -0.04752990070606
  F   -1.05505310185638     -0.48960268368322     -1.50177636634462
  H   0.59443812873637      1.27922061613969     -0.54176987187115
  H   -0.80413341220597     -1.30817620138301      0.31749124983678
  N   -1.74614860550586      0.51468730058625      0.51283479331104
  H   -2.64348659278159      0.06536666166966      0.62660555773892
  H   -1.86338877283520      1.39899679563428      0.03568262205416
  N   1.53823070553750     -0.56751544685706     -0.82559513531185
  O   1.63122339524585     -1.72923868191310     -0.44874283514102
  O   2.12193042769147     -0.04359944513678     -1.76567508416451
  C   1.04011031605541      0.40462161023020      1.33087232159717
  N   1.41720492366879      0.48575692111844      2.43947539574408
