16

C	-0.619021	-0.0106	-1.40087
C	0.0	0.0	0.0
Br	0.098095	-1.465068	-2.449148
H	1.091006	0.0	0.0
N	-2.033838	-0.118245	-1.339969
H	-2.414787	-0.133667	-2.2782
H	-2.403614	0.695966	-0.857116
N	-0.195922	1.270658	-2.170638
O	0.807169	1.85793	-1.795489
O	-0.924116	1.591349	-3.111575
N	-0.380574	-1.223545	0.683282
H	0.299996	-1.413979	1.406804
H	-1.309415	-1.169892	1.075318
C	-0.501245	1.21194	0.679137
N	-1.021523	2.110948	1.231151
Cl	3.284138	0.0	0.0
