16

C	-0.588406	-0.028625	-1.414721
C	0.0	0.0	0.0
Br	0.378007	-1.473079	-2.429297
H	1.093897	0.0	0.0
N	-1.974217	-0.181244	-1.379583
H	-2.36939	-0.318875	-2.299638
H	-2.189083	-0.938087	-0.739378
N	-0.278537	1.229732	-2.203687
O	0.553811	1.998882	-1.743137
O	-0.908474	1.371715	-3.248181
N	-0.487995	-1.228434	0.675697
H	0.247841	-1.918657	0.55644
H	-0.540019	-1.040616	1.670536
C	-0.512748	1.168451	0.715341
N	-0.914911	2.074989	1.34441
Cl	3.280752	0.0	0.0
