16

C	-0.297554	-0.066479	-1.498616
C	0.0	0.0	0.0
Br	-0.134601	1.768443	-2.329091
H	1.10313	0.0	0.0
N	0.542524	-1.026896	-2.048685
H	1.513929	-0.839114	-1.797358
H	0.409733	-1.162548	-3.040008
N	-1.754614	-0.422022	-1.772614
O	-1.971759	-1.215953	-2.683492
O	-2.595832	0.131925	-1.082251
N	-0.517954	-1.248742	0.590115
H	-0.4718	-1.156471	1.599351
H	0.143799	-1.974521	0.33159
C	-0.538565	1.154651	0.701579
N	-0.925164	2.057443	1.345309
Cl	3.273104	0.0	0.0
