16

C	-0.411155	0.070978	-1.480132
C	0.0	0.0	0.0
Br	-2.341591	0.345964	-1.646885
H	1.095057	0.0	0.0
N	0.275099	1.061098	-2.239231
H	1.269277	0.949826	-2.052265
H	-0.018371	1.976248	-1.928553
N	-0.064586	-1.299656	-2.094003
O	-0.928541	-2.158545	-2.198477
O	1.11753	-1.406281	-2.399091
N	-0.446821	-1.204514	0.658911
H	0.215313	-1.446987	1.384395
H	-1.371246	-1.102655	1.055752
C	-0.410907	1.252695	0.654225
N	-0.758733	2.227448	1.212368
Cl	3.244836	0.0	0.0
