16

C	-0.58262	-0.01947	-1.416927
C	0.0	0.0	0.0
Br	0.369442	-1.474992	-2.429156
H	1.094003	0.0	0.0
N	-1.970853	-0.152594	-1.389536
H	-2.362341	-0.285243	-2.311637
H	-2.202609	-0.904651	-0.749484
N	-0.253795	1.23683	-2.20357
O	0.57204	2.004677	-1.730483
O	-0.866624	1.378166	-3.25775
N	-0.49857	-1.225816	0.67046
H	-0.529248	-1.045897	1.667624
H	0.222191	-1.929	0.531604
C	-0.510692	1.169534	0.717005
N	-0.904213	2.078049	1.348868
Cl	3.28196	0.0	0.0
