16

C	-0.472196	-0.034821	-1.452947
C	0.0	0.0	0.0
Br	-2.507323	-0.430049	-1.43015
H	1.09326	0.0	0.0
N	-0.134202	1.091693	-2.174332
H	-0.410844	1.039318	-3.143704
H	-0.383812	1.963313	-1.729121
N	0.092558	-1.22296	-2.221304
O	0.759051	-2.041041	-1.614322
O	-0.15617	-1.228491	-3.423793
N	-0.448939	-1.142238	0.768329
H	0.304492	-1.43487	1.374568
H	-1.274157	-0.93377	1.310361
C	-0.431185	1.286003	0.566645
N	-0.808108	2.296431	1.035497
Cl	3.258376	0.0	0.0
