16

C	-0.352632	-0.013924	-1.49993
C	0.0	0.0	0.0
Br	-2.41762	-0.496742	-1.675978
H	1.095908	0.0	0.0
N	-0.008757	1.127507	-2.156566
H	-0.296109	1.99033	-1.721899
H	-0.088272	1.091932	-3.160934
N	0.253164	-1.19462	-2.250374
O	0.397021	-1.047209	-3.459175
O	0.517021	-2.202104	-1.6132
N	-0.450011	-1.071234	0.851334
H	-1.400137	-1.336508	0.621228
H	0.161009	-1.862305	0.702177
C	-0.47158	1.287829	0.521351
N	-0.868889	2.330626	0.889838
Cl	3.221844	0.0	0.0
