16

C	-0.596804	-0.012022	-1.410831
C	0.0	0.0	0.0
Br	0.375761	-1.428511	-2.456065
H	1.094006	0.0	0.0
N	-1.981563	-0.178384	-1.368153
H	-2.184363	-0.946174	-0.736491
H	-2.382097	-0.308332	-2.286879
N	-0.306359	1.263466	-2.181081
O	0.522183	2.032986	-1.715659
O	-0.946942	1.416147	-3.216961
N	-0.480712	-1.239822	0.661084
H	-0.527615	-1.0654	1.658629
H	0.25735	-1.926252	0.528367
C	-0.514373	1.155791	0.73503
N	-0.910137	2.052087	1.38222
Cl	3.278942	0.0	0.0
