14

C	-0.286989	0.080496	-1.48554
C	0.0	0.0	0.0
Br	-2.289335	0.48307	-1.794484
H	1.094473	0.0	0.0
H	-0.256591	-0.934498	-1.881905
N	0.538916	0.990027	-2.15946
H	0.838584	0.625161	-3.049561
H	1.341444	1.231684	-1.58283
C	-0.540833	-1.194962	0.60353
N	-0.920696	-2.203683	1.072264
N	-0.3814	1.198541	0.756351
O	-0.986018	1.066861	1.824408
O	0.010374	2.269567	0.291746
H	2.48835	0.0	0.0
