14

C	-0.301914	-0.135334	-1.488717
C	0.0	0.0	0.0
Br	0.101119	1.680122	-2.378655
H	1.092219	0.0	0.0
H	-1.352393	-0.256526	-1.743775
N	0.523897	-1.170497	-1.935801
H	0.491044	-1.299148	-2.937167
H	1.484562	-1.012552	-1.605045
C	-0.495873	-1.157322	0.720388
N	-0.892102	-2.083819	1.327733
N	-0.605333	1.204549	0.631203
O	-1.733991	1.5297	0.257934
O	0.043103	1.76116	1.512047
H	2.619495	0.0	0.0
