14

C	-0.422617	-0.039805	-1.434948
C	0.0	0.0	0.0
Br	-2.60181	0.103468	-1.501148
H	1.095391	0.0	0.0
H	-0.35713	-1.055869	-1.815846
N	0.18485	0.871739	-2.26273
H	0.190254	1.805106	-1.87737
H	-0.120885	0.824852	-3.221991
C	-0.446192	-1.164422	0.729261
N	-0.731171	-2.17295	1.262324
N	-0.312572	1.220975	0.708935
O	-0.214053	2.283862	0.070557
O	-0.483809	1.161998	1.932454
H	2.352743	0.0	0.0
