14

C	-0.310054	0.118738	-1.479245
C	0.0	0.0	0.0
Br	-2.273206	0.71478	-1.742652
H	1.094465	0.0	0.0
H	-0.392229	-0.889369	-1.888049
N	0.589311	0.950683	-2.159415
H	1.410403	1.13586	-1.584175
H	0.861282	0.557191	-3.047394
C	-0.548184	-1.200296	0.585039
N	-0.93119	-2.235699	0.990466
N	-0.333221	1.188013	0.7918
O	-0.796468	1.032208	1.925569
O	-0.018223	2.269659	0.295405
H	2.480257	0.0	0.0
