14

C	-0.423088	0.034813	-1.469664
C	0.0	0.0	0.0
Br	0.488419	1.485828	-2.429896
H	1.090447	0.0	0.0
H	-1.48588	0.258268	-1.57751
N	-0.091369	-1.196779	-2.153745
H	0.892223	-1.392123	-1.981199
H	-0.631734	-1.949354	-1.739589
C	-0.415849	-1.241037	0.615785
N	-0.734766	-2.290694	1.044932
N	-0.471355	1.104376	0.821807
O	-0.955617	2.100123	0.264593
O	-0.281196	1.003453	2.041578
H	2.419404	0.0	0.0
