14

C	-0.312961	-0.10838	-1.487583
C	0.0	0.0	0.0
Br	0.108705	1.712925	-2.351956
H	1.092237	0.0	0.0
H	-1.36655	-0.214799	-1.735276
N	0.498343	-1.144619	-1.957873
H	0.454276	-1.257026	-2.961689
H	1.463452	-1.000908	-1.634255
C	-0.491011	-1.168471	0.705908
N	-0.876761	-2.10716	1.301007
N	-0.600423	1.195265	0.652843
O	-1.722965	1.541032	0.277647
O	0.047767	1.725848	1.549036
H	2.616541	0.0	0.0
