14

C	-0.487391	-0.010537	-1.44572
C	0.0	0.0	0.0
Br	0.197951	-1.635827	-2.299596
H	1.094371	0.0	0.0
H	-0.008772	0.817047	-1.965155
N	-1.915249	0.053037	-1.653496
H	-2.364194	-0.647116	-1.070881
H	-2.218851	0.970877	-1.343199
C	-0.49975	-1.118815	0.766761
N	-0.934774	-2.043366	1.350723
N	-0.35537	1.239762	0.645882
O	-0.359246	1.275015	1.88802
O	-0.466641	2.249713	-0.082667
H	2.370282	0.0	0.0
