14

C	-0.452576	-0.013812	-1.441574
C	0.0	0.0	0.0
Br	0.405053	-1.626988	-2.322007
H	1.089005	0.0	0.0
H	0.007094	0.821682	-1.963511
N	-1.861352	-0.00681	-1.581399
H	-2.130625	-0.028429	-2.557264
H	-2.269229	-0.807324	-1.11227
C	-0.538462	-1.102722	0.761379
N	-0.953658	-2.051409	1.320867
N	-0.326583	1.274486	0.625672
O	-0.188798	2.286641	-0.07602
O	-0.558255	1.288721	1.842816
H	2.40051	0.0	0.0
