14

C	0.0	0.0	0.0
C	-0.24551	-0.047066	-1.530916
Br	1.962263	0.0	0.0
H	0.148257	-1.019912	-1.845567
H	-0.242723	0.990008	0.400148
H	0.413154	0.708174	-1.970231
N	-0.622209	-1.093666	0.671012
H	-0.520821	-0.965555	1.673471
H	-1.639219	-0.937147	0.481108
C	-1.636454	0.153756	-2.118653
H	-2.064264	1.116013	-1.836688
H	-2.364077	-0.574831	-1.770932
H	-1.536882	0.112846	-3.212918
H	-3.373956	0.0	0.0
