14

C	0.0	0.0	0.0
C	-0.471985	-0.14724	-1.43915
Br	1.970227	0.0	0.0
H	-0.132766	-1.11861	-1.82238
H	-0.267946	0.992787	0.367069
H	-1.567555	-0.177795	-1.320893
N	-0.546145	-0.962314	0.906798
H	-0.459493	-1.880012	0.47668
H	-1.564425	-0.73073	0.873679
C	-0.076726	0.982564	-2.379296
H	-0.555422	0.852019	-3.354395
H	1.003623	1.039241	-2.532495
H	-0.416347	1.940923	-1.975188
H	-3.130394	0.0	0.0
