15

C	0.0	0.0	0.0
C	-0.231471	-0.20904	-1.542948
Br	1.949467	0.0	0.0
H	0.364099	-1.084939	-1.802912
H	-0.288626	-0.914564	0.51082
C	-0.669907	1.129476	0.632709
N	-0.71083	2.135951	1.265748
N	0.440751	0.898844	-2.317885
O	0.161292	2.054453	-2.014833
O	1.151113	0.569343	-3.269101
C	-1.590056	-0.344025	-2.223366
H	-2.198792	0.542645	-2.071141
H	-1.393696	-0.499349	-3.296317
H	-2.13532	-1.192924	-1.820845
H	-2.086771	0.0	0.0
