17

C	-0.591181	-0.030493	-1.407432
C	0.0	0.0	0.0
Br	0.191431	-1.508483	-2.452305
H	1.093994	0.0	0.0
C	-2.033904	-0.343837	-1.316383
N	-3.200011	-0.46853	-1.212733
N	-0.342541	1.18379	-2.155827
H	-0.769564	1.963143	-1.668178
H	-0.761514	1.108556	-3.076118
N	-0.412084	-1.223296	0.687161
H	-1.089962	-1.030731	1.415117
H	0.419635	-1.619807	1.111899
C	-0.418864	1.26336	0.744727
H	-0.003974	2.159971	0.27664
H	0.018951	1.208937	1.744565
H	-1.508589	1.361235	0.842223
H	2.847725	0.0	0.0
