17

C	-0.243201	0.070711	-1.513877
C	0.0	0.0	0.0
Br	-0.08692	-1.883776	-2.310398
H	1.103977	0.0	0.0
C	-1.603522	0.419627	-1.921728
N	-2.681395	0.763671	-2.242634
N	0.722134	0.917995	-2.049045
H	0.736485	0.947254	-3.058947
H	1.648066	0.714831	-1.635624
N	-0.651926	-1.137267	0.636223
H	-0.549676	-1.006955	1.637858
H	-0.120374	-1.970173	0.404625
C	-0.48383	1.286865	0.650655
H	-0.113678	2.156675	0.108495
H	-0.083771	1.333609	1.669261
H	-1.577517	1.316116	0.696634
H	2.920426	0.0	0.0
