17

C	-0.316069	0.04855	-1.504186
C	0.0	0.0	0.0
Br	-0.109503	-1.790413	-2.280097
H	1.10426	0.0	0.0
C	-1.707423	0.417859	-1.780253
N	-2.809991	0.783314	-1.965148
N	0.597332	0.900636	-2.218787
H	0.312056	1.867121	-2.113237
H	1.521005	0.776042	-1.786486
N	-0.632087	-1.128918	0.678841
H	-0.540356	-0.963264	1.67629
H	-0.073846	-1.953997	0.483475
C	-0.45668	1.290262	0.664867
H	-0.122796	2.171358	0.114217
H	0.003853	1.347304	1.656267
H	-1.545872	1.318964	0.771328
H	2.926168	0.0	0.0
