17

C	-0.595417	0.001724	-1.401839
C	0.0	0.0	0.0
Br	0.317369	1.467564	-2.510328
H	1.097323	0.0	0.0
C	-0.289929	-1.231335	-2.132112
N	-0.084995	-2.187831	-2.784278
N	-2.008517	0.19519	-1.395215
H	-2.223485	1.094991	-0.981248
H	-2.37557	0.178593	-2.339709
N	-0.359128	-1.279418	0.610556
H	0.465324	-1.620891	1.093055
H	-1.118163	-1.178284	1.272402
C	-0.433566	1.208122	0.819575
H	0.201358	1.240932	1.709001
H	-0.281483	2.145176	0.277727
H	-1.480144	1.142514	1.143697
H	2.809694	0.0	0.0
