17

C	-0.578999	-0.039561	-1.408632
C	0.0	0.0	0.0
Br	0.319237	1.423553	-2.531698
H	1.093656	0.0	0.0
C	-0.238049	-1.281426	-2.107642
N	0.003173	-2.241732	-2.740227
N	-1.996124	0.124551	-1.426502
H	-2.233379	1.028621	-1.03696
H	-2.350868	0.079247	-2.375144
N	-0.361622	-1.268169	0.627854
H	0.446825	-1.587281	1.153385
H	-1.157096	-1.170667	1.245482
C	-0.447457	1.223673	0.786982
H	0.165035	1.271685	1.691391
H	-1.502013	1.165544	1.088642
H	-0.28163	2.150578	0.232135
H	2.815196	0.0	0.0
