16

C	0.0	0.0	0.0
C	-0.384033	-0.404666	-1.438828
F	1.389316	0.0	0.0
H	-0.019277	-1.425707	-1.584467
C	-0.402633	1.377765	0.336375
N	-0.552699	2.477585	0.721006
C	-0.485969	-0.977136	1.043717
H	-0.204066	-1.99071	0.752066
H	-1.57433	-0.914582	1.092113
H	-0.02478	-0.723351	2.002554
C	0.271505	0.484633	-2.399425
N	0.818523	1.189934	-3.161991
N	-1.851257	-0.439803	-1.758996
O	-2.466478	-1.434686	-1.224856
O	-2.406614	0.719154	-1.638253
H	-3.005803	0.0	0.0
