18

C	-0.547584	0.010431	-1.414601
C	0.0	0.0	0.0
F	-1.858563	0.366279	-1.455888
H	1.088547	0.0	0.0
N	0.20233	1.05534	-2.260159
O	-0.47113	1.814157	-2.9418
O	1.421039	0.985392	-2.226811
C	-0.365303	-1.312927	-2.124454
H	-1.005192	-2.063697	-1.657999
H	-0.675427	-1.196467	-3.165884
H	0.675287	-1.636225	-2.083851
N	-0.471761	-1.223828	0.708795
O	-1.683837	-1.351031	0.877759
O	0.394488	-2.027441	1.045864
N	-0.461209	1.194742	0.751032
O	-0.673948	1.068492	1.953266
O	-0.420273	2.251179	0.123057
Cl	2.687298	0.0	0.0
