18

C	-0.584428	0.002751	-1.396647
C	0.0	0.0	0.0
F	-1.936628	-0.163446	-1.395596
H	1.086306	0.0	0.0
N	-0.299466	1.37123	-2.013082
O	-1.163868	1.855029	-2.727891
O	0.816153	1.823695	-1.78912
C	0.036066	-1.020134	-2.320716
H	-0.403864	-0.895715	-3.314014
H	-0.185998	-2.023121	-1.957301
H	1.117125	-0.889797	-2.366803
N	-0.466706	-1.242356	0.68423
O	-1.461791	-1.170206	1.403747
O	0.21941	-2.242167	0.485145
N	-0.473442	1.129776	0.845249
O	-1.289693	1.927212	0.376161
O	0.117809	1.240624	1.915189
Cl	2.684467	0.0	0.0
