18

C	-0.528766	-0.04806	-1.428819
C	0.0	0.0	0.0
F	-1.842968	-0.415194	-1.445866
H	1.086325	0.0	0.0
N	-0.449655	1.346528	-2.032846
O	0.553423	1.987831	-1.756937
O	-1.34311	1.664244	-2.802892
C	0.287772	-0.948704	-2.31887
H	-0.049504	-0.815118	-3.348879
H	1.345757	-0.703464	-2.212718
H	0.136673	-1.982174	-2.014077
N	-0.472483	-1.243753	0.698982
O	0.086756	-2.281407	0.364805
O	-1.384137	-1.140928	1.512658
N	-0.515589	1.145111	0.799653
O	0.024271	1.307819	1.886938
O	-1.441385	1.809037	0.339154
Cl	3.181206	0.0	0.0
