13
Coordinates from ORCA-job run
  C   -0.67147682283845     -0.06034600598825     -0.11869740524784
  C   0.56885454263532      0.66883962688056      0.39974423644011
  Br  -1.16057256799588     -1.42591289583163      1.31666841882753
  H   0.92083380740782      1.35313624916780     -0.37674209743274
  H   0.35127990707536      1.20061175589514      1.32248024493620
  C   -1.78762863225083      0.88572149142367     -0.10627671888221
  N   -2.66615815948707      1.66602673039703     -0.12422978494152
  N   -0.50112674117615     -0.59254499467896     -1.40680603017593
  H   -1.33365625597043     -1.05063038332296     -1.75298675469068
  H   0.30645277955007     -1.20058226364338     -1.45594827690019
  N   1.70097497107351     -0.25779938318666      0.69944390377659
  O   1.98770621513060     -1.09057751618918     -0.15921743573329
  O   2.28451695684613     -0.09494241092318      1.76356770002395
