13
Coordinates from ORCA-job run
  C   -0.77597956985822     -0.29024147517566      0.03516221839365
  C   0.53453153906405     -0.20096382861168      0.84295591106498
  Br  -1.97621547411064     -1.36204289226066      1.17241772923077
  H   0.98991951798544     -1.18962016832792      0.90640717957047
  H   0.36888910730884      0.22773009203663      1.82898716034155
  C   -1.35504128937713      1.04927740894852     -0.09839194884233
  N   -1.77635830227950      2.13989501418720     -0.21701370179499
  N   -0.72316671139419     -0.91325056007830     -1.25451396616658
  H   -0.14461330570442     -0.36591074381392     -1.88306036724275
  H   -0.33150949728993     -1.84525922593492     -1.17998094183038
  N   1.49732024267812      0.69276470372087      0.13348634815285
  O   1.72616590716435      1.78958096343765      0.63599670438928
  O   1.96705783581323      0.26704071187217     -0.92245232526649
