13
Coordinates from ORCA-job run
  C   -0.57746954012103     -0.15776261041834     -0.18927071374387
  C   0.89731345851897     -0.21761403011086      0.20028133771486
  Br  -1.63388068266923      0.13215432472747      1.50441192043977
  H   1.08793873129188     -1.10782756543186      0.79768879961154
  H   1.49747436442495     -0.22537115670739     -0.71203125572860
  C   -0.90856634852522      0.96369867812101     -1.06707400659181
  N   -1.22478255094691      1.80073112515437     -1.82871451598162
  N   -0.89386827936034     -1.37262705527351     -0.85231007130556
  H   -1.82925805986738     -1.35971021859441     -1.23952816821704
  H   -0.79538933068136     -2.16955870512681     -0.23462495252923
  N   1.34202457933795      0.94938679259859      1.01166919533462
  O   1.12147477365519      2.06011330720831      0.53945743181526
  O   1.91698888494255      0.70538711385338      2.06804499918167
