13
Coordinates from ORCA-job run
  C   -0.68252237669117     -0.18663002917399     -0.02987489593655
  C   0.85229920026356     -0.16270290664381     -0.03412747774833
  Br  -1.26234924086986     -0.73351855372138      1.76738160722580
  H   1.19789436851817      0.23777062236842     -0.99093074399052
  H   1.23029012406046     -1.17123871548769      0.12631857679688
  C   -1.26032088061388      1.12598111595015     -0.32271749790448
  N   -1.71734923093224      2.15930181173309     -0.64493584038764
  N   -1.22486031309391     -1.13076650454564     -0.97296811592370
  H   -1.09661606470134     -0.81089580950125     -1.92626448571036
  H   -0.82104482575417     -2.05133042849438     -0.84816085662663
  N   1.44722143056754      0.69419868134542      1.03204328885223
  O   2.22513882067862      0.15409316628422      1.81304254943342
  O   1.11421898856819      1.87573754988689      1.03219389191992
