13
Coordinates from ORCA-job run
  C   -0.79291298178643     -0.23945623839831      0.09699567407048
  C   0.60406534518253     -0.26622793870957      0.72608262182184
  Br  -1.86096002321192     -1.39164059070451      1.29747653662445
  H   0.60150940567447      0.10882727655172      1.75003910088784
  H   1.00465317146883     -1.28152305996467      0.72111405224637
  C   -1.35938640718066      1.10885509400035      0.17545039934035
  N   -1.79716775322001      2.19583230365293      0.25932526166910
  N   -0.93383065848805     -0.75190282181636     -1.23426190500511
  H   -0.55906429403399     -1.69071220626967     -1.30200203818405
  H   -0.46282863862778     -0.13663470325485     -1.88707131102769
  N   1.59880339588685      0.57724324348020     -0.02200694244743
  O   2.72628198936306      0.60017261474936      0.45454327714824
  O   1.22983744897311      1.16716702668337     -1.03568472714444
