13
Coordinates from ORCA-job run
  C   -0.73230646615683     -0.10663869370359     -0.07670734931556
  C   0.54799182297368      0.61463515956015      0.39548122526263
  Br  -1.32852612705223     -1.24286486234317      1.43072282534954
  H   0.95542739685297      1.19083423083904     -0.43958264261321
  H   0.35149218995418      1.25543264713431      1.25264617409551
  C   -1.74586952690469      0.93509242807645     -0.25706927850645
  N   -2.51100157611855      1.80935138640136     -0.43391264589221
  N   -0.66070366121288     -0.90317133671920     -1.25988561819313
  H   -0.69196112541445     -0.32842654814066     -2.09314845604206
  H   0.17366356668981     -1.47635156564853     -1.25376338321400
  N   1.61064179932090     -0.34432667830737      0.81231513066604
  O   1.93745403030823     -1.20166598126747     -0.00815561647940
  O   2.09169767675985     -0.20090018588129      1.93005963488228
