13
Coordinates from ORCA-job run
  C   -0.69081814111308     -0.10795041686180     -0.09371638022175
  C   0.80924115684303     -0.25283897352035      0.19386397878789
  Br  -1.60314068449786      0.13534563911660      1.63005297129589
  H   0.98196816696930     -1.15702664590330      0.77550736931255
  H   1.35164439531831     -0.28968649401286     -0.75488879007884
  C   -0.98908614625392      1.04642706099951     -0.94315357893876
  N   -1.24674309694654      1.90794581988438     -1.69951250158106
  N   -1.25032444616634     -1.27682607963534     -0.72453927153180
  H   -1.03819686455386     -2.11606130677997     -0.19831947890823
  H   -0.92700632120963     -1.36513112283855     -1.68137682108961
  N   1.38788784898857      0.87857679207948      0.97571475563804
  O   1.97078639838032      0.59493508754192      2.01793963677455
  O   1.24278773424170      2.00129063993025      0.50142811054116
