13
Coordinates from ORCA-job run
  C   -0.68968411737961     -0.11670665574277      0.09217670344472
  C   0.55784744752111      0.74072529655788      0.33543107695324
  Br  -1.32266206330732     -0.91645753044731      1.77130234969484
  H   0.76416057721930      1.33820334491537     -0.55399310341806
  H   0.42924758861218      1.37304989462842      1.21153939475397
  C   -1.75876619047659      0.79790134250722     -0.34539630566384
  N   -2.58517343432040      1.52254723366843     -0.76481363750375
  N   -0.38914588568503     -1.18127027751473     -0.81805432921461
  H   -1.22150769685994     -1.69858763704199     -1.07096838654423
  H   0.07803422080932     -0.83776028821688     -1.65024334435879
  N   1.75200326580916     -0.12382969480062      0.54924517801681
  O   2.40703129470969     -0.40291291249549     -0.45308142441703
  O   1.97761499334812     -0.49590211601752      1.69585582825672
