13
Coordinates from ORCA-job run
  C   -0.67539962944915     -0.05411167682466     -0.09873889967613
  C   0.59290524906813      0.68376322550456      0.33364167444888
  Br  -1.16147623433403     -1.29217419664676      1.44575668627257
  H   0.40936885972640      1.29176479679262      1.21581110213567
  H   0.94173160387541      1.29463268889775     -0.50303950430763
  C   -1.76812499409122      0.91856119156184     -0.13805771719691
  N   -2.62320587209216      1.72285606749286     -0.19245655248328
  N   -0.54640031855022     -0.68765402155993     -1.34613780153022
  H   0.24326063070666     -1.32067524046583     -1.36377499656203
  H   -1.39815985811721     -1.14882850539943     -1.63736696028090
  N   1.70915576822604     -0.24520990514541      0.68170127260436
  O   2.31405018261385     -0.02158886391161      1.72265503285390
  O   1.96229461241750     -1.14333556029601     -0.11999333627826
