13
Coordinates from ORCA-job run
  C   -0.77405020901832     -0.27580996345796      0.08966898230957
  C   0.55024681093898     -0.17527595430245      0.86589240944611
  Br  -1.94662542713110     -1.33343472522432      1.30574204627855
  H   0.42462201386889      0.36013853900615      1.80488679724119
  H   0.95513367620647     -1.17414959695900      1.02379085369017
  C   -1.39040014517564      1.04323999754031     -0.05180336791920
  N   -1.86327790473885      2.11013456939540     -0.18917318117077
  N   -0.70799133084084     -0.90969778364359     -1.18102399162065
  H   -0.51973045320787     -0.25983134849133     -1.93226263422423
  H   -0.04579553617121     -1.67387309002372     -1.19700520387950
  N   1.53733308692538      0.57572914631850      0.03799399959645
  O   2.16616767154690     -0.07695215113968     -0.79531758243685
  O   1.61536774679722      1.78878236098169      0.21961087268916
