13
Coordinates from ORCA-job run
  C   -0.70259184889211     -0.32572133764626      0.09832303091850
  C   0.66601713417671     -0.26613352805102      0.76734687109927
  Br  -1.79057438549608     -1.46262765275920      1.27917222074415
  H   0.59936323164449      0.08395840548727      1.79641912518691
  H   1.12044234042080     -1.25776439653738      0.73615235991079
  C   -1.34361427276676      0.99902040856921      0.09782132960462
  N   -1.85582052457849      2.05675335917809      0.05528909646922
  N   -0.63066380001012     -0.97879768682781     -1.18200476108110
  H   -0.10475278871351     -0.38625524048538     -1.81602187156990
  H   -1.56102461409821     -1.12174207617836     -1.55769768041976
  N   1.62205462769121      0.66350543527761      0.07597455791469
  O   1.33459154130850      1.07633494972033     -1.04643181662540
  O   2.64557335931355      0.92046936025291      0.69565753784801
