13
Coordinates from ORCA-job run
  C   -0.57435156422624     -0.16363838113551     -0.19601903857063
  C   0.89373518634048     -0.21035811142961      0.21955193038323
  Br  -1.66008546734538      0.15845399978724      1.47327631233846
  H   1.07692630045778     -1.08786663665600      0.83773567531254
  H   1.50952212105075     -0.23444059582760     -0.68202793366548
  C   -0.89354686446458      0.93793894821570     -1.10282362267097
  N   -1.19226131939368      1.76035503860494     -1.88709571095706
  N   -0.87580019950214     -1.39336710449937     -0.83821656023471
  H   -0.78538079954999     -2.17676368543650     -0.20223570738532
  H   -1.80440132783618     -1.39191267392166     -1.24166779022061
  N   1.32152532044850      0.97386234432021      1.01499816016903
  O   1.10028567903788      2.07464872659722      0.52049581438848
  O   1.88383293498274      0.75208813138089      2.08302847111307
