13
Coordinates from ORCA-job run
  C   -0.69736271990094     -0.19664457306854      0.04240401302199
  C   0.61355805402437     -0.21066614792565      0.82426736046390
  Br  -1.91480301709521     -1.40336985553446      1.15297949822068
  H   0.98677407027365     -1.22938936762649      0.91396590089929
  H   0.48937368053951      0.25314344036491      1.80091392422692
  C   -1.35889143510216      1.10662272158672      0.05876465096469
  N   -1.91368090047304      2.14248078298996      0.05079439961658
  N   -0.49463045669559     -0.62305278139995     -1.27852817973310
  H   -1.33241124027314     -0.60169356797232     -1.84425793074836
  H   -0.03408495519855     -1.52215180568684     -1.34126474254217
  N   1.63879167534782      0.56901735710140      0.06613820508323
  O   1.54031743297952      1.79152731092337      0.11086969750720
  O   2.47804981157374     -0.07682351375207     -0.55604679698084
