13
Coordinates from ORCA-job run
  C   -0.69616406233594     -0.20006413842654      0.00611675265885
  C   0.57106174905155     -0.21067226058969      0.85689602567165
  Br  -1.96475525693934     -1.41745371145118      1.04536638558626
  H   0.94507783428126     -1.22767504186027      0.96168365122136
  H   0.39221185080202      0.24667371523267      1.82814557801371
  C   -1.36608554221593      1.09901684890952     -0.01051585397267
  N   -1.94050694431767      2.12260260360553     -0.06747736784280
  N   -0.41991554189172     -0.62009841681344     -1.30343660797866
  H   -1.22509829697884     -0.59879223701270     -1.91461254196343
  H   0.04767781462283     -1.51670480050988     -1.34499428246436
  N   1.62992003067055      0.57938697315410      0.15841010218642
  O   1.51403906771391      1.80069542683547      0.19458126920580
  O   2.51253729753731     -0.05691496107358     -0.41116311032216
