13
Coordinates from ORCA-job run
  C   -0.68345353395130     -0.16893470172338      0.05170286274987
  C   0.53131502363474      0.62608331469688      0.54472971010822
  Br  -1.26209227316173     -1.46809260527904      1.40676177702613
  H   0.70155934013730      1.47423615716699     -0.12030242603423
  H   0.38881085983276      0.95557497586890      1.57191273387431
  C   -1.79376988450035      0.78971796148811     -0.08607140399765
  N   -2.65077285164606      1.57773524439055     -0.25495098262151
  N   -0.35083843066122     -0.89209918892630     -1.13947291922547
  H   0.08825028969651     -0.29100869171043     -1.82849208046545
  H   -1.16375905928698     -1.34578602560731     -1.53662704194390
  N   1.76198679464810     -0.21111530372158      0.48436451687492
  O   2.41600552113919     -0.14131811155708     -0.55430853351796
  O   2.01575820411905     -0.90699302508631      1.46175378717275
