13
Coordinates from ORCA-job run
  C   -0.68967575552390     -0.35478635151515      0.09146363256505
  C   0.60781098861433     -0.10094523427872      0.85074538470083
  Br  -1.81560534224129     -1.37039194322163      1.34468735985227
  H   1.11744683884014     -1.05213454619866      1.01270176698148
  H   0.42892113015392      0.39598045255217      1.80308586924755
  C   -1.39934090533700      0.90799376330418     -0.16884920405092
  N   -1.96282468394846      1.90974050124577     -0.41801586482256
  N   -0.46696065005063     -1.18784354136651     -1.06061427987798
  H   0.08217449488311     -0.66467828292238     -1.73462162441686
  H   -1.35020807651298     -1.44863398023968     -1.48365707756365
  N   1.56929366274784      0.77677270319093      0.10163294682939
  O   2.51545349525356      1.19647683951441      0.75440032058941
  O   1.36351480312135      0.99144961993530     -1.09195923003405
