13
Coordinates from ORCA-job run
  C   -0.68597595928537     -0.11106568864482     -0.12270382904704
  C   0.79491752584671     -0.24223944184921      0.25781186652792
  Br  -1.68724489349866      0.27902510984691      1.52381496649881
  H   1.38670668860122     -0.35859225601657     -0.65407882542864
  H   0.92532728899291     -1.09794080230517      0.91851765821104
  C   -0.92434912125896      0.97348702092270     -1.07659093665808
  N   -1.13029397122989      1.77628291771280     -1.90938559137047
  N   -1.22290690305802     -1.32293650087650     -0.68680766644184
  H   -1.04325083191856     -2.11998203983790     -0.08800143647598
  H   -0.85729636068111     -1.48666904711708     -1.61803450673993
  N   1.34289204825999      0.94381038401113      0.97790554383610
  O   1.23803027306603      2.02566077785639      0.40767036312481
  O   1.86344421616371      0.74115956629732      2.07088239396328
