13
Coordinates from ORCA-job run
  C   -0.66887802293634     -0.00860456376837     -0.14600824212855
  C   0.57978339098239      0.55567499085591      0.53377130219399
  Br  -1.25926362613208     -1.59555128613645      0.98806918366376
  H   0.35133081594951      0.91422595669167      1.53423196750517
  H   0.98354787896888      1.35744244659309     -0.09016150235872
  C   -1.74644358720843      0.96859253560764      0.01389091570687
  N   -2.58909554278194      1.77947377435627      0.12943690356488
  N   -0.47364669160021     -0.29485435407774     -1.50787783493427
  H   0.30580029790040     -0.92493266179002     -1.64812878046943
  H   -1.31270888822381     -0.63778805365358     -1.95663827539709
  N   1.66485223308982     -0.45952176642448      0.68314918243319
  O   2.22087540916504     -0.52098189776535      1.77248697962172
  O   1.94484633282679     -1.13317512048858     -0.30722179940152
