13
Coordinates from ORCA-job run
  C   -0.69231761462666     -0.12795661754061      0.05943145878059
  C   0.54686997731319      0.69464045380800      0.43390697157510
  Br  -1.36527344012030     -1.12018793709516      1.61577049108845
  H   0.39449302355331      1.21903969588351      1.37499899863448
  H   0.77346044175248      1.39323370731307     -0.37305452609944
  C   -1.75207361301972      0.83320612646197     -0.29252466759200
  N   -2.56365517919294      1.61211913769093     -0.63687841176320
  N   -0.36735498561027     -1.07778325159296     -0.96248995846983
  H   -1.19187140239015     -1.56122443677854     -1.29548678933959
  H   0.12045040848418     -0.63952754376746     -1.73605950937132
  N   1.73857995417876     -0.18854771827597      0.57423483518843
  O   2.42156688669054     -0.34405184116946     -0.43618878058763
  O   1.93712554298754     -0.69295977493737      1.67433988795592
