13
Coordinates from ORCA-job run
  C   -0.57300233979481     -0.12512679278064     -0.22441599086668
  C   0.85455579839390     -0.27288078110661      0.29567676021196
  Br  -1.72905480048796      0.40718996269940      1.34040121473732
  H   1.52204439337382     -0.41495727655996     -0.55691633877965
  H   0.91497613102866     -1.11739009564266      0.98043670615401
  C   -0.72915690132135      0.93455442783572     -1.21961701425498
  N   -0.90386553025046      1.71960694850551     -2.07632297391057
  N   -0.94575516820779     -1.36489557203543     -0.80720819906657
  H   -1.84208249502490     -1.30896710292282     -1.27464082638641
  H   -0.97053395440735     -2.10690055854369     -0.11788678696262
  N   1.33866164575975      0.92201648289724      1.04129842920642
  O   1.25579273843479      1.99987419410025      0.46107105916493
  O   1.80642048250371      0.72787616355368      2.15912396075284
