13
Coordinates from ORCA-job run
  C   -0.68264614575074     -0.11432836814029     -0.13985079469016
  C   0.78990400726156     -0.23855846985651      0.27306922089869
  Br  -1.72317941276322      0.24964856286513      1.48785475189087
  H   1.40396242424374     -0.34152561782947     -0.62589531801900
  H   0.91148646214845     -1.10015236973780      0.92765470168919
  C   -0.90843195521079      0.97777838335939     -1.08811214848974
  N   -1.10272721675536      1.78763835176653     -1.91681758082292
  N   -1.19656927155667     -1.32501041068157     -0.72859105355795
  H   -1.02515040629107     -2.12625801406117     -0.13307243271043
  H   -0.80604091892322     -1.47642860155022     -1.65176651661050
  N   1.31374697261261      0.94339817406856      1.01804224316419
  O   1.82297320978655      0.73032881252514      2.11441524120427
  O   1.20267225119819      2.03246956727227      0.46306968605349
