13
Coordinates from ORCA-job run
  C   -0.60353391236165     -0.17907724600869     -0.07665160148802
  C   0.86013464718746     -0.25125633579901      0.35360690364102
  Br  -1.70073647067782      0.24154258507299      1.48663680195657
  H   0.96636659478288     -1.04155999563978      1.09242967338257
  H   1.48907848704030     -0.43791344398937     -0.52133464575549
  C   -0.86399083681452      0.85994216322376     -1.08271840092121
  N   -1.12484769996394      1.58491711293161     -1.97149394714534
  N   -0.96780654960506     -1.50887942226019     -0.52563880953984
  H   -1.96675950757958     -1.55440554265417     -0.69465128382210
  H   -0.49329181044183     -1.70648737612476     -1.40271261334306
  N   1.34548357753494      1.01680055840739      0.96553715517999
  O   1.32439074395882      2.01404045987016      0.24879644404416
  O   1.73551273694003      0.96233648297008      2.12819432381075
