13
Coordinates from ORCA-job run
  C   -0.68429223833453     -0.11857407250771     -0.12624400717147
  C   0.79449210473610     -0.23459284153145      0.26694154144123
  Br  -1.70077204279114      0.27699773586300      1.51045163963788
  H   1.39414583422325     -0.35618016670914     -0.63936193716754
  H   0.92626027390150     -1.08298746068333      0.93675605363785
  C   -0.92530015350202      0.95698254873620     -1.08959508698911
  N   -1.12924099317632      1.75510390094702     -1.92742795622480
  N   -1.20638004310933     -1.33883932261589     -0.68519026404829
  H   -1.01666274592009     -2.13231308923173     -0.08496607452034
  H   -0.84319485258000     -1.50007839755739     -1.61748480709823
  N   1.32833891688036      0.96225599407281      0.97974607211378
  O   1.21719922190753      2.03844657247962      0.40013160811938
  O   1.84640671776472      0.77277859873800      2.07624321826968
