13
Coordinates from ORCA-job run
  C   -0.69418149286501     -0.35276861835770      0.07179198815770
  C   0.57748465420331     -0.09164742211855      0.87133188581515
  Br  -1.86504641589445     -1.34903466201024      1.29957734198890
  H   0.36755216067124      0.41639643712924      1.81131782449783
  H   1.07925428752645     -1.04187996922184      1.06137291855945
  C   -1.39049297738226      0.90856857931431     -0.22817960980076
  N   -1.93329897235347      1.91470303067474     -0.50410819722469
  N   -0.43491687621496     -1.20171479461056     -1.06072784914342
  H   0.14050446873389     -0.68941051838488     -1.72113762306709
  H   -1.30365538751644     -1.46397212746779     -1.51191532916324
  N   1.56559492316484      0.77527761995123      0.14493229951020
  O   1.40494715210922      0.96965832990738     -1.05908317853641
  O   2.48625447581763      1.20682411519464      0.82582752840643
