15

C	-0.444922	-0.130888	-1.438858
C	0.0	0.0	0.0
Br	0.100542	1.530546	-2.470707
H	1.0961	0.0	0.0
H	-1.526571	-0.126114	-1.568745
N	0.161199	-1.303303	-1.956664
H	1.163643	-1.264912	-1.76512
H	0.005504	-1.387508	-2.952516
N	-0.416267	-1.144664	0.801614
H	-0.738785	-1.873307	0.177641
H	0.43248	-1.494238	1.241866
N	-0.580689	1.199336	0.662801
O	-0.036274	1.56313	1.702606
O	-1.600663	1.70962	0.190268
H	2.738558	0.0	0.0
