15

C	-0.615492	-0.02444	-1.380264
C	0.0	0.0	0.0
Br	0.368051	-1.430064	-2.474755
H	1.089442	0.0	0.0
H	-0.404222	0.886259	-1.930113
N	-2.001074	-0.296725	-1.299303
H	-2.406054	-0.432579	-2.216819
H	-2.114345	-1.140598	-0.746297
N	-0.425545	-1.130602	0.789487
H	0.42299	-1.550458	1.160023
H	-0.953279	-0.783781	1.579186
N	-0.348796	1.284011	0.626656
O	-0.626681	1.304046	1.835071
O	-0.225702	2.304167	-0.061075
H	2.545242	0.0	0.0
