15

C	-0.399753	0.046989	-1.444632
C	0.0	0.0	0.0
Br	-2.56906	0.154101	-1.463825
H	1.094203	0.0	0.0
H	-0.322499	-0.959372	-1.844642
N	0.169459	1.009277	-2.241234
H	0.657957	1.732196	-1.737949
H	0.631422	0.665064	-3.063885
N	-0.452049	-1.176508	0.652704
H	-1.392578	-1.056531	1.007444
H	0.174103	-1.367194	1.425747
N	-0.348291	1.260653	0.716659
O	-0.830326	1.183458	1.850217
O	-0.033492	2.325909	0.172727
H	2.607923	0.0	0.0
