15

C	-0.386733	0.079192	-1.447266
C	0.0	0.0	0.0
Br	-2.54008	0.241256	-1.486931
H	1.105063	0.0	0.0
H	-0.326433	-0.923546	-1.858298
N	0.215545	1.036637	-2.231169
H	0.720591	0.668618	-3.016841
H	0.715956	1.735432	-1.701504
N	-0.460061	-1.18995	0.621635
H	-1.402739	-1.069209	0.974742
H	0.164753	-1.408778	1.387685
N	-0.339784	1.245366	0.737084
O	-0.804951	1.152248	1.87833
O	-0.033305	2.317943	0.203738
H	2.594851	0.0	0.0
