15

C	-0.298558	0.025141	-1.474829
C	0.0	0.0	0.0
Br	-2.50811	0.011849	-1.655523
H	1.09939	0.0	0.0
H	-0.167557	-0.977845	-1.873814
N	0.280882	0.991657	-2.235425
H	0.697563	1.751488	-1.719541
H	0.763493	0.688895	-3.062377
N	-0.452949	-1.134019	0.711917
H	0.268022	-1.843352	0.702142
H	-1.342302	-1.47815	0.377575
N	-0.416068	1.268104	0.658703
O	-0.005849	2.311231	0.128209
O	-1.07691	1.240482	1.691719
H	2.608611	0.0	0.0
