15

C	-0.493619	0.129874	-1.434132
C	0.0	0.0	0.0
Br	0.078054	-1.543124	-2.432387
H	1.093955	0.0	0.0
H	0.063129	0.912472	-1.943552
N	-1.889444	0.359137	-1.533092
H	-2.181369	0.449218	-2.497373
H	-2.423234	-0.384716	-1.102884
N	-0.413841	-1.129549	0.758087
H	-1.218665	-1.614051	0.388828
H	0.373594	-1.766391	0.804336
N	-0.419458	1.288038	0.650679
O	-0.033161	2.312647	0.08038
O	-1.070757	1.27711	1.692832
H	2.669274	0.0	0.0
