15

C	-0.398608	0.003725	-1.478236
C	0.0	0.0	0.0
Br	-0.272045	1.823989	-2.228306
H	1.095338	0.0	0.0
H	-1.450601	-0.268357	-1.607467
N	0.459933	-0.864113	-2.242127
H	1.416931	-0.710561	-1.911621
H	0.212583	-1.823454	-2.029932
N	-0.388484	-1.215934	0.659521
H	0.403557	-1.845666	0.677406
H	-1.209463	-1.655188	0.264608
N	-0.65384	1.123181	0.732805
O	-1.889355	1.097414	0.743935
O	0.034598	1.975034	1.279343
H	2.809792	0.0	0.0
