15

C	-0.591902	-0.011869	-1.391624
C	0.0	0.0	0.0
Br	0.389015	-1.420255	-2.477821
H	1.089419	0.0	0.0
H	-0.359323	0.902426	-1.928425
N	-1.984022	-0.264248	-1.33893
H	-2.373408	-0.370141	-2.268386
H	-2.120542	-1.123075	-0.813812
N	-0.448602	-1.126428	0.778255
H	0.38271	-1.530827	1.198161
H	-1.026992	-0.783029	1.534091
N	-0.355201	1.288879	0.62158
O	-0.70469	1.30584	1.811928
O	-0.17669	2.309609	-0.052327
H	2.559862	0.0	0.0
