15

C	-0.49692	0.089529	-1.440426
C	0.0	0.0	0.0
Br	-0.01868	-1.585759	-2.361588
H	1.094572	0.0	0.0
H	0.079049	0.854488	-1.957032
N	-1.905084	0.336149	-1.665232
H	-2.067877	1.286855	-1.354058
H	-2.456055	-0.283169	-1.081585
N	-0.432481	-1.118873	0.783785
H	0.393328	-1.668414	0.998639
H	-1.070792	-1.707119	0.265983
N	-0.337876	1.27102	0.677201
O	-0.263934	1.316892	1.905389
O	-0.513738	2.278686	-0.037363
H	2.565093	0.0	0.0
