17

C	0.0	0.0	0.0
C	-0.543461	0.006897	-1.41532
F	1.405645	0.0	0.0
H	-1.639302	0.057517	-1.251427
C	-0.350166	1.27115	0.676786
N	-0.480462	2.258905	1.29748
C	-0.51373	-1.169264	0.80153
H	-0.126585	-1.119356	1.822558
H	-0.204166	-2.094249	0.316259
H	-1.611782	-1.082967	0.795574
N	-0.222701	-1.264114	-2.064471
H	-0.865618	-1.408762	-2.833399
H	0.718766	-1.223238	-2.439945
N	-0.09655	1.220686	-2.08831
H	0.894823	1.153128	-2.293164
H	-0.59908	1.325531	-2.961065
H	-3.292697	0.0	0.0
