17

C	0.0	0.0	0.0
C	-0.521678	-0.05395	-1.462009
F	1.390752	0.0	0.0
H	0.387181	-0.133076	-2.069704
C	-0.339495	1.28035	0.669529
N	-0.485628	2.239489	1.330706
C	-0.455027	-1.140775	0.888339
H	-0.18842	-2.087245	0.419495
H	-1.540517	-1.07592	0.998753
H	0.035915	-1.040821	1.860255
N	-1.171058	1.216623	-1.786107
H	-1.416476	1.189838	-2.771326
H	-2.055531	1.198052	-1.264089
N	-1.320941	-1.259464	-1.662778
H	-2.200285	-1.070421	-1.149237
H	-1.56532	-1.291152	-2.648253
H	-3.286848	0.0	0.0
