17

C	0.0	0.0	0.0
C	-0.346806	0.196728	-1.49274
F	1.407364	0.0	0.0
H	0.150205	-0.665153	-1.973873
C	-0.379593	1.17166	0.810187
N	-0.547553	2.099692	1.509045
C	-0.543286	-1.276758	0.586826
H	-0.143646	-1.429335	1.5925
H	-1.636196	-1.188085	0.622709
H	-0.256245	-2.121278	-0.046271
N	0.268753	1.462388	-1.908765
H	1.241642	1.327388	-2.152243
H	-0.252903	1.764795	-2.720084
N	-1.740907	0.208853	-1.839237
H	-2.415148	0.320121	-1.033223
H	-2.002355	-0.687968	-2.229072
H	-3.594702	0.0	0.0
