17

C	0.0	0.0	0.0
C	-0.567329	-0.070292	-1.41511
F	1.389754	0.0	0.0
H	-1.639132	-0.280597	-1.253203
C	-0.366703	1.281426	0.647034
N	-0.515662	2.318275	1.176949
C	-0.500365	-1.163478	0.825166
H	-0.058887	-1.12726	1.824803
H	-1.595006	-1.076761	0.872576
H	-0.209596	-2.085203	0.319264
N	0.072546	-1.17144	-2.106667
H	0.97032	-0.843195	-2.448846
H	-0.496491	-1.441432	-2.900224
N	-0.352948	1.205795	-2.119367
H	-0.774578	1.093922	-3.037591
H	-0.921423	1.907751	-1.650867
H	-3.289527	0.0	0.0
