17

C	0.0	0.0	0.0
C	-0.48867	-0.251765	-1.466355
F	1.388473	0.0	0.0
H	0.407156	-0.043465	-2.065463
C	-0.334537	1.394241	0.384049
N	-0.471581	2.513265	0.712821
C	-0.518327	-0.958229	1.04553
H	-0.213371	-1.968707	0.775891
H	-0.106901	-0.689375	2.022303
H	-1.611477	-0.874268	1.05737
N	-1.578549	0.575636	-1.94396
H	-1.316985	1.556273	-1.905028
H	-2.380727	0.440324	-1.287644
N	-0.815742	-1.667797	-1.608917
H	-1.707551	-1.78293	-1.12482
H	-1.04328	-1.784104	-2.592183
H	-3.419052	0.0	0.0
