17

C	0.0	0.0	0.0
C	-0.530403	0.018805	-1.419569
F	1.415845	0.0	0.0
H	-1.627653	0.064091	-1.267297
C	-0.346048	1.265754	0.686039
N	-0.472192	2.247475	1.317027
C	-0.513049	-1.176105	0.789898
H	-0.203438	-2.097188	0.297412
H	-0.128726	-1.134807	1.812297
H	-1.611387	-1.088061	0.781405
N	-0.195258	-1.2447	-2.07549
H	0.763139	-1.206795	-2.406767
H	-0.803439	-1.368122	-2.875869
N	-0.079795	1.240839	-2.075442
H	-0.568613	1.350372	-2.955377
H	0.915021	1.179334	-2.264687
H	-3.284576	0.0	0.0
