17

C	0.0	0.0	0.0
C	-0.381914	-0.004024	-1.509113
F	1.405626	0.0	0.0
H	0.431878	-0.599295	-1.951717
C	-0.3762	1.257023	0.67149
N	-0.5545	2.279696	1.220712
C	-0.496535	-1.204228	0.763013
H	-0.033377	-1.223527	1.754182
H	-1.58569	-1.133783	0.844429
H	-0.234438	-2.10872	0.211477
N	-0.287071	1.321082	-2.136606
H	-1.023799	1.904322	-1.748682
H	0.605279	1.748641	-1.899999
N	-1.637453	-0.654547	-1.724342
H	-1.941032	-0.45031	-2.669621
H	-2.395012	-0.333481	-1.061639
H	-3.518697	0.0	0.0
