18

C	0.0	0.0	0.0
C	-0.6165	0.013665	-1.40232
Br	1.959812	0.0	0.0
H	-1.730792	0.038777	-1.118756
C	-0.462843	1.214176	0.796316
H	-1.556957	1.185857	0.746334
H	-0.070809	2.146933	0.389837
H	-0.117704	1.11168	1.828163
C	-0.46602	-1.281949	0.683142
H	-1.561163	-1.227675	0.663242
H	-0.09596	-1.298243	1.711133
H	-0.096146	-2.170535	0.166592
C	-0.237168	-1.143764	-2.197007
N	0.041368	-2.092917	-2.831994
N	-0.246655	1.249689	-2.165297
O	-0.907083	2.261011	-1.935563
O	0.699218	1.189631	-2.952654
F	-2.920307	0.0	0.0
