18

C	0.0	0.0	0.0
C	-0.619904	0.014263	-1.401434
Br	1.959886	0.0	0.0
H	-1.733816	0.039737	-1.1144
C	-0.463342	1.213516	0.797472
H	-0.071663	2.146698	0.391919
H	-1.557504	1.184264	0.747022
H	-0.118402	1.110115	1.82928
C	-0.46657	-1.282051	0.683098
H	-0.097254	-2.170698	0.166423
H	-1.561744	-1.226705	0.663179
H	-0.096432	-1.298574	1.711036
C	-0.246731	-1.144519	-2.196439
N	0.02805	-2.093448	-2.833575
N	-0.253794	1.249599	-2.16577
O	-0.913615	2.260658	-1.932931
O	0.688636	1.190028	-2.957556
F	-2.922871	0.0	0.0
