18

C	0.0	0.0	0.0
C	-0.391326	0.05767	-1.490159
Br	1.964145	0.0	0.0
H	0.034528	0.976941	-1.90032
C	-0.479085	1.282866	0.660747
H	-1.574077	1.206565	0.635528
H	-0.113263	1.326056	1.689672
H	-0.118905	2.165423	0.123805
C	-0.476857	-1.229076	0.751904
H	-0.095334	-2.148604	0.311571
H	-0.138805	-1.16135	1.78987
H	-1.570486	-1.174308	0.695966
C	-1.815364	0.004119	-1.902694
N	-2.558599	0.010988	-2.824283
N	0.299885	-1.019914	-2.306344
O	0.02514	-2.189944	-2.062549
O	1.0829	-0.639682	-3.17445
F	-2.828547	0.0	0.0
