18

C	0.0	0.0	0.0
C	-0.464787	-0.206083	-1.45711
Br	1.964052	0.0	0.0
H	-0.198914	0.69034	-2.023648
C	-0.459448	1.374048	0.46196
H	-1.554275	1.319551	0.459331
H	-0.082502	1.569626	1.469332
H	-0.093572	2.158097	-0.207039
C	-0.445225	-1.093811	0.95945
H	-1.539129	-1.0576	0.945781
H	-0.063661	-0.86624	1.958192
H	-0.075766	-2.070299	0.649725
C	-1.888277	-0.536183	-1.750264
N	-2.60185	-0.929785	-2.6121
N	0.328521	-1.296953	-2.15485
O	0.242584	-2.438078	-1.716221
O	0.994844	-0.957511	-3.130252
F	-2.816119	0.0	0.0
