15
Coordinates from ORCA-job run
  C   -0.72465836023141     -0.46654302786306      0.05677182253723
  C   0.59691196829972      0.30832228879919      0.21968251302112
  Br  -0.48395090930215     -2.00908310418044     -1.06852564974885
  H   0.35575278048917      1.26328968258419      0.69249925570685
  C   -1.20713199875048     -0.88173986641394      1.36424435959133
  N   -1.63161523631848     -1.21443470837155      2.40940947181597
  N   -1.82139678869771      0.48563953963857     -0.51637768710743
  O   -2.42037346950355      0.15974396739157     -1.51986175271090
  O   -1.97373568980302      1.48609884237428      0.16827616043017
  N   1.09045042697723      0.68761973957760     -1.19142915103770
  O   0.30117208136704      1.32327687216457     -1.88200208420965
  O   2.22334316635990      0.34199597606866     -1.50040955049961
  N   1.52021373790669     -0.42399978202239      0.98546623615894
  H   2.28318093013603      0.15536636745066      1.30614060880772
  H   1.89183736107102     -1.21555278719790      0.47611544724484
