15
Coordinates from ORCA-job run
  C   -0.74917871420659     -0.45001399414441      0.48886760640218
  C   0.74932663662170     -0.07087108785528      0.35372461853027
  Br  -0.87314178317037     -2.09994650255848      1.47458244421206
  H   1.19357037604592     -0.17809803127908      1.34352787371981
  C   -1.61080572732049      0.53784376935599      1.11733295439221
  N   -2.37194476532496      1.28275775830836      1.61720776337425
  N   -1.28469015038065     -0.63623711791084     -0.95276209662456
  O   -1.77776187865698     -1.69376051450384     -1.28780269444464
  O   -1.12831147902605      0.37380544462071     -1.63084236491625
  N   0.90213448302982      1.43543211242237      0.05960375773638
  O   1.37577446701229      1.75657354954800     -1.02221236982451
  O   0.57489854496980      2.18324834355130      0.97418699043825
  N   1.37804331965780     -0.90379806283949     -0.59530070861052
  H   1.25597638628746     -0.54008996136409     -1.53344797129769
  H   2.36611028446130     -0.99884570535125     -0.40866580308725
