15
Coordinates from ORCA-job run
  C   -0.85231413003624     -0.14741528661396      0.27904566884250
  C   0.66968263542298     -0.29652113354601      0.12308436500522
  Br  -1.47526032875118     -0.66344376376974      2.03144307296711
  H   0.93394354581510     -1.33494154085914      0.31664675541053
  C   -1.31129664584031      1.19276352023166     -0.03827335600258
  N   -1.67012245067526      2.28745057621765     -0.27616749566254
  N   -1.45788388607837     -1.14227418723101     -0.74287933615730
  O   -2.29845485820521     -0.70123919648529     -1.50873863738883
  O   -1.03385697820259     -2.28343871563145     -0.67187096099863
  N   1.35281348959698      0.51127007760995      1.22147179256845
  O   1.81574565530709     -0.11358161361488      2.17019406616975
  O   1.39754825542860      1.72696509955079      1.04652156731665
  N   1.01805101492415      0.10377539196398     -1.18829119718376
  H   1.92266920141588     -0.25102848878603     -1.46709239088626
  H   0.98973547987837      1.11165926096348     -1.29409391400031
