15
Coordinates from ORCA-job run
  C   -0.62016398199345     -0.40114054695853      0.43225934363562
  C   0.79875996652476     -0.10002689720263     -0.10980249540640
  Br  -0.58025808735706     -1.49036931015885      2.03058279856700
  H   1.30032957450763     -1.04870309414954     -0.28633451003647
  C   -1.40224292606395      0.80043061363669      0.65777710612895
  N   -2.01821838662032      1.79118772409116      0.80961616457707
  N   -1.34105115467995     -1.24126701130388     -0.64969017367713
  O   -2.54828597728771     -1.08926076370636     -0.74642744395385
  O   -0.63609961837170     -2.01064990192293     -1.28794135337084
  N   1.57343028034707      0.59370784890128      0.98114852238091
  O   2.44935829223056     -0.05150570600529      1.54591413432149
  O   1.26152578754968      1.76186952254108      1.19487143229345
  N   0.83557718431972      0.71816576003193     -1.26682303639240
  H   0.28525499380918      1.56299001513636     -1.18901291285639
  H   0.64108405308553      0.20657174706950     -2.11413757621101
