15
Coordinates from ORCA-job run
  C   -0.82106334788452     -0.40844847334698      0.31920730887344
  C   0.68766754469008     -0.10634998128324      0.43588833478193
  Br  -1.17206669880456     -2.24579922294693      0.82555273094947
  H   0.90460268123168      0.00842962818047      1.50224269262388
  C   -1.60688885383798      0.45410523079738      1.18707968948943
  N   -2.18836886346825      1.12384664526448      1.95892625813955
  N   -1.31477698831464     -0.25315815103998     -1.12536192065902
  O   -0.48552806031040     -0.47846463896350     -1.99705042474509
  O   -2.48997182319460      0.02973104586819     -1.27534511431143
  N   0.91965411486816      1.32060400564126     -0.12864214370427
  O   2.09534982164429      1.65127341902264     -0.20879971750001
  O   -0.05507689669541      2.00467262790753     -0.42594146411388
  N   1.54824064193441     -1.07282144575193     -0.11444008519593
  H   1.47356666934316     -1.11779263997780     -1.12069690724021
  H   2.50366005879858     -0.91082804937160      0.16938076261212
