15
Coordinates from ORCA-job run
  C   -0.67656745199813     -0.53592304929229      0.01179573692516
  C   0.53716231742973      0.38027832718947      0.25823957898129
  Br  -0.16683259740895     -2.09891653948647     -0.98830282108041
  H   0.15377119966070      1.32787074251088      0.64397942900325
  C   -1.25106845913841     -0.93326743947140      1.28726591875925
  N   -1.75183466900590     -1.25419578839674      2.30184562785485
  N   -1.79661906459202      0.26567406225426     -0.72349130840798
  O   -2.25875000473780     -0.17631781267708     -1.75462064287986
  O   -2.11359681735285      1.28157918692196     -0.12327854756521
  N   1.13856326466972      0.73500001634398     -1.11656545228387
  O   0.36720504388507      1.24205595128008     -1.92389018643867
  O   2.32787056364206      0.49968347982842     -1.28572948206751
  N   1.44114252248037     -0.21084417582588      1.15781364720916
  H   2.10376484781901      0.46137079099935      1.51788493192367
  H   1.94278930464740     -0.98304775217854      0.73805357006688
