15
Coordinates from ORCA-job run
  C   -0.70056895421932     -0.50521340120328      0.01826441731173
  C   0.56296958247654      0.34518682392999      0.25129765485696
  Br  -0.29974715626091     -2.05587319849949     -1.04811308081077
  H   0.23769705294177      1.29550533250922      0.68124310363534
  C   -1.24917941999320     -0.91707781254627      1.30066183768696
  N   -1.72689803490479     -1.24892936201568      2.32277774544689
  N   -1.80492179885000      0.37151406384085     -0.65166330682005
  O   -2.05865908930954      1.37631320763873     -0.00432892489793
  O   -2.31504143050092     -0.00888390081732     -1.68470891251512
  N   1.13267237766002      0.72008307184003     -1.13177117682679
  O   0.36014155031791      1.29509442122968     -1.89085229890940
  O   2.30168748830204      0.43270658224609     -1.35314551851410
  N   1.46838885145942     -0.31755029009553      1.09762565535691
  H   2.17253612889763      0.31095058858754      1.45754021862985
  H   1.91892285198318     -1.09682612664457      0.63517258636955
