15
Coordinates from ORCA-job run
  C   -0.55768338726406     -0.47154990488225      0.44911130290775
  C   0.79563696809437     -0.02535457107527     -0.15714333293179
  Br  -0.33034757491780     -1.61851836298626      1.99010283685209
  H   1.36546108913097     -0.91865765914432     -0.40224636813820
  C   -1.42424102314271      0.64615190825060      0.77449375995635
  N   -2.11311843365885      1.57067676044150      1.00854535400188
  N   -1.26302602238589     -1.32472632717666     -0.63229142961859
  O   -0.53341906740051     -2.03338117393151     -1.31167679215531
  O   -2.47952347061206     -1.24181407133417     -0.69122641856328
  N   1.57114528171213      0.69204204037735      0.91761775214684
  O   2.53104217608573      0.10535779291678      1.40460371650769
  O   1.17347858766451      1.81920881654009      1.19844859733601
  N   0.69200069404934      0.83587053077786     -1.27828804236150
  H   0.49724318725801      0.34205238353497     -2.13598486100662
  H   0.07435099538683      1.62364183769133     -1.13506607493331
