15
Coordinates from ORCA-job run
  C   -0.66077559603300     -0.48205312915515     -0.01940592807047
  C   0.62557751064870      0.38528710120461      0.18267636570665
  Br  -0.34698286313159     -1.95079903258394     -1.21573953254012
  H   0.30148186971611      1.29232624507054      0.69769217254255
  C   -1.06257872962306     -0.98769063481632      1.28270537535975
  N   -1.33315989831730     -1.38776457015907      2.35547689339744
  N   -1.81759218967379      0.42804695804790     -0.52256554328807
  O   -2.32256484077512      0.20235551460483     -1.60335243110797
  O   -2.08928779218632      1.31681416302732      0.27265535236778
  N   1.06636404743609      0.82695219872197     -1.19932991278258
  O   2.11014408191218      0.37109411535674     -1.64244741416097
  O   0.29232318650050      1.59224902330155     -1.76877618286681
  N   1.70225430210095     -0.21720556726246      0.86235204514390
  H   1.54096511362412     -0.29143617722562      1.85645944033720
  H   1.99283179780154     -1.09817620813289      0.46159929996173
