15
Coordinates from ORCA-job run
  C   -0.72281536319159     -0.41761876287785      0.38270983706066
  C   0.79076248880222     -0.01459857383026      0.37253734016948
  Br  -0.86480993121457     -2.23977643071358      1.01144964445004
  H   1.11455939305589     -0.01278358457555      1.41396407814934
  C   -1.48800355513005      0.45461533149114      1.25460539371888
  N   -2.05401764112490      1.15707055964316      2.01017105476076
  N   -1.30198142314816     -0.34589810807587     -1.04206007388718
  O   -0.83398333101676     -1.13615989402814     -1.84765613682240
  O   -2.14795117403239      0.51171885932637     -1.24477260911372
  N   0.82592641743116      1.43266097348181     -0.07032726660635
  O   1.04482454940931      2.28078392878712      0.78691883772752
  O   0.62997528189716      1.62003170798326     -1.26778789591910
  N   1.69205983702809     -0.74709935177956     -0.43120060550285
  H   1.99242513080253     -1.59666919339917      0.02363987947143
  H   1.32302932043207     -0.94627746143289     -1.35119147765654
