15
Coordinates from ORCA-job run
  C   -0.74872004183025     -0.42968411139238     -0.00521619605752
  C   0.60549576832080      0.25407595169311      0.26215759937075
  Br  -0.55512396809066     -1.87098365292821     -1.26572753386657
  H   0.40021992204395      1.17300119039071      0.81637273718667
  C   -1.29059779976839     -0.93819800129540      1.24470783218613
  N   -1.76351966912155     -1.34238574604640      2.24276916312131
  N   -1.77812642228390      0.62948385588941     -0.51203096923918
  O   -1.89784642665727      1.56920413416639      0.25972994546485
  O   -2.36564206373765      0.43019076715833     -1.55470499424847
  N   1.15949258130029      0.73433179824994     -1.09479493631309
  O   0.42436877436168      1.47172996151710     -1.74256981508199
  O   2.28197650849705      0.35856946439220     -1.40641432096337
  N   1.46664125061906     -0.59476092081918      0.97858671214542
  H   1.81107746988572     -1.35554171891793      0.40700380753494
  H   2.24930411646112     -0.09003297205770      1.37013096876011
