15
Coordinates from ORCA-job run
  C   -0.77033942972314     -0.38845310778581      0.03655911223081
  C   0.62177687868840      0.24108053422619      0.23498713781764
  Br  -0.67138833644072     -1.93119506565112     -1.10976094017396
  H   0.47291868962025      1.20968134440983      0.71799010096808
  C   -1.31875271578374     -0.76987348053634      1.32821735857181
  N   -1.79589816289178     -1.07067747823134      2.36019432997603
  N   -1.75027801802446      0.68175265923437     -0.53967136523805
  O   -2.36149676101084      0.43530405148926     -1.55833392152521
  O   -1.80992443627857      1.68267789757170      0.15861029387018
  N   1.17931282209728      0.58521396859782     -1.16127396960119
  O   2.27564854183443      0.12691719702834     -1.45528047557667
  O   0.47433307497614      1.30926834111335     -1.85589556403302
  N   1.44825680589087     -0.59487620596088      1.00554187928768
  H   2.26201315183280     -0.10340451448213      1.34762432816942
  H   1.74481789521309     -1.41341614102323      0.48949169525644
