15
Coordinates from ORCA-job run
  C   -0.78365023633150     -0.45046104757009      0.39062017013834
  C   0.73064356567392     -0.13420448066167      0.42027630092089
  Br  -1.10031607703223     -2.26356329807855      0.95949351746647
  H   1.03614472844490     -0.08823773937580      1.46720293864020
  C   -1.53052270195535      0.45162210106587      1.25176229377444
  N   -2.11444400873849      1.15018738568360      1.99645167813260
  N   -1.29355867789995     -0.28237197461652     -1.06163900123274
  O   -2.01017569229565      0.68478995213546     -1.27341614027742
  O   -0.89508113206935     -1.10624408545333     -1.86928178265627
  N   0.84679207720181      1.33112319179563     -0.06475994358644
  O   0.94350843165781      1.49124171067733     -1.27838376788454
  O   0.84368627272156      2.20271161348806      0.79838722171731
  N   1.51478887071292     -1.04335173578986     -0.30441856688899
  H   1.31231434878685     -1.03939735195191     -1.29460230218295
  H   2.50087023112276     -0.90084424134823     -0.13769261608091
