15
Coordinates from ORCA-job run
  C   -0.78385380234248     -0.41662877598478      0.05852233511541
  C   0.58507844988495      0.27544831517544      0.23443106778443
  Br  -0.71686090544581     -2.10459744311797     -0.89039271866474
  H   0.40356108552860      1.20731106373561      0.77553232270203
  C   -1.32543079366612     -0.65218988884508      1.38897150275049
  N   -1.75464277224390     -0.81054370796111      2.47223918993963
  N   -1.78236404859101      0.47253666818071     -0.70384578036298
  O   -1.30150997199206      1.21446356438465     -1.54872946568766
  O   -2.96109221604605      0.33019378221899     -0.42016429420604
  N   1.22213920658429      0.73046109745642     -1.07523112006896
  O   1.45801241538814      1.92868447909632     -1.17737937468410
  O   1.53851901570892     -0.15157365217178     -1.86576100483471
  N   1.43591113700125     -0.58172877976846      0.97815684746434
  H   1.75606924335619     -1.35947291887438      0.41349922433789
  H   2.22646395687507     -0.08136380352458      1.36215126841497
