15
Coordinates from ORCA-job run
  C   -0.80012482599590     -0.37935456208983      0.39727337322559
  C   0.72380401894379     -0.13647134187458      0.36552112219592
  Br  -1.17143438894594     -2.20891210265562      0.91793135169378
  H   1.04904463897876     -0.03466286525781      1.40531571489769
  C   -1.46330518446698      0.50023985126215      1.34686864724988
  N   -1.95575739447719      1.17140186416757      2.17726597348564
  N   -1.42510268197095     -0.18571187834310     -0.99020809901378
  O   -2.59587175509411      0.14861768351515     -1.02352401989725
  O   -0.69378655446403     -0.43354833309912     -1.94017130761260
  N   0.95283575952601      1.28459491933825     -0.21842710368874
  O   -0.01799696573207      2.01509619170158     -0.39211128140610
  O   2.12439101781107      1.56329377140600     -0.43680400775220
  N   1.48822985327077     -1.13185894430503     -0.26769243900614
  H   1.31250121589128     -1.16971166242868     -1.26157467110587
  H   2.47257324672548     -1.00501259133691     -0.08166325326581
