15
Coordinates from ORCA-job run
  C   -0.70808425924101     -0.49003123067645      0.06343043419499
  C   0.59235855657433      0.32227568461593      0.21357398754085
  Br  -0.44351851692303     -2.00767813880130     -1.08928424218656
  H   0.33051793337377      1.26212456143376      0.70508173957650
  C   -1.15400016745965     -0.93735784154456      1.37330765819583
  N   -1.55297919158247     -1.29305375505534      2.42086530082405
  N   -1.84347083737480      0.43735963155081     -0.47468702611099
  O   -2.01493443927888      1.42096093747628      0.22946661011896
  O   -2.44981499953586      0.10979694174320     -1.47336092332941
  N   1.04567135692132      0.73756653134030     -1.20127322125171
  O   0.22885735495963      1.37199820069141     -1.86049728690308
  O   2.17709665634070      0.41942517994266     -1.54337738154618
  N   1.55222754041015     -0.39292286578608      0.94930037247091
  H   2.30268134831040      0.20369009528730      1.26750792675611
  H   1.93739166450543     -1.16515393221792      0.42094605164974
