15
Coordinates from ORCA-job run
  C   -0.79912779931873     -0.38499176698758      0.07455477933807
  C   0.60398790551700      0.24229453751333      0.21846450983459
  Br  -0.84349896205498     -2.04720321905471     -0.92021113915394
  H   0.48355307845340      1.16396523186936      0.79282075628818
  C   -1.30207386348407     -0.63514446926554      1.41757029064963
  N   -1.69351765978939     -0.80372945338226      2.51345818045609
  N   -1.78529493614244      0.56949702675911     -0.62222540841839
  O   -2.96300993261450      0.43709906003851     -0.33087879228599
  O   -1.29787059570280      1.34955645723657     -1.42863682663493
  N   1.21309486879623      0.71001269107329     -1.09948980589002
  O   1.43874347932831     -0.15573368812105     -1.93801886372895
  O   1.52483364376878      1.89347804014972     -1.16305501057616
  N   1.44329468251088     -0.67270666928684      0.90460055401206
  H   1.70739213389024     -1.44715253122215      0.30726907459490
  H   2.26849395684207     -0.21824124731977      1.27277770151484
