15
Coordinates from ORCA-job run
  C   -0.68060589055158     -0.44726617760096     -0.07692259807071
  C   0.63851972685698      0.33525518092469      0.23148178608465
  Br  -0.40620907614975     -1.80953928361394     -1.40244361475225
  H   0.34385096671525      1.20015630681699      0.82988452823867
  C   -1.13598554722475     -1.05429274784166      1.16283595568345
  N   -1.45299200960428     -1.53848566355349      2.18702546980857
  N   -1.78253202538543      0.56015963843130     -0.51254668945923
  O   -2.26845420554347      0.46499251799918     -1.62115069350378
  O   -2.03593396144692      1.37849174156888      0.36054640218369
  N   1.12690262821843      0.89109526844160     -1.09164118161521
  O   2.15480485982634      0.42859618722546     -1.56420265496153
  O   0.40404468232524      1.74992591301368     -1.59067921888816
  N   1.67335348810556     -0.38082008555995      0.86455214654702
  H   1.48725648563339     -0.54784689744355      1.84296602440187
  H   1.93297987822499     -1.22942189880823      0.38129433830296
