15
Coordinates from ORCA-job run
  C   -0.74464650522604     -0.45406149818661      0.48971249714794
  C   0.75406343394760     -0.08142709511031      0.34160320052653
  Br  -0.86521115581845     -2.12224122103078      1.44464867029032
  H   1.21017578073854     -0.20993577224216      1.32349837122157
  C   -1.59289989320870      0.52579808499341      1.14836664279171
  N   -2.34447724230057      1.26105216566079      1.67627069051887
  N   -1.30226010979556     -0.60942748589284     -0.94750734658282
  O   -1.82816285269718     -1.64937946095224     -1.28758532347564
  O   -1.13209971328570      0.40529468676499     -1.61509858413596
  N   0.91366953737546      1.42937398371720      0.07396221283215
  O   0.59601961396011      2.16258689753529      1.00358800009772
  O   1.38316384516467      1.76743426667382     -1.00444286734189
  N   1.36524581512731     -0.90038085183490     -0.63058452502277
  H   1.23475443390622     -0.51722578084205     -1.55979027907662
  H   2.35466501211229     -1.00646091925360     -0.45764135979110
