15
Coordinates from ORCA-job run
  C   -0.75620312538362     -0.40958542012964      0.07519122668932
  C   0.62336097888437      0.26384070123441      0.20692211832272
  Br  -0.65871442524322     -1.96553787145496     -1.05374483550221
  H   0.46586246630602      1.23478042335719      0.68238518592750
  C   -1.23984588846106     -0.78970605019739      1.39278002719040
  N   -1.66529640165205     -1.09533638461700      2.44565063821417
  N   -1.78871198984918      0.62363047871707     -0.47585184427804
  O   -1.86217303328627      1.62482434257305      0.22048420523027
  O   -2.41619358631025      0.35469483961240     -1.47900115756262
  N   1.11012546695545      0.60178295802923     -1.21670753721049
  O   0.37058975456967      1.32449370683397     -1.87648031978169
  O   2.18759214887233      0.13837916556929     -1.56652891546944
  N   1.50583519642461     -0.53586864412266      0.95337941489138
  H   2.31730259423775     -0.01539959151801      1.25563359586441
  H   1.80546984393545     -1.35299265388696      0.43688819747432
