15
Coordinates from ORCA-job run
  C   -0.68158226692690     -0.43051805189848      0.44051722885999
  C   0.80881254411222      0.04045809035193      0.33248096761716
  Br  -0.70485494893756     -2.22517829679524      1.15603310706400
  H   1.18297465340588      0.11219439749497      1.35440833643408
  C   -1.44701150986434      0.44416025051197      1.30985385828909
  N   -2.02295840121325      1.13746619431001      2.06634181744761
  N   -1.32759200038532     -0.44827069534299     -0.95677345856779
  O   -2.20313216405886      0.37890942696278     -1.16178163631095
  O   -0.87458903649038     -1.26519429683309     -1.74392897538518
  N   0.75151549673641      1.46243053820739     -0.18467186048320
  O   0.52640956828040      1.57664109832833     -1.38593025149438
  O   0.92941065470401      2.36449492675796      0.62591322466340
  N   1.70323919359842     -0.69210121330965     -0.47882605443266
  H   2.05568668656288     -1.50886961940746     -0.00156942726569
  H   1.30367153047639     -0.94662274933842     -1.37206687643548
