15
Coordinates from ORCA-job run
  C   -0.84914699795640     -0.11496127776382      0.30815863137026
  C   0.67391756881964     -0.26336017007513      0.16162368352243
  Br  -1.45095739012105     -0.35845982459539      2.12547442099704
  H   0.95637443310697     -1.25472976309374      0.51231810450871
  C   -1.33213232293661      1.15149955547075     -0.21180087581941
  N   -1.68834321234285      2.19134464314697     -0.63066940948718
  N   -1.44627805393883     -1.26693241114253     -0.53886299323322
  O   -1.00115655407338     -2.37590526782022     -0.29561023316620
  O   -2.30270172074957     -0.96511406798953     -1.35310825137177
  N   1.35200914452875      0.71614844835841      1.11401518115845
  O   1.37801743385212      1.88974023489668      0.75018523607115
  O   1.82901744276970      0.25417363348013      2.14542357787095
  N   1.00577262650045     -0.06823607562152     -1.19962461200387
  H   1.91627651130685     -0.44514525058901     -1.42621329221490
  H   0.95733109123422      0.90993759333794     -1.46130916820242
