15
Coordinates from ORCA-job run
  C   -0.81346325946906     -0.25324680893931      0.31666690794533
  C   0.69929412902314     -0.24601551608383      0.04411395316776
  Br  -1.25695826798095     -1.00442432494297      2.03833023826179
  H   1.06344561041578     -1.27047541158408      0.10294552476353
  C   -1.40480879301877      1.06589207076017      0.18274645390003
  N   -1.86951078657696      2.14279503573473      0.09309940807740
  N   -1.41037070666897     -1.18526837676841     -0.76710330656343
  O   -2.34161825497908     -0.74482704169272     -1.42013964301271
  O   -0.88862688883594     -2.28422446160609     -0.85274343063387
  N   1.39477393999065      0.50037946671995      1.17821709842534
  O   1.97829312409971     -0.17685592339049      2.01819082716926
  O   1.32634217198143      1.72675166053120      1.13691751597951
  N   0.91222697127279      0.32044244590586     -1.23445382887013
  H   0.79122047122656      1.32698282404309     -1.22510558851465
  H   1.81976053951967      0.08209436131289     -1.61068213009515
