14
Coordinates from ORCA-job run
  C   0.77724894373870      0.36340204747543     -0.33434944264685
  C   -0.33987904756256     -0.19335387770346      0.23815462015550
  C   0.55966168443068      1.33589696119578     -1.37369171396207
  N   0.42367577657489      2.12491539773525     -2.23600414074238
  N   2.08916831276767      0.19887155963735      0.00214262862633
  H   2.29730572178475     -0.58570887117030      0.60012335995785
  H   2.77383597886565      0.46796176397393     -0.68467148752642
  C   -1.75090372011247      0.11513848384083     -0.14533088264513
  H   -1.78544481550801      0.87915916564405     -0.92102393122398
  H   -2.25285616017360     -0.78312633247724     -0.51061914625941
  H   -2.31236783070925      0.46765826012239      0.72235260863666
  N   -0.19399366201373     -1.19460497660380      1.26924236613623
  O   -1.22889275379333     -1.67847993998639      1.73124130033919
  O   0.94444157171060     -1.51972964168384      1.64243386115448
