14
Coordinates from ORCA-job run
  C   0.77202806077187      0.42647054102823     -0.26604716682418
  C   -0.34381785774085     -0.21464261828004      0.21327636560529
  C   0.57311113368140      1.36361637318891     -1.34115215508185
  N   0.45033914532544      2.12611814804837     -2.22898165246350
  N   2.05686025650249      0.37292441451437      0.19030799704849
  H   2.27017738201738     -0.38207556155851      0.82393148834446
  H   2.77806031928750      0.68338896590792     -0.43949908889629
  C   -1.73428595659462     -0.02619614882088     -0.30097947098319
  H   -1.76045195611380      0.73750042848388     -1.07736802586344
  H   -2.12204275690213     -0.96140713065192     -0.71015038718402
  H   -2.40267423671991      0.27340380899424      0.50866825244384
  N   -0.20988541676296     -1.19980902162878      1.26091910599572
  O   0.90852094753090     -1.41198393990669      1.75611488078448
  O   -1.23493906428272     -1.78730825931911      1.61195985707418
