14
Coordinates from ORCA-job run
  C   0.77528364603313      0.32426618819661     -0.37655918300279
  C   -0.33908176200997     -0.23494883712248      0.19903978746381
  C   0.55380669071035      1.32714549496092     -1.38572271910491
  N   0.41396593147245      2.16069842350871     -2.20444278537332
  N   2.08895526874625      0.00710248285399     -0.19255397972556
  H   2.30053384960724     -0.57161628153852      0.60564581618750
  H   2.76980451370716      0.68902635064025     -0.48279013670932
  C   -1.75206581619696      0.12304473466154     -0.12956208265328
  H   -1.79081192554990      0.85481237283734     -0.93558676162612
  H   -2.25683762960114      0.53351857810611      0.74736739734335
  H   -2.30750364101368     -0.76651274957691     -0.43380723030647
  N   -0.18787442584005     -1.21712527249623      1.24686224905610
  O   -1.22000719338388     -1.63944794721085      1.77198251666356
  O   0.95083249331901     -1.58996353782048      1.57112711178746
