14
Coordinates from ORCA-job run
  C   0.75579282458720      0.47912113481623     -0.21999640502188
  C   -0.31789618258445     -0.30102029251554      0.13259787464479
  C   0.55455086983997      1.41555078656415     -1.29524108295082
  N   0.42620196141515      2.20314292204157     -2.16006279256822
  N   2.03829006158666      0.43793454828809      0.24408066776667
  H   2.60740993835083      1.25253688273023      0.08329021052177
  H   2.18445319019373     -0.08428595822534      1.09454803606438
  C   -1.67146342342468     -0.24304481561315     -0.49762589702444
  H   -1.68855899632230      0.47079745153084     -1.32069260609057
  H   -2.42428551694156      0.04656446230266      0.23836116242126
  H   -1.95440107574640     -1.22635312480216     -0.87873641801414
  N   -0.19756047240569     -1.23199478504821      1.23043021336545
  O   -1.21093747992797     -1.85727643520860      1.54855946710281
  O   0.89840430137953     -1.36267277686076      1.79848756978295
