14
Coordinates from ORCA-job run
  C   0.70523221468884      0.55414433367480     -0.06873729801813
  C   -0.39191856476778     -0.17404772321766      0.27282412523029
  C   1.56053564502302      1.22630116421807      0.86832736577369
  N   2.37322694262589      1.80809964159046      1.48994740174658
  N   1.06245645569639      0.76105459580547     -1.39091274326489
  H   0.79393188812265      0.04177175322570     -2.04334974386957
  H   1.99926879234584      1.10369732210256     -1.53331524958930
  C   -1.25410318676352     -0.85845519304319     -0.73470912448406
  H   -1.38106393439035     -0.22045149221944     -1.61341058869289
  H   -2.23492374553606     -1.06591567092144     -0.31126927129355
  H   -0.82731971664543     -1.81588473559676     -1.05154282084481
  N   -0.71243884682406     -0.38963624983977      1.67615486124787
  O   -1.42130303329550     -1.36698955042626      1.92632070552443
  O   -0.27158091027994      0.39531180464748      2.51467238053433
