14
Coordinates from ORCA-job run
  C   0.75216173718220      0.47722928130402     -0.23419184330386
  C   -0.33530020490270     -0.24378558326743      0.19389693561376
  C   0.52348977596151      1.44573012696268     -1.27467551349214
  N   0.37872050007391      2.23569682443803     -2.13476970913984
  N   2.02857380866192      0.47398226388265      0.24647685471665
  H   2.27104662966818     -0.28686385967282      0.86239275639398
  H   2.74535657333961      0.85084493273841     -0.35101668798492
  C   -1.72526204600472     -0.10746762763595     -0.33845420631987
  H   -2.42011018331055      0.11827145843949      0.47308995599427
  H   -1.78139170575710      0.68693399608253     -1.08171653525145
  H   -2.05452331357372     -1.04346655803305     -0.79432089359104
  N   -0.16837670778696     -1.25919835042390      1.20658381668390
  O   0.94906134647247     -1.42676529140037      1.72061859649008
  O   -1.16444621002401     -1.92014161341429      1.50708647319050
