14
Coordinates from ORCA-job run
  C   0.76364514921768      0.44479045255168     -0.24483311516067
  C   -0.33225992965932     -0.26287003497312      0.17851160878703
  C   0.57157375756990      1.31608666917047     -1.37632735016097
  N   0.45533509488385      2.04038786173080     -2.29718793779513
  N   2.06489646919466      0.36146779513575      0.16985862685156
  H   2.63947917051099      1.16326730029363     -0.03369290655161
  H   2.19826297134632     -0.06438358880028      1.07674006871129
  C   -1.68853101353303     -0.18811022254793     -0.43380961921591
  H   -2.44211348888669      0.02166762783868      0.32509519916669
  H   -1.97287474623883     -1.13171630100946     -0.91398275646981
  H   -1.74057420318566      0.60832927007454     -1.18008309199489
  N   -0.20182726489221     -1.18632242599224      1.28229600068748
  O   0.87802541316895     -1.25293403665614      1.88881805453018
  O   -1.19203737949662     -1.86966036681638      1.55859721861478
