14
Coordinates from ORCA-job run
  C   0.62244878583963      0.63894621496606     -0.11703095931301
  C   -0.35417642075419     -0.21396964839878      0.29518211327260
  C   1.40989006338721      1.46094118332435      0.75784912296001
  N   2.15538762969454      2.17725526037404      1.32033419032815
  N   0.89926657810492      0.83718935932453     -1.46103503582784
  H   0.72021908288727      0.05327983229313     -2.06902150011458
  H   1.77680540587398      1.29519060153188     -1.65106745835299
  C   -1.15782920924283     -1.04093588638015     -0.65117319809741
  H   -0.63482022594500     -1.95967077064588     -0.93770288951479
  H   -1.38192139786914     -0.46573271208665     -1.55324791013167
  H   -2.09682816652071     -1.33610236793930     -0.18676639744089
  N   -0.58718212217797     -0.41937008228090      1.71707755340037
  O   -1.16120216021636     -1.46610457227589      2.02579526335789
  O   -0.20905784306133      0.43908358819353      2.51280710547415
