14
Coordinates from ORCA-job run
  C   0.65571782075349      0.60434619991769     -0.00435197240545
  C   -0.35183458053609     -0.27243015909079      0.26006885369505
  C   1.30155783315479      1.43849113256547      0.96966951878375
  N   1.92178375546019      2.20046531312382      1.61768500056721
  N   1.07189741562582      0.84822178559667     -1.30182433002642
  H   1.95757790915341      1.32095611338420     -1.38889632359302
  H   0.94815007383497      0.09334276159460     -1.95834292727958
  C   -1.04270770847053     -1.02215481711229     -0.82928569301910
  H   -1.32762169758782     -0.34315228014853     -1.63883496964079
  H   -0.39798612440104     -1.80450967472378     -1.24592505128294
  H   -1.94150347474131     -1.49572184724167     -0.44258812853854
  N   -0.80925200242323     -0.46744570381637      1.63092387319279
  O   -1.88736455823177     -1.04388144083357      1.78430835885945
  O   -0.09941466159087     -0.05552738321542      2.54739379068761
