14
Coordinates from ORCA-job run
  C   0.74168629222440      0.50818104766214     -0.02075268042744
  C   -0.43620983166580     -0.12481915368313      0.23033026401376
  C   1.50213313974848      1.23375445708893      0.95739382758521
  N   2.25775169129142      1.84113342920317      1.62479723990594
  N   1.28706909487055      0.55822344313043     -1.29423290458070
  H   2.25483019854101      0.83718538714360     -1.33204535552944
  H   1.07246204333607     -0.21966638282090     -1.89831961449618
  C   -1.19761541200236     -0.86165936627155     -0.81982866359799
  H   -0.80892680155160     -1.87431309328719     -0.97201144306878
  H   -1.14816747336905     -0.31777367773708     -1.76682076487023
  H   -2.24214264378143     -0.95769299960734     -0.52957437568524
  N   -0.95390968558385     -0.18382411002179      1.58917688950082
  O   -0.57319133032037      0.65113544225963      2.40836439826858
  O   -1.75676928173748     -1.08986442305891      1.82352318298168
