14
Coordinates from ORCA-job run
  C   0.80445795955816      0.40035757932700     -0.04159499372545
  C   -0.31391992891329     -0.32311684594354      0.23577641654618
  C   1.83816935492190      0.69963962982267      0.90902054099366
  N   2.75639120173292      1.05559424798622      1.55355317184500
  N   1.07458100479895      0.86809382473893     -1.31814832654153
  H   0.27258556659580      1.06569716830164     -1.89591944689401
  H   1.78777049754578      1.57833281339365     -1.36922812874802
  C   -1.36140049276729     -0.61623566175020     -0.78499799194149
  H   -0.89312716664001     -0.82606928965116     -1.75031157001015
  H   -1.94369346518224     -1.48627659304255     -0.48738539012296
  H   -2.06158319300414      0.21747364637998     -0.90424756486584
  N   -0.57462211402241     -0.76244520184562      1.59874845522705
  O   0.36604906361355     -0.84976625940718      2.38653645928917
  O   -1.74965828823769     -1.02127905830983      1.86819836894839
