14
Coordinates from ORCA-job run
  C   0.76874810815758      0.46764402995262      0.00189081940727
  C   -0.35307227751588     -0.25840178110794      0.25744901480394
  C   1.49229742885992      1.22270233607716      0.98605396478659
  N   2.18977529252885      1.90480911127579      1.64441198402307
  N   1.36001301698199      0.48564276220778     -1.25202658578505
  H   0.73908127070724      0.35692113067719     -2.03553970329242
  H   2.03249044039425      1.22282923872643     -1.39387089951975
  C   -1.07000059582035     -1.04103269013408     -0.79060610909982
  H   -1.65309368923678     -1.83731201203643     -0.33127231844809
  H   -1.76614788162496     -0.41786426405445     -1.36212880995022
  H   -0.34996221188393     -1.49232829639694     -1.47839247608090
  N   -0.96162626432983     -0.21324530300132      1.57876035709017
  O   -2.15414670218537     -0.52195684379616      1.63484258507660
  O   -0.27335593503274      0.12259258161034      2.54142817698859
