14
Coordinates from ORCA-job run
  C   0.66710085258567      0.59813843625632     -0.07748684340448
  C   -0.40683528891933     -0.16793716810133      0.25510205535582
  C   1.37045286979704      1.45568281377746      0.83448357354735
  N   2.07364664564617      2.17933509900320      1.44020081408847
  N   1.14730032806360      0.65954738449574     -1.37649300589450
  H   1.00967754816778     -0.16614868008942     -1.93807693065993
  H   2.06927032218868      1.05579452185965     -1.47050917500472
  C   -1.10883413393400     -1.04626324209940     -0.72519428523893
  H   -2.11935764690132     -1.26042417572595     -0.38230496215928
  H   -0.59887517542861     -2.00728677321277     -0.85192710865743
  H   -1.16985917840957     -0.54763474219840     -1.69615914246673
  N   -0.85532029267251     -0.22702598292084      1.63839833819441
  O   -1.51655564930013     -1.21966979122844      1.95110143546213
  O   -0.55981120088346      0.69289230018418      2.39986523683782
