14
Coordinates from ORCA-job run
  C   0.77802348110850      0.42576400450351     -0.09702080080739
  C   -0.35124026350191     -0.21221591879497      0.31870313113784
  C   1.88414069609373      0.79710064272532      0.73959876016998
  N   2.86865258996216      1.19391885868814      1.24877102942754
  N   0.90318468540000      0.88027660062321     -1.39923004509646
  H   0.40404988918053      0.36138353499650     -2.10466569558278
  H   1.83684125183367      1.14239121588795     -1.67355543225714
  C   -1.48635397961648     -0.47584525009427     -0.61341631077794
  H   -1.68860343156320      0.41177382061339     -1.21932916582603
  H   -2.38087559543397     -0.72695986169432     -0.04892153072697
  H   -1.27139989032939     -1.31385645355802     -1.28647349255303
  N   -0.46439131163532     -0.69603996783881      1.68862664402372
  O   -1.48905334945412     -1.31743727693629      1.97653515276387
  O   0.45802522795581     -0.46925394912135      2.46937775610479
