14
Coordinates from ORCA-job run
  C   0.74689807287074      0.50789289675959     -0.19110554607795
  C   -0.31626327726152     -0.30482672097627      0.11657088782791
  C   0.47318842686722      1.63430475033525     -1.04485179290258
  N   0.28357310645944      2.56335942503539     -1.74105171119459
  N   2.06509729927789      0.36236273019823      0.12679736466395
  H   2.28542415779188     -0.35145646935811      0.80200894196574
  H   2.65029185154958      1.17924650862585      0.07407963428554
  C   -1.72004806641089     -0.11297028788029     -0.35605284613371
  H   -2.04500668364365     -0.96762315801235     -0.95537582648725
  H   -2.39861412801720     -0.03663963795726      0.49773482456456
  H   -1.81367213145501      0.79383595256875     -0.95257937978266
  N   -0.11786880342053     -1.44722485934651      0.98006766253759
  O   1.01953518741034     -1.68975988343150      1.41223167084867
  O   -1.11153501201828     -2.13050124656077      1.23352611588479
