14
Coordinates from ORCA-job run
  C   0.66825099824847      0.33372923579758     -0.50118096138211
  C   -0.32495766817713     -0.37857099814613      0.09665292462291
  C   1.68761229934665     -0.23424950305992     -1.33786225237207
  N   2.60035035658851     -0.52665059648594     -2.02095831942262
  N   0.74297225114705      1.71366265540677     -0.39994241262155
  H   1.62627330463141      2.11512045290647     -0.67192773038352
  H   0.35870760910824      2.12032916975016      0.43810853306625
  C   -1.37022396229860      0.25116608059768      0.95458388321071
  H   -1.66636757062121      1.21653408589827      0.53606817770318
  H   -2.25007990290355     -0.38766888841290      1.00437134012845
  H   -1.02053583958343      0.40166737404532      1.98147859303949
  N   -0.34060561462084     -1.82993516206354     -0.00804771482408
  O   -0.97188599782894     -2.42779098789257      0.86637192941305
  O   0.25948973696336     -2.36734291834123     -0.93771599017808
