14
Coordinates from ORCA-job run
  C   0.78145430357421      0.32371602662329     -0.36568720241331
  C   -0.33952105860960     -0.23347906975594      0.19885701173083
  C   0.57239074817689      1.25004442275238     -1.44803546036843
  N   0.44160602470120      2.02343843641736     -2.32525378986004
  N   2.09547204079505      0.06075415146064     -0.10899128564861
  H   2.76531918573854      0.74930006735628     -0.40935561792888
  H   2.28672714639227     -0.45226194973347      0.73802820790296
  C   -1.74731495881932      0.05501415224830     -0.21081438538809
  H   -2.26190110260835     -0.87110897793315     -0.47503417692564
  H   -1.77313855994026      0.72751267810164     -1.06748816577677
  H   -2.30216555972655      0.50805648527514      0.61343428112057
  N   -0.20458223823821     -1.13679823109130      1.31806115733995
  O   -1.24520641949929     -1.55706348661790      1.82739922354633
  O   0.92986044806344     -1.44712470510326      1.71488020266912
