14
Coordinates from ORCA-job run
  C   0.77524745728050      0.42007512994993     -0.26507157485422
  C   -0.33888405355314     -0.23264738409435      0.20269499352125
  C   0.55314007442547      1.57884768535175     -1.09047272297266
  N   0.41545754322837      2.52222549711826     -1.78035710811348
  N   2.08964217468202      0.18262346171586      0.01080355551177
  H   2.76936258910661      0.57489221728301     -0.61899079827111
  H   2.29912412832775     -0.69836871011340      0.45413883801382
  C   -1.75208475933009      0.15519132834482     -0.08938715819966
  H   -2.26390245703306     -0.63811714881780     -0.63811699823156
  H   -1.79046133397431      1.07289404929110     -0.67528255824473
  H   -2.30240408986149      0.30933562658299      0.84108703488280
  N   -0.18753543001048     -1.42656366586781      1.00090519503689
  O   -1.21977312727167     -2.00689203939465      1.34255541248940
  O   0.95207128398353     -1.81349604734971      1.30549388943147
