14
Coordinates from ORCA-job run
  C   0.78497456690341      0.41149841460256     -0.26056158822242
  C   -0.33236574421152     -0.26589217799268      0.16240421718039
  C   0.64021623048239      1.21944252622202     -1.44401976387547
  N   0.54677340260104      1.89068998201453     -2.40606474435580
  N   2.05679571818309      0.36831851766409      0.22920852344538
  H   2.66740974320837      1.12909282804139     -0.01885643952663
  H   2.17059768013275     -0.06977185725314      1.13001563202310
  C   -1.67452193348964     -0.21505196331592     -0.49362343976449
  H   -2.40445404712054      0.27660466410704      0.15274198139723
  H   -2.03847097987819     -1.22665448027514     -0.67801821342355
  H   -1.62400944991543      0.31890387004338     -1.44119279838019
  N   -0.27530649605713     -1.06347202747575      1.36638268701981
  O   0.80736574711692     -1.18436005185125      1.96215124206858
  O   -1.32500443795554     -1.58934824453114      1.73943270441406
