14
Coordinates from ORCA-job run
  C   0.64715290178378      0.60552337791131     -0.10038328003534
  C   -0.32450352666327     -0.25714446994889      0.30635326988335
  C   1.36511952802194      1.50451952330438      0.75847701326022
  N   2.02902518037674      2.30899226017095      1.30368194490351
  N   0.94653282983841      0.76703841186981     -1.44253085924244
  H   0.77497348796671     -0.03035633159498     -2.03504146860985
  H   1.81834498992570      1.23452786232728     -1.63508432468621
  C   -1.09914007201084     -1.07899374267563     -0.66859678086967
  H   -1.46734781071237     -0.45426221838984     -1.48816637915859
  H   -1.95123732672236     -1.53847144354493     -0.17416275547085
  H   -0.48132610921268     -1.87798749861243     -1.09450104357870
  N   -0.66158801175841     -0.36188233397851      1.72111791222328
  O   -1.72551035667269     -0.91576188074674      2.00301196771438
  O   0.12850429583933      0.09725848390823      2.54482478366691
