14
Coordinates from ORCA-job run
  C   0.81941904819435      0.35595369921726     -0.10141710232385
  C   -0.29803231566690     -0.35353937763355      0.21287107034777
  C   2.02425161135256      0.36778291077410      0.67928618649719
  N   3.06814398761654      0.51400864208020      1.20288695554393
  N   0.90872749009573      1.09793832238789     -1.26934769507130
  H   1.66544685943360      1.76326184339251     -1.29308281916316
  H   0.04091425625389      1.46949830452273     -1.62330153002376
  C   -1.52744863915004     -0.33966665403070     -0.63185036688517
  H   -1.25257846176665     -0.34696325916095     -1.68999976355913
  H   -2.15022174339839      0.53943284451610     -0.43387390531525
  H   -2.13558830390041     -1.21841385801778     -0.42593879740832
  N   -0.36088114215845     -1.09117776424311      1.46583110762608
  O   -1.49105080752977     -1.34355547937122      1.88939750168187
  O   0.68889816062393     -1.41456017443346      2.01953915805310
