14

C	-0.489113	-0.05879	-1.421407
C	0.0	0.0	0.0
Br	0.809363	-0.837766	-2.692261
H	1.089576	0.0	0.0
H	-1.383113	-0.662278	-1.538218
N	-0.807612	1.308361	-1.937842
O	-1.926288	1.455202	-2.431201
O	0.058553	2.170372	-1.842809
N	-0.354598	-1.209926	0.702458
O	-0.272503	-1.195821	1.940771
O	-0.539885	-2.232869	0.017164
C	-0.415447	1.162739	0.745047
N	-0.741707	2.110382	1.362407
H	2.267012	0.0	0.0
