14

C	-0.514977	0.037826	-1.411335
C	0.0	0.0	0.0
Br	-2.434929	-0.290035	-1.589918
H	1.094946	0.0	0.0
H	-0.346613	1.038044	-1.80799
N	0.264101	-0.854233	-2.363475
O	-0.198768	-1.913604	-2.755446
O	1.356266	-0.372276	-2.661305
N	-0.320626	-1.206544	0.723014
O	-0.274868	-2.25692	0.067916
O	-0.445765	-1.134825	1.953029
C	-0.425547	1.182787	0.710769
N	-0.722676	2.20024	1.220819
H	2.33228	0.0	0.0
