14

C	-0.307588	0.052718	-1.467482
C	0.0	0.0	0.0
Br	0.013616	1.817913	-2.178673
H	1.09596	0.0	0.0
H	0.33902	-0.635645	-2.006419
N	-1.723672	-0.33164	-1.820308
O	-1.883988	-0.835823	-2.927477
O	-2.602207	-0.096762	-1.000242
N	-0.324262	-1.304859	0.534297
O	-0.371635	-1.436501	1.761235
O	-0.365734	-2.239693	-0.28435
C	-0.50637	1.065167	0.824756
N	-0.84056	1.975301	1.490481
H	2.354302	0.0	0.0
