14

C	-0.292154	-0.023191	-1.472372
C	0.0	0.0	0.0
Br	0.089159	1.693141	-2.274299
H	1.106993	0.0	0.0
H	0.337554	-0.762509	-1.965253
N	-1.71653	-0.378421	-1.822961
O	-2.605123	0.033976	-1.086433
O	-1.874064	-1.033737	-2.84967
N	-0.349194	-1.266271	0.598367
O	-0.444567	-2.237047	-0.176091
O	-0.381993	-1.343504	1.832523
C	-0.490985	1.114356	0.765701
N	-0.801529	2.053011	1.404932
H	2.339639	0.0	0.0
