15

C	-0.532883	-0.004428	-1.415418
C	0.0	0.0	0.0
Br	0.217413	1.528832	-2.500278
H	1.089003	0.0	0.0
H	-0.369067	-0.90919	0.477216
N	-0.111177	-1.254956	-1.971417
H	-0.290697	-1.268386	-2.96705
H	0.89287	-1.346714	-1.827537
N	-1.956197	0.230581	-1.447867
H	-2.40811	-0.529269	-0.946653
H	-2.291601	0.244578	-2.40449
N	-0.531144	1.114664	0.795032
O	-0.05477	2.233524	0.617629
O	-1.416132	0.853499	1.622395
H	2.75812	0.0	0.0
