15

C	-0.395782	-0.040329	-1.471673
C	0.0	0.0	0.0
Br	-0.107467	1.879075	-2.175249
H	1.087048	0.0	0.0
H	-0.358393	-0.932972	0.449165
N	0.525568	-0.844666	-2.218413
H	1.476469	-0.617585	-1.905736
H	0.338666	-1.810121	-1.964112
N	-1.715602	-0.48213	-1.705679
H	-2.36198	0.073126	-1.160436
H	-1.927022	-0.413941	-2.693054
N	-0.631643	1.083496	0.78562
O	-1.857474	1.217153	0.666885
O	0.063698	1.758821	1.534096
H	2.861717	0.0	0.0
