15

C	-0.375087	-0.10294	-1.467802
C	0.0	0.0	0.0
Br	-0.095597	1.855003	-2.183949
H	1.087189	0.0	0.0
H	-0.463984	0.860121	0.469731
N	0.489777	-0.994393	-2.097619
H	1.447661	-0.881717	-1.745784
H	0.444311	-0.950873	-3.107891
N	-1.788994	-0.287691	-1.693203
H	-1.996066	-0.220033	-2.684004
H	-2.029543	-1.222823	-1.373919
N	-0.472265	-1.192006	0.727435
O	0.066208	-2.274584	0.48521
O	-1.378434	-1.03921	1.559808
H	2.738451	0.0	0.0
