15

C	-0.37969	-0.061402	-1.470311
C	0.0	0.0	0.0
Br	-0.082097	1.717142	-2.417193
H	1.089008	0.0	0.0
H	-0.352098	-0.931314	0.446658
N	0.483769	-1.060348	-2.000913
H	1.446403	-0.883546	-1.681422
H	0.452737	-1.072652	-3.012857
N	-1.796113	-0.299819	-1.665063
H	-2.013069	-0.267419	-2.655331
H	-1.974362	-1.24419	-1.331899
N	-0.597365	1.073508	0.795978
O	-0.195207	2.225345	0.629832
O	-1.444961	0.746482	1.641196
H	2.752937	0.0	0.0
