15

C	-0.323317	0.118719	-1.48334
C	0.0	0.0	0.0
Br	-0.470703	-1.929297	-2.108379
H	1.088931	0.0	0.0
H	-0.41795	-0.876313	0.479685
N	-1.652318	0.583825	-1.79733
H	-1.633545	1.586777	-1.636663
H	-1.851933	0.405793	-2.773915
N	0.729505	0.750417	-2.112375
H	0.709445	0.723725	-3.121508
H	1.645257	0.524112	-1.694557
N	-0.435658	1.165714	0.777723
O	-0.581008	0.991871	1.991192
O	-0.558442	2.262915	0.220413
H	2.714456	0.0	0.0
