14

C	0.0	0.0	0.0
C	-0.523614	0.075881	-1.446895
Cl	1.783383	0.0	0.0
H	-0.119596	-0.768005	-2.010714
H	-1.619193	0.046558	-1.324009
C	-0.38451	1.234162	0.720184
N	-0.54002	2.255661	1.280831
N	-0.566818	-1.128706	0.670664
H	-1.607361	-0.9056	0.609789
H	-0.394956	-1.952106	0.096434
N	-0.192145	1.31265	-2.216635
O	0.992301	1.555063	-2.453048
O	-1.132811	2.007614	-2.598987
H	-2.921717	0.0	0.0
