14

C	0.0	0.0	0.0
C	-0.327144	0.092607	-1.506126
Cl	1.794107	0.0	0.0
H	0.190268	-0.73058	-1.996497
H	0.033022	1.054171	-1.875071
C	-0.38427	1.213252	0.747279
N	-0.572603	2.149817	1.432285
N	-0.489407	-1.225912	0.541565
H	-0.416027	-1.208758	1.554552
H	-1.481803	-1.288064	0.279586
N	-1.7495	-0.021841	-1.858946
O	-2.198561	-1.208297	-1.920239
O	-2.49049	0.902682	-1.344125
H	-2.99578	0.0	0.0
