14

C	0.0	0.0	0.0
C	-0.534068	0.02331	-1.428811
Cl	1.784425	0.0	0.0
H	-1.641165	0.003129	-1.284512
H	-0.17674	0.904424	-1.957208
C	-0.34591	1.326232	0.587681
N	-0.513584	2.369725	1.104781
N	-0.547054	-1.106665	0.704649
H	-0.337317	-1.004227	1.693594
H	-1.584525	-0.962126	0.579958
N	-0.098578	-1.145297	-2.218144
O	0.757161	-0.945679	-3.089844
O	-0.628326	-2.231772	-1.994405
H	-2.922436	0.0	0.0
