14

C	0.0	0.0	0.0
C	-0.549069	0.057496	-1.41152
Cl	1.787106	0.0	0.0
H	-0.324291	-0.875041	-1.921781
H	-1.657321	0.176065	-1.235592
C	-0.348938	1.197401	0.808032
N	-0.531394	2.064805	1.580806
N	-0.549468	-1.204616	0.553831
H	-1.58622	-1.016725	0.473769
H	-0.332763	-1.228175	1.546596
N	-0.035946	1.155843	-2.238522
O	0.043831	2.27616	-1.730742
O	0.23117	0.899793	-3.417213
H	-2.898402	0.0	0.0
