14

C	0.0	0.0	0.0
C	-0.52996	-0.035655	-1.429404
Cl	1.791796	0.0	0.0
H	-0.155969	0.812463	-1.999098
H	-1.63711	-0.034683	-1.288261
C	-0.341894	1.350844	0.530131
N	-0.512201	2.419129	0.991637
N	-0.549725	-1.075707	0.74642
H	-1.588181	-0.935104	0.611861
H	-0.345222	-0.933337	1.731225
N	-0.113826	-1.251174	-2.158932
O	0.769708	-1.117653	-3.014329
O	-0.688475	-2.307919	-1.905685
H	-2.921958	0.0	0.0
