14

C	0.0	0.0	0.0
C	-0.577167	-0.009175	-1.397983
Cl	1.791227	0.0	0.0
H	-1.690264	0.112168	-1.187594
H	-0.382334	-0.966518	-1.873186
C	-0.351906	1.232446	0.751378
N	-0.559912	2.138374	1.472118
N	-0.537044	-1.180991	0.618479
H	-1.573072	-1.007048	0.543431
H	-0.305059	-1.157948	1.607946
N	-0.101856	1.046745	-2.293974
O	-0.107248	0.791951	-3.502252
O	0.2209	2.133398	-1.812367
H	-2.888422	0.0	0.0
