8
Coordinates from ORCA-job run
  C   -0.02676915985637      0.34471149183600     -0.29572174618546
  C   1.19149236843845     -0.07846525923950      0.07600163325320
  H   -0.12721102701808      1.23766895687802     -0.90803567629959
  H   1.33120919718863     -0.97203405543642      0.67591431412533
  H   2.07455638408450      0.45970810318473     -0.23943619430723
  N   -1.23722305304230     -0.30798569070244     -0.05906014350052
  H   -2.01866985887905      0.31409449592554      0.07421451614513
  H   -1.18738485091579     -0.99869804244593      0.67512329676915
