8
Coordinates from ORCA-job run
  C   -0.01359948559353      0.45459116294245     -0.01417920061663
  C   1.18165595073488     -0.13959377115528      0.12585228476554
  H   -0.09435354535529      1.53604329130867      0.06572420775222
  H   2.06707212379915      0.45317419810836      0.30906723861307
  H   1.30216017853042     -1.21476511058625      0.03930547531069
  N   -1.21266307100675     -0.16957913030535     -0.36088532530797
  H   -1.20216474345299     -1.16926529574197     -0.22225627488895
  H   -2.02810740765589      0.25039465542937      0.05637159437204
