8
Coordinates from ORCA-job run
  C   -0.01305988923475      0.31505276410661      0.32792568315172
  C   1.18676593510031     -0.06680353501815     -0.13703951882453
  H   -0.08505419545944      1.14713527403152      1.02426185404031
  H   2.08357509682843      0.44283831533247      0.18687208735162
  H   1.29780697010582     -0.90051309611601     -0.82296756384676
  N   -1.23361714408887     -0.31682077935803      0.08592630099607
  H   -1.21793545226629     -0.93369031589001     -0.71274588097986
  H   -2.01948132098521      0.31280137291160      0.04776703811142
