8
Coordinates from ORCA-job run
  C   -0.01711615474933      0.39908268739615      0.21840800253547
  C   1.18737515892022     -0.09550314915572     -0.10714911387766
  H   -0.08849333640244      1.28582369557234      0.84368398818086
  H   2.08805464453745      0.39148361851275      0.24013141116734
  H   1.29729966873340     -0.97159295015290     -0.73826476072404
  N   -1.25171278677787     -0.05619022678740     -0.24722362856553
  H   -1.21766516812532     -0.98802743833515     -0.63372420973101
  H   -1.99874202613611      0.03492376294993      0.42313831101456
