14

C	0.0	0.0	0.0
C	-0.250947	0.279962	-1.511813
Br	2.002369	0.0	0.0
H	0.367389	-0.433296	-2.061173
H	-0.281264	0.872823	0.593432
N	-0.519356	-1.254782	0.381889
H	-1.567612	-0.993415	0.299779
H	-0.308995	-1.386247	1.367179
C	0.155437	1.641615	-1.860093
N	0.516136	2.720548	-2.1522
N	-1.635358	0.038574	-2.11089
O	-1.885441	-1.131534	-2.360336
O	-2.288781	1.011971	-2.454191
F	-2.624184	0.0	0.0
