14

C	0.0	0.0	0.0
C	-0.481518	0.336163	-1.43691
Br	1.95886	0.0	0.0
H	0.356494	0.769837	-1.988723
H	-0.251017	0.866821	0.617821
N	-0.514392	-1.248704	0.448647
H	-1.549737	-1.01669	0.392222
H	-0.25323	-1.365074	1.421933
C	-1.581694	1.298987	-1.521125
N	-2.159569	2.27759	-1.826486
N	-0.772672	-0.922073	-2.218504
O	0.21019	-1.624663	-2.436971
O	-1.909462	-1.134271	-2.616496
F	-2.629693	0.0	0.0
