14

C	0.0	0.0	0.0
C	-0.311281	-0.150869	-1.513721
Br	2.025827	0.0	0.0
H	0.225852	0.636598	-2.045367
H	-0.297205	1.010431	0.271674
N	-0.488382	-0.918251	0.943325
H	-0.314143	-1.859518	0.61371
H	-1.519073	-0.715192	0.849213
C	-1.70877	-0.115783	-1.985486
N	-2.49119	-0.063509	-2.867624
N	0.279032	-1.420164	-2.074434
O	1.031399	-1.316344	-3.039054
O	-0.044325	-2.476545	-1.537806
F	-2.612561	0.0	0.0
