14

C	0.0	0.0	0.0
C	-0.251625	0.271226	-1.513933
Br	2.002077	0.0	0.0
H	0.373759	-0.435682	-2.062046
H	-0.27574	0.880804	0.583874
N	-0.526534	-1.244746	0.397738
H	-0.321845	-1.363408	1.386109
H	-1.575415	-0.97962	0.30881
C	0.141121	1.635886	-1.864301
N	0.481201	2.718731	-2.163001
N	-1.633211	0.01288	-2.110364
O	-2.295273	0.976996	-2.463463
O	-1.872226	-1.163628	-2.345048
F	-2.633074	0.0	0.0
