19

C	-0.457519	0.051736	-1.46261
C	0.0	0.0	0.0
Cl	-0.045448	-1.609389	-2.194401
H	1.090199	0.0	0.0
N	-1.840115	0.353651	-1.60827
H	-2.09416	0.337524	-2.588408
H	-2.394039	-0.327577	-1.102713
C	0.405852	1.043209	-2.22341
H	1.462126	0.826954	-2.053205
H	0.185207	0.980334	-3.292265
H	0.179191	2.055366	-1.881019
N	-0.504776	-1.22933	0.680847
O	-1.723908	-1.438938	0.623711
O	0.288787	-1.930105	1.294656
C	-0.485483	1.188766	0.818924
H	-0.088736	1.097847	1.833085
H	-1.573422	1.244519	0.843744
H	-0.086756	2.109521	0.392767
Cl	3.421999	0.0	0.0
