19

C	-0.479454	0.056274	-1.469671
C	0.0	0.0	0.0
Cl	-0.15112	-1.570688	-2.191761
H	1.090657	0.0	0.0
N	-1.87859	0.338797	-1.695324
H	-2.434334	-0.223469	-1.059729
H	-2.047918	1.317096	-1.490326
C	0.384237	1.057383	-2.219078
H	0.185105	2.071633	-1.858411
H	0.137224	1.011605	-3.280717
H	1.440704	0.833141	-2.059578
N	-0.51751	-1.225479	0.671425
O	0.276093	-2.042145	1.120178
O	-1.749846	-1.333309	0.745943
C	-0.467508	1.193826	0.820221
H	-0.052155	2.112128	0.402887
H	-0.075512	1.098366	1.83544
H	-1.555487	1.26104	0.864895
Cl	3.412348	0.0	0.0
