19

C	-0.296638	0.011382	-1.507219
C	0.0	0.0	0.0
Cl	-2.071602	0.313162	-1.822611
H	1.093233	0.0	0.0
N	0.436665	1.147508	-2.02144
H	1.407372	1.057021	-1.710911
H	0.420812	1.117635	-3.035105
C	0.052005	-1.29949	-2.198088
H	-0.07739	-1.17226	-3.27716
H	-0.578751	-2.126739	-1.871538
H	1.096711	-1.534719	-1.975988
N	-0.473727	-1.268966	0.624762
O	0.227327	-2.270218	0.484976
O	-1.547925	-1.252272	1.235087
C	-0.517848	1.198606	0.762462
H	-0.168828	2.098137	0.253752
H	-1.606441	1.204543	0.815486
H	-0.107256	1.183141	1.775531
Cl	3.330438	0.0	0.0
