14

C	-0.540396	-0.07163	-1.418348
C	0.0	0.0	0.0
Br	-0.10128	1.482277	-2.517912
H	1.100597	0.0	0.0
H	-0.117258	-0.929424	-1.943374
H	-1.629687	-0.149451	-1.401091
N	-0.499193	-1.244388	0.636182
H	0.127515	-1.991559	0.349493
H	-0.34707	-1.14936	1.636141
C	-0.525521	1.191814	0.774766
H	-0.218148	2.12844	0.310068
H	-1.619346	1.158072	0.834208
H	-0.117897	1.179153	1.789628
Br	3.696475	0.0	0.0
