14

C	-0.495786	-0.044506	-1.442376
C	0.0	0.0	0.0
Br	-0.096087	1.545359	-2.513958
H	1.095339	0.0	0.0
H	-0.03296	-0.877506	-1.970771
H	-1.584775	-0.147002	-1.472396
N	-0.403899	-1.243375	0.669867
H	0.167031	-2.010422	0.327036
H	-1.378952	-1.454815	0.467496
C	-0.532453	1.185308	0.782136
H	-0.183525	2.128921	0.36164
H	-1.630771	1.18998	0.787725
H	-0.181044	1.106879	1.811497
Br	3.705186	0.0	0.0
