13

C	0.0	0.0	0.0
C	-0.450636	-0.155403	-1.439434
F	1.371949	0.0	0.0
H	-1.433246	-0.617224	-1.378188
H	-0.396765	0.870826	0.501387
H	-0.618521	0.863842	-1.820657
N	-0.380415	-1.162757	0.875281
O	-0.583319	-2.257891	0.365454
O	-0.325003	-0.946371	2.086902
N	0.520414	-0.925995	-2.226042
H	1.298683	-0.334602	-2.49062
H	0.058955	-1.220273	-3.076925
F	-2.495221	0.0	0.0
