13

C	0.0	0.0	0.0
C	-0.395645	-0.010929	-1.474417
F	1.357232	0.0	0.0
H	-1.474452	-0.162892	-1.49396
H	-0.416293	0.83488	0.54677
H	-0.163168	1.005175	-1.822334
N	-0.432189	-1.217992	0.760766
O	-0.536435	-1.092965	1.977712
O	-0.510076	-2.288177	0.159568
N	0.439317	-0.941801	-2.264337
H	0.097792	-0.893569	-3.218508
H	0.213805	-1.872537	-1.932802
F	-2.498669	0.0	0.0
