13

C	0.0	0.0	0.0
C	-0.469203	-0.021636	-1.429524
F	1.359732	0.0	0.0
H	-1.566242	0.016838	-1.318025
H	-0.396775	0.845986	0.546386
H	-0.141509	-0.963163	-1.88845
N	-0.408434	-1.215412	0.778499
O	-0.453867	-2.293789	0.190496
O	-0.541451	-1.07043	1.990765
N	0.080326	1.178336	-2.078914
H	0.996082	0.980331	-2.461098
H	-0.525092	1.438159	-2.844755
F	-2.624258	0.0	0.0
