15

C	0.0	0.0	0.0
C	-0.518517	0.030646	-1.433686
F	1.386013	0.0	0.0
H	-1.609591	-0.080508	-1.399382
H	-0.207491	0.947307	-1.931014
C	-0.392853	1.275054	0.638239
N	-0.564197	2.304589	1.17581
C	-0.480326	-1.178648	0.819607
H	-0.056924	-1.100234	1.823013
H	-1.571198	-1.155822	0.860546
H	-0.144502	-2.104948	0.35423
N	0.082127	-1.081327	-2.216997
O	-0.363903	-2.214333	-2.042005
O	1.001791	-0.797335	-2.986959
Cl	-3.643158	0.0	0.0
