15

C	0.0	0.0	0.0
C	-0.559058	0.264755	-1.378137
F	1.384084	0.0	0.0
H	-1.653931	0.353671	-1.284714
H	-0.314486	-0.550174	-2.058964
C	-0.395144	1.031511	0.983553
N	-0.57063	1.768731	1.880192
C	-0.478446	-1.360393	0.477445
H	-0.053553	-1.55991	1.462763
H	-0.131206	-2.125213	-0.222038
H	-1.569468	-1.356144	0.526913
N	-0.035577	1.498876	-2.025376
O	0.458013	2.377159	-1.322042
O	-0.155209	1.554114	-3.248346
Cl	-3.646844	0.0	0.0
