15

C	0.0	0.0	0.0
C	-0.527671	-0.347481	-1.375834
F	1.389053	0.0	0.0
H	-1.612038	-0.158588	-1.381545
H	-0.318632	-1.390003	-1.609916
C	-0.384676	1.35691	0.444006
N	-0.582071	2.422126	0.895331
C	-0.490419	-1.021639	1.007557
H	-1.582957	-0.999782	1.022907
H	-0.129965	-2.012177	0.7176
H	-0.094103	-0.770813	1.99323
N	0.122287	0.445579	-2.452946
O	0.471101	-0.166606	-3.463614
O	0.251555	1.654595	-2.281155
Cl	-3.635284	0.0	0.0
