15

C	0.0	0.0	0.0
C	-0.51583	0.039197	-1.434343
F	1.385933	0.0	0.0
H	-0.244185	0.977357	-1.913566
H	-1.602269	-0.110512	-1.40607
C	-0.396505	1.270069	0.646312
N	-0.568115	2.296201	1.190182
C	-0.475801	-1.183996	0.814654
H	-0.117965	-2.105475	0.358041
H	-1.566597	-1.175713	0.841714
H	-0.070132	-1.095945	1.824091
N	0.127718	-1.028055	-2.244825
O	-0.218941	-2.189368	-2.043281
O	0.972281	-0.678194	-3.069886
Cl	-3.628102	0.0	0.0
