15

C	0.0	0.0	0.0
C	-0.182021	0.055727	-1.536294
F	1.392491	0.0	0.0
H	0.336157	0.947967	-1.883982
H	0.313444	-0.836803	-1.917206
C	-0.410463	1.250949	0.658887
N	-0.585041	2.273564	1.208317
C	-0.566712	-1.223076	0.662569
H	-0.248766	-1.258445	1.706815
H	-1.660514	-1.158439	0.606876
H	-0.2131	-2.115166	0.140839
N	-1.523335	0.080077	-2.175575
O	-1.992644	1.185683	-2.42273
O	-1.994366	-1.00746	-2.494377
Cl	-3.780914	0.0	0.0
