19

C	-0.310651	0.00257	-1.491241
C	0.0	0.0	0.0
F	-1.712043	-0.103673	-1.700245
H	1.091505	0.0	0.0
C	0.182852	1.248423	-2.19516
H	1.229795	1.388908	-1.918758
H	-0.385699	2.129277	-1.899863
H	0.087435	1.112152	-3.276328
C	0.372099	-1.227856	-2.059947
H	-0.08854	-2.127134	-1.654645
H	1.41553	-1.182828	-1.733814
H	0.306137	-1.231756	-3.151751
N	-0.512898	-1.165698	0.64834
H	0.014318	-1.315887	1.498224
H	-1.486966	-1.033535	0.887833
N	-0.503146	1.266197	0.658711
O	0.077255	2.322346	0.412645
O	-1.47024	1.185239	1.426803
F	2.62133	0.0	0.0
