19

C	-0.388627	0.032706	-1.489287
C	0.0	0.0	0.0
F	-0.20583	-1.316239	-1.901782
H	1.095673	0.0	0.0
C	-1.846051	0.344988	-1.75249
H	-2.077871	0.155223	-2.804472
H	-2.060051	1.38996	-1.525838
H	-2.467129	-0.298791	-1.125762
C	0.615433	0.838364	-2.291012
H	0.547457	0.549269	-3.344316
H	1.607477	0.617286	-1.88305
H	0.421167	1.905846	-2.191842
N	-0.613183	-1.143449	0.66853
H	-0.167621	-1.949927	0.244552
H	-0.296052	-1.112234	1.631012
N	-0.413303	1.226923	0.708055
O	-0.403319	2.301284	0.098228
O	-0.665011	1.135933	1.912632
F	2.619596	0.0	0.0
