19

C	-0.246973	-0.021486	-1.509272
C	0.0	0.0	0.0
F	-1.615962	-0.26341	-1.794377
H	1.090592	0.0	0.0
C	0.159277	1.284612	-2.156333
H	0.098431	1.193689	-3.244979
H	1.18726	1.494032	-1.850071
H	-0.486204	2.104007	-1.836129
C	0.578153	-1.169235	-2.063016
H	0.567212	-1.158899	-3.155801
H	0.176268	-2.126433	-1.719892
H	1.594004	-1.039311	-1.673622
N	-0.50842	-1.127358	0.725631
H	-1.326164	-1.523216	0.282086
H	0.228633	-1.813607	0.800408
N	-0.591978	1.246716	0.574889
O	-1.773157	1.208876	0.927313
O	0.107966	2.259754	0.618249
F	2.652884	0.0	0.0
