19

C	-0.461708	-0.022845	-1.462146
C	0.0	0.0	0.0
F	-0.208734	1.237846	-2.031956
H	1.091037	0.0	0.0
C	0.430772	-1.022553	-2.173867
H	1.460555	-0.815982	-1.867215
H	0.31034	-0.918568	-3.255654
H	0.171791	-2.037894	-1.870603
C	-1.947915	-0.269109	-1.636272
H	-2.522734	0.519395	-1.142849
H	-2.197168	-0.266801	-2.701035
H	-2.225185	-1.232868	-1.207261
N	-0.443441	-1.193656	0.672049
H	-1.328167	-1.024248	1.135371
H	0.255188	-1.420008	1.369188
N	-0.530885	1.246494	0.658274
O	-1.561535	1.149226	1.344687
O	0.057585	2.303971	0.462201
F	2.626444	0.0	0.0
