19

C	-0.450187	-0.006928	-1.465849
C	0.0	0.0	0.0
F	0.088159	1.13118	-2.087851
H	1.091141	0.0	0.0
C	0.20651	-1.208917	-2.119187
H	1.25968	-1.192981	-1.823146
H	0.111231	-1.133674	-3.205901
H	-0.259108	-2.140743	-1.789332
C	-1.94966	0.093059	-1.690521
H	-2.499978	-0.698073	-1.175889
H	-2.162922	0.026721	-2.761273
H	-2.314684	1.053329	-1.322597
N	-0.439911	-1.114579	0.786416
H	-1.330961	-1.504267	0.514388
H	0.288243	-1.81357	0.78028
N	-0.532464	1.262055	0.617716
O	-1.650701	1.216691	1.146489
O	0.138707	2.28611	0.517999
F	2.615376	0.0	0.0
