19

C	-0.336485	0.025797	-1.483847
C	0.0	0.0	0.0
F	-1.741278	-0.094051	-1.665
H	1.091488	0.0	0.0
C	0.12097	1.288167	-2.182108
H	-0.003326	1.166007	-3.26279
H	-0.451872	2.156368	-1.858308
H	1.173612	1.442766	-1.934675
C	0.346724	-1.187962	-2.084453
H	1.39723	-1.135965	-1.784245
H	0.251867	-1.18201	-3.174465
H	-0.092786	-2.09661	-1.675122
N	-0.497866	-1.180166	0.635679
H	-1.460826	-1.051563	0.916062
H	0.061482	-1.356038	1.458203
N	-0.494059	1.249035	0.69326
O	0.063907	2.316258	0.439789
O	-1.429896	1.144365	1.498191
F	2.615911	0.0	0.0
