14

C	0.0	0.0	0.0
C	-0.470622	-0.149151	-1.43088
F	1.385058	0.0	0.0
H	-1.551369	-0.337022	-1.397178
H	-0.367639	0.93906	0.41292
H	-0.349027	-0.831797	0.60759
N	0.159481	-1.402246	-1.979613
O	0.734905	-1.350586	-3.067857
O	0.046876	-2.423825	-1.30548
C	-0.135172	1.047824	-2.294156
H	-0.695166	1.902432	-1.908494
H	0.933416	1.266835	-2.262571
H	-0.426015	0.883147	-3.330289
Br	-3.615883	0.0	0.0
