14

C	0.0	0.0	0.0
C	-0.208997	-0.484139	-1.459342
F	1.386315	0.0	0.0
H	0.172059	0.318284	-2.092546
H	-0.383099	1.002938	0.171396
H	-0.377723	-0.701676	0.742411
N	-1.595207	-0.711723	-1.978016
O	-2.063505	0.173924	-2.688436
O	-2.104068	-1.802127	-1.748034
C	0.566433	-1.77061	-1.728942
H	1.633343	-1.611672	-1.591025
H	0.390059	-2.095652	-2.756846
H	0.225232	-2.564051	-1.063823
Br	-4.063313	0.0	0.0
