14

C	0.0	0.0	0.0
C	-0.390939	-0.023195	-1.465245
F	1.385593	0.0	0.0
H	-1.484166	-0.013134	-1.530334
H	-0.37359	0.912718	0.462139
H	-0.370087	-0.868668	0.534086
N	0.033927	-1.336914	-2.077391
O	0.198657	-1.366293	-3.298597
O	0.147485	-2.318152	-1.347531
C	0.243827	1.115933	-2.246582
H	-0.085904	1.118429	-3.282681
H	-0.047595	2.06034	-1.781761
H	1.33275	1.041711	-2.226583
Br	-3.454393	0.0	0.0
