14

C	0.0	0.0	0.0
C	-0.503991	0.037947	-1.424501
F	1.385041	0.0	0.0
H	-1.58242	-0.164412	-1.36589
H	-0.364651	0.875605	0.536941
H	-0.344969	-0.903199	0.49873
N	0.10573	-1.125496	-2.155282
O	0.011681	-2.229709	-1.622993
O	0.644982	-0.926287	-3.244784
C	-0.222698	1.342257	-2.133943
H	0.842581	1.579998	-2.120419
H	-0.559163	1.30871	-3.169177
H	-0.780133	2.12575	-1.61606
Br	-3.631806	0.0	0.0
