13

C	-0.219029	-0.101119	-1.51015
C	0.0	0.0	0.0
F	-0.359389	-1.469065	-1.835727
H	1.092457	0.0	0.0
H	-1.138351	0.367806	-1.879024
H	-0.344661	0.994185	0.314591
N	0.920698	0.414337	-2.205177
H	0.775139	1.376763	-2.461789
H	1.749986	0.333217	-1.589025
N	-0.719733	-1.028551	0.766439
H	-0.387065	-0.966907	1.723583
H	-0.373825	-1.913809	0.41558
F	2.80939	0.0	0.0
