16
Coordinates from ORCA-job run
  C   -0.63606522194869      0.04577253992359      0.35300666858073
  C   0.80047948266164      0.13961967230622     -0.24202411094470
  Cl  -0.64590497684402     -1.13708311107562      1.70473192664400
  H   0.76136985295158      0.88033941039108     -1.04421959435186
  C   -1.60555026529397     -0.43713559544995     -0.72042515778034
  H   -1.31341354815365     -1.42929888542539     -1.06507248869806
  H   -2.61411838710174     -0.49382381671248     -0.31066703598297
  H   -1.60537860493507      0.26154733125407     -1.56107373662206
  C   -1.09136855601465      1.33275974053644      0.87492568369523
  N   -1.51812010685563      2.36116725084707      1.25072930981941
  N   1.38295443183959     -1.06262688704966     -0.71621131950068
  H   1.05609545319530     -1.30651701507809     -1.63922299663226
  H   1.26579596082698     -1.83093893546894     -0.07056365070376
  N   1.71138433369539      0.74353727241074      0.80196815268177
  O   1.73117535669555      1.97045238519405      0.86054026815202
  O   2.31966479528140     -0.03777135660312      1.52357808164351
