16
Coordinates from ORCA-job run
  C   -0.69433695343022      0.21282263061345      0.54645094420095
  C   0.79613577477424      0.41514637968104      0.15802959766239
  Cl  -0.91831381741779     -0.00056110114046      2.31019228236172
  H   1.24579008631275      1.20213024683084      0.76924506839393
  C   -1.34253870354095     -0.93527215218127     -0.20666918434617
  H   -0.94822828218590     -1.89335176884534      0.11516975480082
  H   -1.19014406816552     -0.79028418056038     -1.27374218478083
  H   -2.41608701604748     -0.90668881998461     -0.01351299153208
  C   -1.34084937218225      1.49350987540449      0.19261327257688
  N   -1.86828146601493      2.51693704348855     -0.04060795552191
  N   0.91157873575247      0.76536149432115     -1.21936200433447
  H   1.19686720203383     -0.04716433266737     -1.75354572272805
  H   1.51264075270843      1.55804300044648     -1.36890717529707
  N   1.51906776306987     -0.87258018788252      0.50405813683494
  O   1.61847666388921     -1.72298580233350     -0.38079699434488
  O   1.91622270044426     -0.99406232519057      1.65938515605383
