16
Coordinates from ORCA-job run
  C   -0.68713110079330      0.29596307974313      0.25380829833671
  C   0.85032443894650      0.20512801021306      0.26145358543244
  Cl  -1.11645838677481      1.46839361115174      1.55258430340977
  H   1.16448863318893     -0.06634680126845      1.27191096891623
  C   -1.35711584996508     -1.03859696284947      0.55760308336327
  H   -2.42978990446734     -0.88839448927502      0.67952363902403
  H   -0.94758746980759     -1.45962059856195      1.47720212302734
  H   -1.19366682363310     -1.73731587506685     -0.26456466258981
  C   -1.18037116353630      0.84672994720195     -1.00921077046288
  N   -1.61179520566215      1.30481595425528     -2.00170287841713
  N   1.50650663421013      1.33573164420855     -0.27005775221794
  H   2.27459079535280      1.65764528448635      0.29583511430942
  H   0.90220333912426      2.09624297946122     -0.53892184421409
  N   1.20154034488040     -1.03658797969111     -0.56246773140555
  O   1.61866786090420     -2.00762577171315      0.06718981260200
  O   1.00859385803246     -0.97716203229529     -1.77018528911382
