16
Coordinates from ORCA-job run
  C   -0.65636167113326     -0.11284531361309      0.39336463836484
  C   0.67957014797866      0.23807620447884     -0.29313029987145
  Cl  -0.46706597178169     -1.65849476833094      1.29142714594306
  H   0.56089972731704      1.21382659986447     -0.77070886321808
  C   -1.75100282446501     -0.28227146283855     -0.65595304325361
  H   -2.69294723178998     -0.52798933834447     -0.16502482430138
  H   -1.87235182878364      0.65299549283948     -1.20858125334799
  H   -1.47089515033024     -1.07379115212588     -1.34768224949561
  C   -1.05815737852159      0.91804047873210      1.35046728229347
  N   -1.47222760765026      1.73830528440422      2.08301092253874
  N   1.05322614005389     -0.74631977305770     -1.23509585997205
  H   1.33387464694568     -1.59930580738639     -0.76676679795093
  H   1.82109166672739     -0.42432515282797     -1.80903158972580
  N   1.74301214391790      0.49088202864337      0.78711086288894
  O   1.69220315764796      1.57863185364236      1.35351867430788
  O   2.55613203386716     -0.40441517407985      0.99307525479996
