16
Coordinates from ORCA-job run
  C   -0.73853463194894      0.17857188437935      0.47520757452525
  C   0.76219035436814      0.45127237732307      0.22145364645539
  Cl  -0.96283728014071     -0.27766403059544      2.19490848919451
  H   1.08947883781973      1.26144805265546      0.87346231180067
  C   -1.35012658069717     -0.89912668764780     -0.41197804460352
  H   -0.85402463996466     -1.85430511182278     -0.24930474329110
  H   -1.26450193941254     -0.60840255942999     -1.46050000707419
  H   -2.40812289282680     -0.99901695615083     -0.16867963835546
  C   -1.42483813845787      1.45334097297067      0.25608761615692
  N   -1.99158140667695      2.46643721883281      0.07621403333097
  N   0.97466390607020      0.77070417106086     -1.14537819677412
  H   0.95612563186849     -0.06298911415059     -1.71983763575912
  H   1.85396191358761      1.25144937035192     -1.28113540069363
  N   1.58090309942273     -0.75233807880316      0.67898538860016
  O   2.21281143818184     -0.64403054523631      1.72422449822844
  O   1.56443232880692     -1.73435096373725     -0.06272989174119
