14

C	0.0	0.0	0.0
C	-0.401374	0.12142	-1.519596
Br	1.960021	0.0	0.0
H	0.536837	0.130265	-2.086653
C	-0.377004	1.199468	0.75502
N	-0.449558	2.218611	1.340367
C	-0.400662	-1.208435	0.722411
N	-0.465119	-2.158733	1.41519
C	-1.097729	1.351891	-1.868054
N	-1.403004	2.405785	-2.292401
N	-1.075067	-1.097346	-2.116983
O	-1.804898	-0.902521	-3.074448
O	-0.677134	-2.176737	-1.701509
Br	-3.031981	0.0	0.0
