16

C	-0.547529	-0.015519	-1.423606
C	0.0	0.0	0.0
Cl	-0.057874	1.523475	-2.216205
H	1.100531	0.0	0.0
H	-0.037142	-0.800756	-1.977146
C	-2.055549	-0.154184	-1.494934
H	-2.395696	-0.077769	-2.529403
H	-2.353103	-1.131167	-1.10741
H	-2.527349	0.62689	-0.899302
N	-0.361989	-1.30625	0.649546
O	-0.330272	-2.315236	-0.053993
O	-0.605894	-1.305196	1.854244
N	-0.57983	1.071202	0.790857
H	-0.120496	1.922394	0.482371
H	-0.288492	0.920058	1.750384
Cl	3.324292	0.0	0.0
