16

C	-0.548096	0.05646	-1.411854
C	0.0	0.0	0.0
Cl	0.136618	-1.275071	-2.396698
H	1.096988	0.0	0.0
H	-1.627607	-0.094926	-1.390332
C	-0.170526	1.375013	-2.063682
H	0.910765	1.518726	-2.00022
H	-0.687678	2.197913	-1.565476
H	-0.461817	1.373414	-3.115409
N	-0.488451	-1.210297	0.741255
O	-1.300354	-1.963772	0.207101
O	-0.061638	-1.341129	1.887661
N	-0.513428	1.14037	0.776393
H	-0.275136	0.933336	1.74331
H	0.086841	1.924171	0.536291
Cl	3.344741	0.0	0.0
