16

C	-0.363066	-0.005383	-1.485344
C	0.0	0.0	0.0
Cl	-2.153179	0.094751	-1.726914
H	1.092305	0.0	0.0
H	0.024644	0.942755	-1.863793
C	0.217937	-1.15295	-2.284017
H	1.286394	-1.212941	-2.06151
H	-0.248415	-2.09957	-2.015594
H	0.071095	-0.97468	-3.351528
N	-0.503271	-1.274032	0.623918
O	0.131307	-2.302891	0.390407
O	-1.540214	-1.222118	1.283201
N	-0.453667	1.112391	0.766323
H	0.236273	1.848254	0.731751
H	-1.363836	1.441342	0.479807
Cl	3.32856	0.0	0.0
