16

C	-0.506926	-0.044777	-1.453049
C	0.0	0.0	0.0
Cl	-0.148074	1.53466	-2.224924
H	1.090765	0.0	0.0
H	0.092591	-0.78106	-1.98921
C	-1.990607	-0.343562	-1.591951
H	-2.28642	-0.290638	-2.641375
H	-2.209947	-1.349896	-1.222333
H	-2.599145	0.374982	-1.03242
N	-0.447379	-1.339686	0.559136
O	0.039316	-2.333758	0.020965
O	-1.309522	-1.365603	1.433026
N	-0.452164	1.056902	0.832873
H	-1.350931	1.428016	0.56946
H	0.245032	1.78617	0.843986
Cl	3.330182	0.0	0.0
