15
Coordinates from ORCA-job run
  C   -0.54820851837479      0.37924037546120      0.11960077119556
  C   0.56360489326701     -0.67221409059872      0.18574302557030
  Cl  -0.41323073126653      1.47641800395885      1.54506540101168
  H   0.37244523029010     -1.38322488683074     -0.62643900060404
  H   0.43265246543535     -1.21318266910986      1.12835371497849
  C   -1.93249770125674     -0.25895891483008      0.14562691873756
  H   -2.05464221197196     -0.90645303217289     -0.72626950510122
  H   -2.71091137791240      0.50461467450674      0.13245988764696
  H   -2.03809077171555     -0.85547643123413      1.05372758019360
  C   -0.39642960214281      1.20050103674930     -1.08369364662986
  N   -0.27736181452392      1.81528099744920     -2.07775643876674
  C   1.97843995324675     -0.12100600768576      0.07252290504560
  H   2.12811855959608      0.39243723659459     -0.87960569992791
  H   2.70090876258678     -0.93769733413331      0.13033202623932
  H   2.19620286474264      0.57972104187561      0.87933206041072
