15
Coordinates from ORCA-job run
  C   -0.61228179697381      0.47382006786690      0.41889236068591
  C   0.70777315416493     -0.21069990128587      0.78992550430236
  Cl  -1.45981927632082      0.90112730687490      1.95231851966625
  H   1.26201828664093      0.46253181663910      1.44962600453346
  H   0.45413243171838     -1.09803963325491      1.37848814388808
  C   -1.53988251296174     -0.41186216636544     -0.40466667822633
  H   -2.49625370285574      0.08622564046742     -0.56644711337588
  H   -1.09211973239890     -0.62937970166715     -1.37600511300942
  H   -1.71535572520872     -1.34741802898352      0.13034133698493
  C   -0.34484639632142      1.72368719971207     -0.29694604500759
  N   -0.10174775094129      2.69800461418260     -0.90691568521752
  C   1.56206986595753     -0.58735773955234     -0.41663114029856
  H   1.08277810841948     -1.34594960336405     -1.03764678297047
  H   2.51488374261290     -0.99793476030349     -0.07607477218795
  H   1.78065130446829      0.28324488903377     -1.03925853976726
