18

C	-0.458095	0.01384	-1.457606
C	0.0	0.0	0.0
Br	0.331517	-1.508515	-2.409376
H	1.092904	0.0	0.0
C	-1.951523	-0.00926	-1.679924
H	-2.364912	-0.924566	-1.255152
H	-2.392666	0.854851	-1.176145
H	-2.197976	0.036508	-2.739218
N	0.123272	1.260298	-2.152194
O	-0.589262	1.834761	-2.971922
O	1.266153	1.574263	-1.861157
C	-0.525506	-1.181314	0.810943
H	-0.08443	-1.142257	1.809874
H	-1.613984	-1.165041	0.922045
H	-0.225857	-2.123346	0.348805
C	-0.447023	1.246578	0.60078
N	-0.835432	2.247696	1.08928
Cl	2.693274	0.0	0.0
