18

C	-0.458169	0.013991	-1.457587
C	0.0	0.0	0.0
Br	0.331222	-1.508169	-2.409633
H	1.092883	0.0	0.0
C	-1.951603	-0.008832	-1.679926
H	-2.392749	0.854673	-1.175118
H	-2.197916	0.038273	-2.739182
H	-2.365069	-0.924639	-1.256304
N	0.123192	1.260859	-2.151763
O	1.265739	1.575284	-1.859945
O	-0.588648	1.834507	-2.972664
C	-0.525388	-1.18149	0.81076
H	-0.224567	-2.123372	0.349069
H	-1.613982	-1.166071	0.920864
H	-0.085272	-1.141931	1.810095
C	-0.447485	1.246499	0.600668
N	-0.836563	2.24752	1.088822
Cl	2.693291	0.0	0.0
