18

C	-0.478169	0.017663	-1.45925
C	0.0	0.0	0.0
Br	0.3191	-1.493122	-2.418339
H	1.09289	0.0	0.0
C	-1.974355	-0.0271	-1.659932
H	-2.378095	-0.945715	-1.235429
H	-2.21349	0.018328	-2.719636
H	-2.422306	0.837634	-1.162957
N	0.076336	1.275669	-2.154902
O	1.196214	1.639994	-1.838343
O	-0.636203	1.793963	-3.015458
C	-0.509479	-1.189595	0.811137
H	-0.200474	-2.123549	0.340965
H	-1.59725	-1.180337	0.926937
H	-0.055376	-1.14794	1.802453
C	-0.455537	1.247555	0.608857
N	-0.842956	2.242095	1.099629
Cl	3.073546	0.0	0.0
