18

C	-0.382138	-0.004098	-1.469002
C	0.0	0.0	0.0
Br	0.279953	1.625921	-2.323143
H	1.097257	0.0	0.0
C	0.15873	-1.199754	-2.232173
H	-0.020084	-1.091073	-3.300561
H	-0.337556	-2.11202	-1.893079
H	1.230548	-1.278707	-2.044463
N	-1.899429	0.062997	-1.69785
O	-2.315178	-0.277545	-2.802916
O	-2.601559	0.375072	-0.741717
C	-0.481748	-1.238534	0.758394
H	-0.053514	-2.147169	0.330645
H	-1.571611	-1.318399	0.773089
H	-0.132822	-1.170491	1.791451
C	-0.402594	1.211423	0.695288
N	-0.665609	2.163794	1.337051
Cl	2.690583	0.0	0.0
