18

C	-0.392126	-0.00556	-1.470333
C	0.0	0.0	0.0
Br	0.082791	1.699029	-2.297729
H	1.097052	0.0	0.0
C	0.268036	-1.114909	-2.266385
H	1.346895	-1.0449	-2.12401
H	-0.08054	-2.087882	-1.916177
H	0.031388	-1.030596	-3.325598
N	-1.913514	-0.081024	-1.656404
O	-2.340631	-0.768736	-2.582953
O	-2.604159	0.461967	-0.801511
C	-0.493499	-1.244435	0.74229
H	-0.115599	-1.211298	1.766753
H	-0.108414	-2.156483	0.282177
H	-1.585468	-1.292092	0.787208
C	-0.406134	1.196779	0.717981
N	-0.666969	2.129515	1.388909
Cl	2.691161	0.0	0.0
