14

C	0.0	0.0	0.0
C	-0.475402	-0.222621	-1.423234
F	1.35166	0.0	0.0
H	-1.565953	-0.349645	-1.33589
H	-0.378449	-0.822459	0.628291
N	-0.583319	1.209466	0.564148
O	-0.331361	1.405372	1.778727
O	-1.73714	1.447373	-0.004346
N	0.137155	-1.452731	-1.927275
H	-0.229394	-1.646129	-2.85193
H	1.136	-1.308858	-2.017082
C	-0.192371	0.943959	-2.279228
N	0.033239	1.76378	-3.091897
H	-2.794878	0.0	0.0
