14

C	0.0	0.0	0.0
C	-0.472238	-0.277488	-1.415392
F	1.351877	0.0	0.0
H	-1.562426	-0.404432	-1.326843
H	-0.37903	-0.798115	0.658469
N	-0.585487	1.229669	0.515881
O	-0.337688	1.471414	1.722658
O	-1.739671	1.440823	-0.063395
N	0.145257	-1.52281	-1.872028
H	1.144043	-1.379157	-1.963138
H	-0.216743	-1.752564	-2.789478
C	-0.184081	0.858287	-2.310465
N	0.084135	1.649711	-3.13767
H	-2.795486	0.0	0.0
