14

C	0.0	0.0	0.0
C	-0.470263	-0.336466	-1.403656
F	1.351775	0.0	0.0
H	-1.559781	-0.461531	-1.312951
H	-0.379834	-0.769799	0.691157
N	-0.586764	1.249917	0.46298
O	-1.741182	1.434001	-0.124213
O	-0.339348	1.54171	1.658965
N	0.150345	-1.598951	-1.807908
H	-0.210278	-1.866228	-2.716409
H	1.148938	-1.457917	-1.90304
C	-0.178999	0.76239	-2.343516
N	0.10808	1.520476	-3.195493
H	-2.795381	0.0	0.0
