14

C	0.0	0.0	0.0
C	-0.328294	0.065161	-1.527358
F	1.358612	0.0	0.0
H	0.478061	0.702689	-1.906679
H	-0.408878	-0.827763	0.567307
N	-0.365015	1.262408	0.722105
O	-0.515836	1.182077	1.938116
O	-0.324668	2.308286	0.073266
N	-1.585851	0.538817	-2.044387
H	-1.545002	1.551805	-1.991965
H	-2.30074	0.259372	-1.30566
C	-0.034533	-1.291427	-2.034044
N	0.226101	-2.364125	-2.434756
H	-2.847215	0.0	0.0
