14

C	0.0	0.0	0.0
C	-0.462957	-0.383796	-1.402603
F	1.352237	0.0	0.0
H	-1.559114	-0.422522	-1.350381
H	-0.38261	-0.749053	0.71612
N	-0.586097	1.255855	0.446615
O	-0.33633	1.56519	1.636938
O	-1.739949	1.430465	-0.14251
N	0.048577	-1.688478	-1.832457
H	1.030598	-1.748747	-1.589499
H	-0.441799	-2.396821	-1.296445
C	-0.057355	0.639662	-2.373508
N	0.295837	1.417227	-3.179939
H	-2.786563	0.0	0.0
