14

C	0.0	0.0	0.0
C	-0.363698	0.028607	-1.515251
F	1.358606	0.0	0.0
H	0.427504	0.662085	-1.931871
H	-0.409274	-0.811357	0.593043
N	-0.363829	1.281651	0.693781
O	-0.29011	2.313563	0.026806
O	-0.56336	1.222903	1.903273
N	-1.641505	0.48415	-1.994918
H	-2.359005	0.204068	-1.251315
H	-1.615798	1.498202	-1.952026
C	-0.083396	-1.337923	-2.002312
N	0.148558	-2.419362	-2.397102
H	-3.031229	0.0	0.0
