14

C	0.0	0.0	0.0
C	-0.611443	0.228737	-1.379315
F	1.35219	0.0	0.0
H	-1.386805	0.991766	-1.237982
H	-0.38373	-0.907909	0.452224
N	-0.331588	1.125938	0.950975
O	-0.351176	2.264963	0.492798
O	-0.398727	0.829722	2.140737
N	-1.210923	-1.043535	-1.794261
H	-1.529603	-0.932555	-2.753519
H	-2.073088	-1.013686	-1.197885
C	0.374084	0.705903	-2.347838
N	1.10879	1.109171	-3.1719
H	-2.876893	0.0	0.0
