14

C	0.0	0.0	0.0
C	-0.285267	-0.123662	-1.537881
F	1.352859	0.0	0.0
H	0.076698	0.825279	-1.950273
H	-0.427422	-0.841678	0.563758
N	-0.603656	1.1821	0.580821
O	-0.365399	1.375882	1.806307
O	-1.764964	1.405171	5.4e-05
N	-1.600757	-0.386829	-2.093493
H	-2.199884	0.347836	-1.711293
H	-1.965565	-1.234798	-1.662679
C	0.611958	-1.175588	-2.054283
N	1.273594	-2.047753	-2.484338
H	-2.9225	0.0	0.0
