15

C	0.0	0.0	0.0
C	-0.524134	0.488956	-1.388875
Br	1.959018	0.0	0.0
H	0.340265	0.561802	-2.064041
C	-0.418684	0.861986	1.101593
N	-0.569054	1.58245	2.018924
C	-0.347216	-1.470212	0.290649
H	-1.434652	-1.512721	0.328643
H	0.107281	-1.758654	1.240805
H	0.06138	-2.104938	-0.498895
C	-1.117996	1.82639	-1.332605
N	-1.479872	2.941881	-1.389981
C	-1.459718	-0.45642	-2.011001
N	-1.946993	-1.219474	-2.763261
F	-2.467735	0.0	0.0
