15

C	0.0	0.0	0.0
C	-0.488585	0.08436	-1.466232
Br	1.958475	0.0	0.0
H	0.238693	-0.473894	-2.06739
C	-0.421896	1.120718	0.836051
N	-0.593293	2.021026	1.572136
C	-0.364641	-1.351099	0.633939
H	0.112664	-1.434123	1.611566
H	-1.44976	-1.372453	0.709624
H	0.00808	-2.157968	-0.004631
C	-0.451995	1.464284	-1.959344
N	-0.365287	2.553117	-2.39314
C	-1.811603	-0.548224	-1.730183
N	-2.446278	-1.195122	-2.492671
F	-2.534899	0.0	0.0
