16

C	-0.63082	-0.009077	-1.39665
C	0.0	0.0	0.0
Br	0.316582	-1.53526	-2.379863
H	1.089197	0.0	0.0
N	-2.022805	-0.238707	-1.290621
H	-2.141094	-1.050034	-0.688672
H	-2.449839	-0.399784	-2.194644
C	-0.373387	1.138208	-2.265252
N	-0.28122	2.000788	-3.058285
N	-0.454214	-1.174536	0.716685
H	0.388264	-1.655793	1.010608
H	-0.945363	-0.868705	1.549209
N	-0.441735	1.246601	0.696043
O	-0.231822	2.31091	0.119926
O	-0.945087	1.160765	1.821793
F	2.514092	0.0	0.0
