16

C	-0.162858	0.167741	-1.52844
C	0.0	0.0	0.0
Br	-1.891168	1.293155	-1.970399
H	1.093681	0.0	0.0
N	0.988748	0.751311	-2.043834
H	1.80307	0.611739	-1.397903
H	1.170159	0.523476	-3.009298
C	-0.529886	-1.098969	-2.172722
N	-0.714602	-2.091962	-2.776637
N	-0.603613	-1.167171	0.519572
H	-1.562936	-0.985855	0.788695
H	-0.08776	-1.471968	1.333953
N	-0.401478	1.2696	0.706287
O	0.164986	2.303521	0.373412
O	-1.251254	1.185394	1.597248
F	2.621549	0.0	0.0
