16

C	-0.089459	0.113008	-1.559198
C	0.0	0.0	0.0
Br	-1.865558	0.904684	-2.198
H	1.093404	0.0	0.0
N	1.008374	0.868636	-2.020446
H	1.82044	0.669014	-1.386255
H	1.223799	0.681295	-2.990816
C	-0.156021	-1.251611	-2.107117
N	-0.135885	-2.341977	-2.549659
N	-0.586119	-1.118247	0.639231
H	-1.531632	-1.303282	0.330186
H	0.003391	-1.927955	0.509662
N	-0.513273	1.266	0.593479
O	-1.600167	1.219929	1.171833
O	0.162778	2.280119	0.440757
F	2.629354	0.0	0.0
