16

C	-0.540907	0.041303	-1.432127
C	0.0	0.0	0.0
Br	-0.209604	-1.708398	-2.261004
H	1.092806	0.0	0.0
N	-1.98317	0.253084	-1.460933
H	-2.136093	1.225789	-1.210591
H	-2.318148	0.121126	-2.409143
C	0.194419	0.987586	-2.289654
N	0.663929	1.737027	-3.064392
N	-0.44559	-1.128664	0.733931
H	0.222477	-1.314062	1.467838
H	-1.369735	-1.00553	1.125373
N	-0.38489	1.290662	0.670657
O	-0.587706	2.295144	-0.025506
O	-0.425445	1.298048	1.90037
F	2.506188	0.0	0.0
