16

C	-0.207523	-0.066546	-1.540394
C	0.0	0.0	0.0
Br	-0.058876	1.719042	-2.374668
H	1.090576	0.0	0.0
N	0.830731	-0.905658	-2.094607
H	1.691636	-0.642297	-1.576602
H	0.611151	-1.851588	-1.79856
C	-1.547359	-0.548479	-1.892199
N	-2.625962	-0.957225	-2.122291
N	-0.474369	-1.232618	0.547076
H	0.079033	-1.463173	1.3624
H	-1.455548	-1.168572	0.795017
N	-0.636888	1.194881	0.640097
O	-1.816318	1.071359	0.999116
O	0.025007	2.219166	0.774411
F	2.604577	0.0	0.0
