16

C	-0.524802	-0.038178	-1.442742
C	0.0	0.0	0.0
Br	0.6604	1.093996	-2.634544
H	1.092209	0.0	0.0
N	-0.540469	-1.390986	-1.886084
H	-0.484541	-1.432585	-2.894148
H	0.233572	-1.884639	-1.457749
C	-1.863333	0.540758	-1.624314
N	-2.961596	0.931228	-1.777085
N	-0.350969	-1.169146	0.738957
H	0.33054	-1.274677	1.477886
H	-1.276853	-1.117073	1.145319
N	-0.424689	1.263242	0.682357
O	-0.616376	1.210887	1.899794
O	-0.498915	2.293952	0.015207
F	2.504335	0.0	0.0
