12

C	0.0	0.0	0.0
C	-0.239949	0.179939	-1.503789
F	1.357592	0.0	0.0
H	0.254993	-0.682331	-1.95752
H	-0.419076	0.740025	0.672308
H	0.379978	1.049169	-1.750168
N	-0.373733	-1.35562	0.533378
O	-0.402617	-2.291391	-0.258191
O	-0.475195	-1.430652	1.753583
C	-1.496872	0.373925	-2.227981
N	-2.162115	0.591246	-3.175608
Br	-3.286753	0.0	0.0
