12

C	0.0	0.0	0.0
C	-0.239282	0.156075	-1.507129
F	1.357596	0.0	0.0
H	0.323912	-0.671516	-1.945842
H	-0.420588	0.751337	0.65881
H	0.320233	1.065006	-1.752472
N	-0.374984	-1.346369	0.552894
O	-0.382139	-2.294847	-0.224717
O	-0.497075	-1.404266	1.77215
C	-1.497192	0.238554	-2.248865
N	-2.164943	0.354143	-3.212191
Br	-3.291926	0.0	0.0
