12

C	0.0	0.0	0.0
C	-0.246513	0.168255	-1.504683
F	1.35756	0.0	0.0
H	0.43471	-0.557168	-1.956174
H	-0.418395	0.746143	0.667165
H	0.165117	1.157506	-1.731895
N	-0.381335	-1.350747	0.532707
O	-0.472898	-1.43512	1.752823
O	-0.417285	-2.281121	-0.267055
C	-1.498718	0.039395	-2.250772
N	-2.143269	-0.035551	-3.233495
Br	-3.287899	0.0	0.0
