15

C	0.0	0.0	0.0
C	-0.41299	-0.178958	-1.470878
Cl	1.781121	0.0	0.0
H	-0.075264	0.730234	-1.96695
H	-1.50542	-0.20792	-1.40734
N	-0.487562	1.332244	0.549379
O	-0.715796	1.451825	1.738478
O	-0.490155	2.241057	-0.273833
N	-0.426113	-1.173152	0.864941
O	-0.836139	-2.165847	0.280876
O	-0.212882	-1.095902	2.067661
N	0.247419	-1.330796	-2.087039
H	0.345616	-1.148457	-3.076324
H	-0.355354	-2.132874	-1.971937
F	-2.463094	0.0	0.0
