15

C	0.0	0.0	0.0
C	-0.225577	-0.270581	-1.558979
Cl	1.793307	0.0	0.0
H	0.589703	0.265522	-2.041718
H	-0.003561	-1.336697	-1.63598
N	-0.42358	1.389295	0.419235
O	-0.484805	2.187764	-0.509745
O	-0.545928	1.668197	1.599671
N	-0.455902	-1.112775	0.918677
O	-0.620319	-2.201755	0.386657
O	-0.498432	-0.894674	2.118724
N	-1.432398	0.030981	-2.274056
H	-1.483727	1.040934	-2.341243
H	-2.172223	-0.200696	-1.59709
F	-2.351953	0.0	0.0
