15

C	0.0	0.0	0.0
C	-0.195476	0.302989	-1.553494
Cl	1.779199	0.0	0.0
H	0.447631	-0.434294	-2.036703
H	0.301106	1.271244	-1.65233
N	-0.445389	1.138695	0.895418
O	-0.709713	2.187614	0.324934
O	-0.388198	0.977801	2.104584
N	-0.489268	-1.355674	0.431152
O	-0.579247	-2.167937	-0.48278
O	-0.638039	-1.59589	1.616952
N	-1.461482	0.339995	-2.230398
H	-1.708214	-0.623187	-2.429349
H	-2.127604	0.568913	-1.474679
F	-2.398685	0.0	0.0
