18

C	0.0	0.0	0.0
C	-0.342431	-0.343881	-1.482374
Cl	1.855252	0.0	0.0
H	0.370188	-1.126944	-1.771881
N	-0.456309	1.307627	0.365891
H	-0.189805	1.503219	1.324863
H	-1.476721	1.265162	0.341962
N	-0.458461	-1.024284	0.87062
H	-0.153217	-1.940131	0.565288
H	-0.158864	-0.868156	1.824539
N	-0.141715	0.781191	-2.386953
H	-0.936636	1.40169	-2.280395
H	0.66859	1.310521	-2.084592
C	-1.745394	-0.901298	-1.66002
H	-1.845246	-1.882334	-1.19586
H	-1.93602	-1.005781	-2.732161
H	-2.539033	-0.28855	-1.225516
Cl	-4.708776	0.0	0.0
