18

C	0.0	0.0	0.0
C	-0.316954	-0.246905	-1.527234
Cl	1.808619	0.0	0.0
H	0.447615	0.332357	-2.057986
N	-0.410311	1.294834	0.50121
H	-0.098263	2.031508	-0.123386
H	-1.430137	1.288111	0.517595
N	-0.516725	-1.047558	0.822313
H	-1.510728	-1.138696	0.605523
H	-0.455436	-0.73652	1.786762
N	-1.590309	0.222693	-2.02702
H	-2.380794	-0.189927	-1.535503
H	-1.682946	1.220162	-1.877575
C	-0.153253	-1.715842	-1.89783
H	-0.97302	-2.302346	-1.477716
H	0.784679	-2.128244	-1.524715
H	-0.191522	-1.8087	-2.985652
Cl	-4.02234	0.0	0.0
