18

C	0.0	0.0	0.0
C	-0.457566	0.082031	-1.46017
Cl	1.872577	0.0	0.0
H	-1.545152	-0.023546	-1.35755
N	-0.453101	1.111855	0.742454
H	-0.316602	0.934632	1.728693
H	-0.000778	1.970801	0.46858
N	-0.442866	-1.184507	0.667213
H	-1.460873	-1.07165	0.729512
H	-0.262707	-1.959467	0.035989
N	0.045663	-1.091339	-2.176303
H	0.988391	-0.910985	-2.502546
H	-0.542615	-1.255692	-2.98404
C	-0.157268	1.412417	-2.139117
H	0.917445	1.621147	-2.146487
H	-0.508054	1.377992	-3.174684
H	-0.686304	2.230692	-1.645372
Cl	-3.807124	0.0	0.0
