18

C	0.0	0.0	0.0
C	-0.337886	0.28527	-1.477998
Cl	1.881608	0.0	0.0
H	0.183289	-0.479912	-2.077273
N	-0.434247	0.983748	0.931381
H	-0.302473	1.892014	0.498231
H	-1.430366	0.829923	1.076397
N	-0.486409	-1.255875	0.402382
H	-0.237176	-1.454748	1.361294
H	-0.18468	-1.99833	-0.210132
N	0.126406	1.638386	-1.791619
H	1.118069	1.633497	-1.996298
H	-0.369354	1.974908	-2.608088
C	-1.831589	0.194025	-1.731999
H	-2.028065	0.36352	-2.798064
H	-2.247784	-0.770814	-1.454151
H	-2.397259	0.926778	-1.157929
Cl	-4.825688	0.0	0.0
