18

C	0.0	0.0	0.0
C	-0.378943	0.241262	-1.484656
Cl	1.871509	0.0	0.0
H	0.382243	-0.255122	-2.093726
N	-0.519095	1.02961	0.797304
H	-0.181692	1.926698	0.478819
H	-0.315557	0.866698	1.773439
N	-0.397684	-1.249685	0.581767
H	-1.413491	-1.23864	0.640928
H	-0.105085	-2.02151	-0.003087
N	-0.2891	1.68422	-1.748705
H	-0.025454	1.832518	-2.714353
H	-1.217667	2.077197	-1.628078
C	-1.747871	-0.333596	-1.829552
H	-1.995969	-0.044537	-2.855655
H	-2.545706	0.025101	-1.171745
H	-1.75392	-1.425344	-1.794186
Cl	-4.805394	0.0	0.0
