18

C	0.0	0.0	0.0
C	-0.408031	-0.015197	-1.482327
Cl	1.882592	0.0	0.0
H	-1.505251	-0.058947	-1.423904
N	-0.407127	1.129998	0.779691
H	-0.079356	1.990555	0.356405
H	-1.42751	1.102753	0.781407
N	-0.481699	-1.150584	0.60972
H	-0.329752	-1.971476	0.047597
H	-0.200848	-1.235569	1.573269
N	0.056044	-1.266991	-2.084476
H	1.030851	-1.167171	-2.350823
H	-0.483757	-1.452767	-2.920828
C	0.011583	1.229661	-2.254068
H	-0.351913	1.152907	-3.282575
H	-0.415332	2.140594	-1.827872
H	1.101023	1.328663	-2.279394
Cl	-3.828163	0.0	0.0
