16
Coordinates from ORCA-job run
  C   -0.49052825780952      0.24899481706187     -0.36281315790208
  C   0.93970240391629      0.26031750381970      0.16533285950135
  Cl  -0.49959986315430      0.09057612607356     -2.12734052781961
  H   0.88453473715628      0.50293638629625      1.23022635746706
  H   1.45372518303210      1.08481164391718     -0.33698372950012
  C   -1.28981384059336      1.47452004748936      0.03400533465085
  H   -1.31440746697941      1.56437849279395      1.11958030830035
  H   -0.81829631331769      2.35970683491496     -0.39495025714294
  H   -2.31024678884771      1.40558347898663     -0.34701864974844
  N   -1.16712588697748     -0.97792633766248      0.25659657656741
  O   -1.47836764882231     -1.93079746508410     -0.44176150513580
  O   -1.29799506517637     -0.90269399925846      1.47631010965126
  C   1.69629674532275     -1.04711487543699     -0.03492008797654
  H   2.72853590887860     -0.93180639849531      0.30109678878663
  H   1.71174065654068     -1.34502290056091     -1.08399808080592
  H   1.24984549683144     -1.85646335485519      0.54663766110656
