16
Coordinates from ORCA-job run
  C   -0.58136368545820      0.02514249701309     -0.35695883298851
  C   0.64522915200233     -0.79530665153913      0.01913962055398
  Cl  -0.53264991090887      0.45599158746210     -2.08892415668427
  H   0.70095458154162     -1.64125552018072     -0.66793080176785
  H   0.45732047545968     -1.20409029666978      1.01962337884807
  C   -0.78549208217730      1.27517767080830      0.46316945719135
  H   -1.72775464066043      1.75510639364309      0.20522934171786
  H   0.02912141065339      1.97035960607034      0.26233234985413
  H   -0.79835255923966      1.02919974242482      1.52646738338388
  N   -1.78576134765393     -0.91016664102685     -0.19277326649106
  O   -2.68510926801878     -0.55194621498572      0.56224308459673
  O   -1.74150007401746     -1.97090684955333     -0.80325923897491
  C   1.94651916440367     -0.00317990645761      0.01387012049294
  H   1.96183073911832      0.76106848895442      0.79252114354734
  H   2.78567008222262     -0.67688383923064      0.19783679462630
  H   2.11233796273300      0.47968993326761     -0.95058637790597
