16
Coordinates from ORCA-job run
  C   -0.49385281041701      0.25612889780293     -0.35335915652233
  C   0.94476929606216      0.25253013177931      0.15214126921229
  Cl  -0.53199412367446      0.11428296771014     -2.11873884795307
  H   1.45746880704548      1.07658115998718     -0.35221015239739
  H   0.90823673504511      0.48759861087333      1.21950798568480
  C   -1.27777763835841      1.48359677891690      0.06760034606181
  H   -0.80615543528609      2.36959095393705     -0.35963256038043
  H   -1.28536419264209      1.56273198092658      1.15427100276185
  H   -2.30430682586060      1.42616140187968     -0.29870900282521
  N   -1.16956489184595     -0.97153548999234      0.26549817927168
  O   -1.50069547620931     -1.91467937599661     -0.43696014986767
  O   -1.27856975483556     -0.90736877908152      1.48808317675875
  C   1.68711553877454     -1.05962061155225     -0.07007337665992
  H   2.72758536242959     -0.95390649582924      0.24290015015654
  H   1.67672699586396     -1.35326201630956     -1.12045472359842
  H   1.24737841390865     -1.86783011505158      0.51813586029671
