9
Coordinates from ORCA-job run
  C   -0.99139247860875     -0.16354509775370     -0.11387243760661
  C   0.34346847830955      0.54322922098115      0.05803328882482
  F   -0.94782687942518     -0.95317408698704     -1.24683679052783
  H   0.55425451135906      1.13983090090499     -0.83298175117304
  H   -1.21258491230643     -0.80510296376432      0.74114992306773
  H   -1.78809284360665      0.57305014867233     -0.24042757558264
  H   0.28953076760960      1.22652763090300      0.91106576542242
  C   1.44073648516272     -0.39935726339804      0.27078507452065
  N   2.31190687150607     -1.16245848955838      0.45408450305448
