9
Coordinates from ORCA-job run
  C   -0.95241259986560     -0.24285368290306     -0.11039480021160
  C   0.35289976216576      0.52032993958810      0.07547632084254
  F   -1.98571906087696      0.67695385940739     -0.14089052362501
  H   0.47864409598666      1.23043220396801     -0.74536879355721
  H   -0.95379723913397     -0.79412495483801     -1.05223963976661
  H   -1.12706334469519     -0.92998185908058      0.71922265194613
  H   0.31223895611406      1.09061704407103      1.00655973799696
  C   1.49160289210412     -0.39396440302594      0.11082302980021
  N   2.38260653820113     -1.15640814718694      0.13481201657460
