9
Coordinates from ORCA-job run
  C   -0.98290266728518     -0.14527281742809     -0.18510032890123
  C   0.35673996519849      0.53691054113302      0.04028281600298
  F   -1.29766956886566     -0.91021049266517      0.92154159017962
  H   0.57460861733869      1.20503439992730     -0.79855161431076
  H   -0.95104428574845     -0.80212038461800     -1.05629798946239
  H   -1.76532539376896      0.60561373437353     -0.31573111539259
  H   0.30422319201741      1.14621875057579      0.94602611816341
  C   1.44745738290752     -0.42749751548150      0.17747430637024
  N   2.31691275820612     -1.20867621581687      0.27135621735073
