10
Coordinates from ORCA-job run
  C   -1.03324473647812     -0.33050639263035      0.33572315034789
  C   0.08112422516174      0.56511993630168     -0.17147576572845
  F   -2.19273859352674      0.42884049370611      0.34178457975460
  H   -0.13970542776913      0.95926376294827     -1.16082932251631
  H   -1.18166955879858     -1.18510389175172     -0.32706206774715
  H   -0.83558229845495     -0.67690313805079      1.34783608814732
  H   0.26031505789228      1.38831137787550      0.52192554185644
  N   1.35790582556120     -0.19646841707527     -0.27796044804864
  O   1.59408092903498     -1.00638637126155      0.61763152955323
  O   2.09051457737732      0.05383263993814     -1.22957328561893
