10
Coordinates from ORCA-job run
  C   -1.02203485929905     -0.35556506053203      0.25868348675378
  C   0.08665021519855      0.61188807414223     -0.11825377070644
  F   -2.19468046499862      0.36843948926648      0.36845882080793
  H   0.22926729888312      1.36051602355920      0.65806856869903
  H   -0.81094472473073     -0.82684317379632      1.22019703855332
  H   -1.15067311798441     -1.11387541019207     -0.51565319005414
  H   -0.11151260296173      1.07255018916897     -1.08364068788417
  N   1.35187221544327     -0.16203303452128     -0.23783953316671
  O   1.60389883967330     -0.65226777364386     -1.33664318369449
  O   2.01815720077629     -0.30280932345132      0.78562245069189
