10
Coordinates from ORCA-job run
  C   -1.06281435598614     -0.22257705278596      0.37461694617288
  C   0.05898521462640      0.58172626397919     -0.22550336430011
  F   -1.31278899640020     -1.31974341137341     -0.43124439076364
  H   0.24798137618557      1.48238669226775      0.36265968762655
  H   -1.96934013372892      0.38539582754948      0.42169010951264
  H   -0.79481328287271     -0.57918332071592      1.36853235047861
  H   -0.13328493826022      0.83821415259021     -1.26511042906431
  N   1.33508982330833     -0.20176117853233     -0.21071572798357
  O   1.99337300201349     -0.22333895240105     -1.24560501736345
  O   1.63961229111441     -0.74011902057796      0.84967983568439
