17
Coordinates from ORCA-job run
  C   0.86923553690918      0.04622156309185     -0.12534425686370
  C   -0.66743827861276      0.13410875309666     -0.24673630082201
  Cl  1.43627221980939     -1.61811436155743     -0.48550813633536
  H   -0.92563670393887      1.19303833957179     -0.15826613062051
  C   1.50939023205028      0.95100386196292     -1.08321227032943
  N   2.00883698806605      1.70823474282096     -1.83026567518988
  C   1.32116408665525      0.41673702972847      1.28644100030989
  H   2.41045449479570      0.43953466450304      1.32483277202410
  H   0.96490694888168     -0.32186935287859      2.00359369592178
  H   0.93764883613528      1.40503727309572      1.55373896653284
  C   -1.43228620207527     -0.70596904401882      0.75365639507761
  H   -1.10930950905315     -1.74518858182319      0.72753165048451
  H   -1.30184280672718     -0.30458952966278      1.75909156694188
  H   -2.49622906267346     -0.67535837785879      0.51514027985396
  N   -1.07839759613965     -0.22400493235284     -1.65099931782988
  O   -1.44221247632718     -1.37741158832686     -1.86162871521386
  O   -1.00555670775529      0.67758954060788     -2.48406552394195
