17
Coordinates from ORCA-job run
  C   0.88712815262746      0.28168042188981     -0.30120611555190
  C   -0.62272314286307      0.13158798622727     -0.59098526007168
  Cl  1.78859256052353     -0.13718586437140     -1.79848916318929
  H   -0.86078125900009      0.76419359132921     -1.44743034867366
  C   1.11270385131597      1.70454747863126     -0.03487736855310
  N   1.26478267029580      2.84385553432267      0.21073134779618
  C   1.43789163263642     -0.54961321286208      0.85228715352195
  H   1.30314588320694     -1.61022804378685      0.65143932013772
  H   0.92850001692544     -0.29139281765175      1.78246417140356
  H   2.50103484299371     -0.33511933579178      0.96573833749999
  C   -1.50979881762828      0.44335776320698      0.60054962723070
  H   -1.31172243862600      1.45191456346968      0.96740643037767
  H   -2.55676505322242      0.39292159214483      0.29465968196883
  H   -1.35190397447084     -0.27520239032736      1.40363379591305
  N   -0.92241031907282     -1.26033986595748     -1.06834754156101
  O   -0.81437646536162     -2.17053495601759     -0.24856399103871
  O   -1.27429814028010     -1.38344244445540     -2.23801007721031
