17
Coordinates from ORCA-job run
  C   0.89922840311648      0.28113340840731     -0.26480284064106
  C   -0.59712535842141      0.13240325629796     -0.61757733340995
  Cl  1.86192989398299     -0.13261469263568     -1.72484946705211
  H   -0.79767369875545      0.76288185670709     -1.48513099077653
  C   1.11478843838766      1.70257268159705      0.01784134831260
  N   1.26011486634736      2.83906817275696      0.27985080835413
  C   1.40178606041742     -0.55454961581473      0.90765714461163
  H   1.27459122456007     -1.61444566343590      0.69856257513537
  H   2.45949064041128     -0.34099986127650      1.06491610992999
  H   0.85529701827926     -0.29839152618122      1.81709604754107
  C   -1.53393975282823      0.44926843775041      0.53396077048304
  H   -2.56710171317306      0.39075646687453      0.18537693912949
  H   -1.40616033462120     -0.26202921323834      1.34879651310755
  H   -1.35604110042797      1.46175844183401      0.90029557325930
  N   -0.87882419696817     -1.26055138995987     -1.10240394578055
  O   -1.17885529438294     -1.38775552707989     -2.28605461365611
  O   -0.81250509592410     -2.16750523260318     -0.27453463854784
