17
Coordinates from ORCA-job run
  C   0.89102187131246      0.28483406086345     -0.28942304336696
  C   -0.61556403488561      0.13931412210007     -0.59677296693089
  Cl  1.80736597870715     -0.11089501693159     -1.78362568644415
  H   -0.84355210450958      0.78007745774959     -1.44988720185674
  C   1.11453673432881      1.70281381566572      0.00357098192382
  N   1.26650323153902      2.83637917685179      0.27389247751981
  C   1.42981287919941     -0.56428309819540      0.85702314648332
  H   0.91343730955396     -0.31697617047807      1.78611639009678
  H   1.29452050705662     -1.62165257442176      0.64103118604709
  H   2.49237717416991     -0.35402531451573      0.98252906381043
  C   -1.51622141056486      0.44098800970634      0.58721722509764
  H   -2.55955827305354      0.38551798797055      0.27021857322544
  H   -1.32815180077340      1.44931050047287      0.95971541548208
  H   -1.36252018783177     -0.27978743594967      1.38896425207869
  N   -0.91229383749566     -1.24800122840345     -1.08965313030764
  O   -1.25011591966999     -1.36058083022034     -2.26456169752052
  O   -0.81959811708293     -2.16503346226436     -0.27535498533821
