17
Coordinates from ORCA-job run
  C   0.78146632229471      0.44907430758214     -0.05384842242489
  C   -0.62705311159354     -0.01018621481034     -0.48584708525549
  Cl  1.16548232390780      1.88986757334824     -1.06410340827637
  H   -0.61127149338212     -0.12987502761832     -1.57008155086448
  C   0.80397944012756      0.87488301817060      1.34515963895204
  N   0.84440576714020      1.21450814735428      2.46936945118893
  C   1.84327499785272     -0.61510348833796     -0.30823641303324
  H   2.83289605976983     -0.20097816845525     -0.11457342595124
  H   1.68662508420464     -1.46820979370969      0.35490482341509
  H   1.79142850885730     -0.94932224548157     -1.34593645081116
  C   -1.76086604045996      0.88019470804723     -0.02322569815759
  H   -1.62448199499918      1.88898255179730     -0.41380322621888
  H   -1.79864095335935      0.91757702632508      1.06547691437909
  H   -2.71076007093173      0.49161048652696     -0.39589016006090
  N   -0.83133897481819     -1.39911949266227      0.04652782732433
  O   -0.97110821758419     -1.51374187036667      1.26224765493116
  O   -0.81503764702653     -2.31916151770976     -0.76914046913639
