17
Coordinates from ORCA-job run
  C   0.86296135771815     -0.05951789983330     -0.12598613023068
  C   -0.65663440413079      0.16596310451134     -0.27499578110700
  Cl  1.25033927054218     -1.80771657933739     -0.25120302235166
  H   -0.80517644515452      1.24711666037448     -0.34750105078624
  C   1.59552276384422      0.63538862563539     -1.18773932079946
  N   2.23413901767946      1.22866871847485     -1.97584554360276
  C   1.35685529379489      0.45154473257008      1.22653924364766
  H   2.44262147041600      0.36529521696897      1.27258125506446
  H   1.08063587103897      1.50190782332233      1.35162664906157
  H   0.92727377722488     -0.14034341323362      2.03393922753749
  C   -1.50024903889453     -0.43345390025759      0.82928756235211
  H   -1.28631361232421     -1.49253634925188      0.96203180505811
  H   -1.32496013297625      0.09779763593994      1.76529401244461
  H   -2.55620543167746     -0.33029238560689      0.57678540893999
  N   -1.10274955192921     -0.35272408524347     -1.61768311659693
  O   -1.62954071260924     -1.46071369943822     -1.65655939712609
  O   -0.88851949256252      0.38261579440494     -2.57957180150520
