17
Coordinates from ORCA-job run
  C   0.88924137199562      0.28375074778821     -0.29363680174902
  C   -0.61772155086580      0.13402048272193     -0.59692000794888
  Cl  1.80311706974874     -0.12392122163390     -1.78648364030144
  H   -0.84812522185407      0.76812735574065     -1.45432728550630
  C   1.11239087901203      1.70444790259910     -0.01335214416927
  N   1.27015084309200      2.83874353443604      0.25068557873381
  C   1.43196653475083     -0.55476684619519      0.85871647104346
  H   0.91449246009575     -0.30343749273957      1.78621116802731
  H   2.49364689338432     -0.33885623027718      0.98243828206280
  H   1.30112457241531     -1.61427338678304      0.65009452568080
  C   -1.51598586141293      0.44289290861519      0.58696001390224
  H   -2.56013534067605      0.38742789551014      0.27237599200164
  H   -1.36156444399364     -0.27454203386775      1.39170552428010
  H   -1.32553714099681      1.45249967944878      0.95498175017026
  N   -0.91330153545186     -1.25717294739794     -1.07948263002035
  O   -1.25604520685768     -1.37824814520423     -2.25214886283189
  O   -0.81471432238577     -2.16869220276125     -0.25981793337526
