18
Coordinates from ORCA-job run
  C   0.67150380286260     -0.31243386487405     -0.39606161760829
  C   -0.63549876552253      0.16441681484094      0.28941926955547
  Cl  0.98205463376785      0.69531406173745     -1.84963105919068
  H   -0.80662898094861     -0.53859592909046      1.10902101293828
  N   0.56928184240403     -1.67975827773606     -0.85511575042079
  H   -0.19911348149794     -1.80380108465528     -1.50176947851314
  H   0.45608258101050     -2.30698463759633     -0.06666516970991
  C   1.87137731508744     -0.20250828914719      0.52806440304077
  H   2.09295995180046      0.83323684821764      0.78055550210830
  H   1.68260260783783     -0.74805730164681      1.45730778714443
  H   2.73078731287225     -0.63902933319946      0.01993058626576
  C   -1.85902137649663      0.27009550539202     -0.59644994866770
  H   -2.07571379809917     -0.69310789120264     -1.06115202237421
  H   -1.71442506594617      1.01976733625254     -1.37078161712464
  H   -2.72594403587472      0.55167965564475      0.00471007744772
  N   -0.41145545399681      1.47201407652879      0.99157860781137
  O   -0.56088931311102      2.50520921442329      0.34411121921215
  O   -0.06795977614935      1.41154309611084      2.17292819808512
