18
Coordinates from ORCA-job run
  C   0.61881840305267     -0.31845004650835     -0.31515613466939
  C   -0.64351076077629      0.21716003580250      0.38943540213155
  Cl  1.00306406273947      0.78906143283885     -1.73553288627887
  H   -0.73719354802615     -0.36923085889083      1.30628601465158
  N   0.32886394455426     -1.64932097982233     -0.73897449097709
  H   1.17281013247130     -2.10470746526333     -1.06490688731233
  H   -0.34591789966731     -1.66117291317086     -1.49344975284005
  C   1.84829847585162     -0.32794153453765      0.57487347753321
  H   1.65050025854233     -0.94086065132632      1.45675848202569
  H   2.12495976571927      0.67382971753480      0.89284341533417
  H   2.68710021000857     -0.75611297408909      0.02137843762709
  C   -1.91557620358843      0.14805550051398     -0.42935231344301
  H   -1.79629236570804      0.64807322215934     -1.38937689342714
  H   -2.73028929114236      0.63542738553047      0.10744972570353
  H   -2.19464994006397     -0.89554398441210     -0.58045462857230
  N   -0.41649642474636      1.62173686783520      0.87242255971864
  O   0.20732502990211      1.74250648914710      1.92752270360040
  O   -0.86081384912270      2.54649075665863      0.19823376919432
