18
Coordinates from ORCA-job run
  C   0.92275156422676      0.06055011494750     -0.06302249779756
  C   -0.44406032779608      0.68848764206816      0.31832292709605
  Cl  2.03305076320995      0.60078817122365      1.26868220734911
  H   -0.28361767240577      1.75680063957419      0.47223269130608
  N   1.46005458060712      0.55857363174598     -1.29527026926449
  H   1.06553361268479      0.07009681711076     -2.08908446942263
  H   1.31764369022354      1.55519362112172     -1.40319601191783
  C   0.92731039023936     -1.45545763701487     -0.08843483115913
  H   0.68244881073443     -1.87005203029718      0.88797711961688
  H   0.20075963010472     -1.82156625657375     -0.81726439831872
  H   1.92632597414281     -1.78936847259844     -0.36982845876805
  C   -1.17278555550357      0.06234201658597      1.48913093525259
  H   -1.45670298395913     -0.96500165643475      1.26661003223550
  H   -0.53403364833525      0.08019380762394      2.37213738451715
  H   -2.07980344564204      0.62946951070211      1.70961470067696
  N   -1.31437346101100      0.62880422499045     -0.90343838635448
  O   -1.83421700593905     -0.45037852890320     -1.18578084398304
  O   -1.41628491558159      1.65952438412776     -1.56838783106439
