14
Coordinates from ORCA-job run
  C   -0.72630032197680     -0.06130564210099      0.24743535393044
  C   0.64300334393232     -0.02079710973072      0.90390886136083
  Cl  -1.99567635722626      0.31852060672416      1.43568425595386
  H   0.64805715378185     -0.83391919629056      1.63183205884284
  H   0.75870222195364      0.92553465543148      1.43525924619808
  N   -0.96603031573420     -1.29602990121927     -0.36678037478449
  H   -0.14869294262686     -1.52925051306890     -0.92159395656466
  H   -1.79820702987728     -1.27042325825924     -0.94156110188840
  N   -0.80255229902927      1.12109435809957     -0.77363880910131
  O   -1.57572879069713      0.97643097655899     -1.71225428812173
  O   -0.09875170730977      2.10430741217653     -0.56415683831198
  N   1.64518849127583     -0.26488537926126     -0.12717318391697
  H   1.98823351199254      0.61344522516691     -0.49334466310372
  H   2.42875504154138     -0.78072223422668      0.24738343950719
