14
Coordinates from ORCA-job run
  C   -0.65888502529542     -0.01216225147834      0.11004109371266
  C   0.63084740048792      0.06036807372901      0.90300471644418
  Cl  -2.05941228841405      0.29331186199953      1.24076969342089
  H   0.60492546319319     -0.75712578952328      1.63980254216028
  H   0.65194714480444      1.00293060309327      1.44750361556823
  N   -0.75394625051047     -1.20913444032250     -0.61997373646212
  H   -0.91591983579717     -1.99159946969446      0.00023048431963
  H   -1.47602784966187     -1.15966591602090     -1.32707017938110
  N   -0.70379197700478      1.15844750264748     -0.87321994617008
  O   -1.14613114155874      0.92682160792096     -1.99224815148091
  O   -0.33405673640491      2.24008972596748     -0.44689469046877
  N   1.72526766099368      0.02393272510551     -0.04699613094373
  H   1.84826203978148     -0.90798820371447     -0.41672245534547
  H   2.58592139538671      0.33377397029071      0.38177314462631
