14
Coordinates from ORCA-job run
  C   -0.66369264972128     -0.02104143333781      0.15080233409664
  C   0.79044436289809     -0.47781390622018      0.22042394790522
  Cl  -1.18758551432290      0.52036059146318      1.74738406087658
  H   1.04074292951401     -0.86188187188977     -0.77120565312572
  H   0.82658545811013     -1.31506692107219      0.93292217779298
  N   -1.61537603195083     -0.96658345395338     -0.35054257555514
  H   -1.29225364195494     -1.33916023122906     -1.23524267270916
  H   -1.75631587493363     -1.71433536156766      0.31546211418624
  N   -0.69007767695441      1.15193642739880     -0.83750390808088
  O   -0.41883956199907      0.80156478126024     -1.98333041422283
  O   -0.95132200061733      2.27929408130904     -0.46271603748598
  N   1.66068797425644      0.64198159906152      0.51807468070958
  H   2.61316359914091      0.43737713739596      0.25068013941987
  H   1.64383862853482      0.86236856138131      1.50479180619258
