13

C	-0.476781	-0.141392	-1.441093
C	0.0	0.0	0.0
Cl	-0.375946	1.418266	-2.325757
H	1.089516	0.0	0.0
H	0.17497	-0.835897	-1.965524
H	-1.510263	-0.479346	-1.511934
N	-0.360384	-1.264471	0.699704
O	-0.53904	-2.274556	-0.005962
O	-0.322617	-1.283957	1.928171
N	-0.4457	1.131606	0.747123
H	-1.113771	1.689952	0.237063
H	0.365039	1.701247	0.964345
H	2.629989	0.0	0.0
