13

C	-0.525446	-0.023543	-1.419429
C	0.0	0.0	0.0
Cl	-0.269489	1.560277	-2.225784
H	1.09868	0.0	0.0
H	-1.596908	-0.220119	-1.442407
H	0.018862	-0.761757	-2.000581
N	-0.352612	-1.259468	0.643085
O	-0.375653	-1.288423	1.8801
O	-0.461045	-2.26787	-0.072364
N	-0.543352	1.101691	0.78626
H	-0.088686	1.936909	0.425275
H	-0.16664	0.970397	1.720185
H	2.619673	0.0	0.0
