13

C	-0.49149	-0.110193	-1.439002
C	0.0	0.0	0.0
Cl	-0.236888	1.419012	-2.33983
H	1.089504	0.0	0.0
H	0.077069	-0.89478	-1.942213
H	-1.563844	-0.334614	-1.474402
N	-0.483751	-1.290186	0.604996
O	-1.545874	-1.286527	1.237181
O	0.179815	-2.298671	0.364724
N	-0.440993	1.112401	0.772935
H	0.343275	1.748857	0.851729
H	-1.251053	1.585395	0.389433
H	2.765661	0.0	0.0
