15

C	0.0	0.0	0.0
C	-0.510761	-0.289516	-1.412817
Br	1.952861	0.0	0.0
H	-1.60309	-0.177499	-1.327655
H	-0.268373	-0.850302	0.636472
N	-0.490671	1.27409	0.436655
H	-1.511839	1.210015	0.359527
H	-0.271725	1.399075	1.418772
C	-0.211916	-1.710123	-1.890149
H	0.862573	-1.888118	-1.973509
H	-0.673161	-1.879963	-2.864462
H	-0.643362	-2.422921	-1.182929
C	-0.023241	0.698648	-2.374063
N	0.339291	1.441729	-3.207868
Cl	-3.554803	0.0	0.0
