15

C	0.0	0.0	0.0
C	-0.320332	-0.396673	-1.475266
Br	1.967457	0.0	0.0
H	0.256039	0.29012	-2.108627
H	-0.298173	-0.802118	0.676319
N	-0.554643	1.224791	0.459513
H	-0.486739	1.945808	-0.249205
H	-1.539644	1.074919	0.677964
C	-1.794383	-0.310351	-1.857046
H	-1.908635	-0.584956	-2.909256
H	-2.180369	0.697513	-1.716294
H	-2.427023	-0.954125	-1.250407
C	0.179336	-1.747059	-1.750344
N	0.529059	-2.845746	-1.974328
Cl	-4.445058	0.0	0.0
