15

C	0.0	0.0	0.0
C	-0.385881	0.188386	-1.526047
Br	1.960591	0.0	0.0
H	0.536539	0.171492	-2.112307
H	-0.287213	-1.001912	0.316118
N	-0.512239	0.922155	0.954323
H	-0.374175	1.873892	0.636115
H	-1.522276	0.743119	0.998211
C	-1.089405	1.510634	-1.826803
H	-2.032296	1.55919	-1.28654
H	-1.29349	1.57727	-2.898552
H	-0.440351	2.349351	-1.557047
C	-1.128256	-0.974817	-2.019104
N	-1.563828	-1.951502	-2.506593
Cl	-3.524885	0.0	0.0
