15

C	0.0	0.0	0.0
C	-0.380975	0.09516	-1.535
Br	1.963476	0.0	0.0
H	0.541207	0.004528	-2.114873
H	-0.285906	-0.981089	0.376469
N	-0.508133	0.979435	0.896315
H	-0.368118	1.909394	0.520044
H	-1.518727	0.805263	0.94962
C	-1.027221	1.423069	-1.923883
H	-0.335982	2.245477	-1.713785
H	-1.23362	1.42719	-2.996997
H	-1.96345	1.554423	-1.384909
C	-1.168758	-1.063705	-1.969254
N	-1.657823	-2.009749	-2.464575
Cl	-3.485201	0.0	0.0
