15

C	0.0	0.0	0.0
C	-0.348802	0.13029	-1.537197
Br	2.031948	0.0	0.0
H	0.584971	0.09681	-2.104026
H	-0.261242	-0.996174	0.354421
N	-0.511531	0.9544	0.905872
H	-0.433133	1.887039	0.521335
H	-1.511027	0.737288	1.00215
C	-1.056798	1.434992	-1.901047
H	-0.412236	2.286844	-1.660682
H	-2.006666	1.501641	-1.373001
H	-1.244122	1.456308	-2.978357
C	-1.081828	-1.052025	-2.000355
N	-1.526462	-2.039402	-2.455364
Cl	-3.512844	0.0	0.0
