16

C	-0.501664	-0.052091	-1.425987
C	0.0	0.0	0.0
F	-0.053311	1.090542	-2.103055
H	1.093966	0.0	0.0
H	-0.368925	0.94552	0.418701
C	0.043848	-1.222373	-2.153536
N	0.383746	-2.170872	-2.756906
C	-2.017495	-0.061822	-1.581757
H	-2.426223	0.795606	-1.041668
H	-2.446893	-0.978598	-1.175046
H	-2.286182	0.019202	-2.638013
C	-0.465093	-1.188068	0.835849
H	-1.548373	-1.235165	1.004779
H	0.030085	-1.138283	1.808577
H	-0.145545	-2.1279	0.37392
F	2.670669	0.0	0.0
