16

C	-0.247838	0.071189	-1.502464
C	0.0	0.0	0.0
F	-0.054593	-1.216548	-2.032003
H	1.09477	0.0	0.0
H	-0.429792	-0.933933	0.374184
C	-1.639382	0.434787	-1.85852
N	-2.742468	0.74388	-2.122257
C	0.778537	0.986704	-2.153722
H	0.556284	2.033325	-1.930332
H	1.74231	0.716455	-1.69592
H	0.773254	0.845698	-3.237666
C	-0.511197	1.215557	0.761607
H	-0.312787	1.082624	1.828109
H	-1.584994	1.39722	0.635401
H	0.031534	2.112356	0.452707
F	2.738333	0.0	0.0
