16

C	-0.263903	-0.085907	-1.490668
C	0.0	0.0	0.0
F	-1.578513	-0.539524	-1.778837
H	1.094819	0.0	0.0
H	-0.332616	-0.960937	0.413391
C	-0.181359	1.247012	-2.12548
N	-0.144307	2.309016	-2.625921
C	0.754011	-1.025065	-2.115466
H	0.543099	-2.035521	-1.753647
H	1.737542	-0.722789	-1.726113
H	0.703451	-1.014789	-3.206953
C	-0.648282	1.168551	0.71956
H	-1.730684	1.216814	0.552344
H	-0.475052	1.085664	1.796086
H	-0.208043	2.113806	0.393259
F	2.737034	0.0	0.0
