15

C	0.0	0.0	0.0
C	-0.547513	2.2e-05	-1.417494
Br	2.003357	0.0	0.0
H	-1.619421	0.267205	-1.334675
H	-0.275711	-0.941685	0.466666
N	-0.499185	1.089546	0.709659
H	-0.271421	1.986441	0.311237
H	-0.346206	1.042419	1.702706
N	-0.486815	-1.327964	-2.096149
O	-1.033636	-1.373394	-3.192691
O	0.066528	-2.262189	-1.522841
N	0.179799	0.987494	-2.277805
O	0.902568	0.584356	-3.180009
O	0.018958	2.163326	-1.956305
Cl	-3.513725	0.0	0.0
