15

C	0.0	0.0	0.0
C	-0.192749	-0.070313	-1.540336
Br	1.947458	0.0	0.0
H	0.441221	0.684502	-1.996294
H	-0.313068	-0.935949	0.464665
N	-0.533472	1.215462	0.514931
H	-0.373292	1.231683	1.51614
H	-1.553676	1.12858	0.385573
N	-1.531274	0.175448	-2.218293
O	-2.109297	-0.780561	-2.7102
O	-1.819709	1.358168	-2.325065
N	0.272264	-1.390036	-2.076454
O	0.793305	-1.357099	-3.189741
O	0.074787	-2.394038	-1.402743
Cl	-3.461376	0.0	0.0
