16

C	0.0	0.0	0.0
C	-0.49347	-0.071269	-1.451766
Cl	1.786964	0.0	0.0
H	-1.580492	-0.201362	-1.311381
N	-0.579268	1.15325	0.61683
H	-1.615608	0.954201	0.518135
H	-0.359837	1.149208	1.608781
C	-0.336806	-1.272228	0.685543
N	-0.513341	-2.23411	1.338042
N	0.049975	-1.238673	-2.114016
H	0.922845	-0.96598	-2.553466
H	-0.590433	-1.534274	-2.839793
N	-0.146059	1.182153	-2.128461
H	-0.884914	1.380285	-2.796043
H	-0.187806	1.918308	-1.428078
H	-3.031278	0.0	0.0
