10
Coordinates from ORCA-job run
  C   -1.30739086975575     -0.64248168003934      0.05731957091260
  C   -0.21459031290893      0.13597837270852     -0.03222700647466
  H   -1.21152618081202     -1.70641905242388      0.24549642294692
  H   -2.30524629997361     -0.23463699131750     -0.05461313013051
  C   1.19929548418615     -0.35779948372028      0.11165137460667
  H   1.20974323828650     -1.43246414583091      0.29885564842303
  H   1.77287964931174     -0.15223058108227     -0.79544105541714
  H   1.70135255236581      0.14831021835611      0.93984705764745
  C   -0.37411872114704      1.54376285613059     -0.28272222410754
  N   -0.47039853955286      2.69798048721897     -0.48716665840683
