10
Coordinates from ORCA-job run
  C   -1.25748321045616     -0.73626656770736      0.04197672734155
  C   -0.21826376292333      0.10847959930994     -0.07871080246202
  H   -2.26086483264740     -0.44696755832415     -0.24843038979504
  H   -1.11106308186577     -1.73635666553546      0.43567415494277
  C   1.19948533620169     -0.22298894975578      0.30048974562310
  H   1.56467045614017      0.46624804522847      1.06571079050145
  H   1.85986943940824     -0.13271914075862     -0.56545616660223
  H   1.26221929784723     -1.24163931123371      0.68579319745396
  C   -0.44342974470491      1.42840592280478     -0.60501688251832
  N   -0.59413956809975      2.51380454331603     -1.03202964361065
