13
Coordinates from ORCA-job run
  C   0.70134283004458     -0.80996384448044     -0.01823503159614
  C   -0.68715937929501     -0.39976080145145     -0.45544265955027
  Cl  1.41045216816296     -2.01210670916595     -1.09996651786133
  H   -1.31276866503501     -1.29606664953558     -0.43280452998809
  H   0.73396639295502     -1.20292665346725      0.99597365173389
  H   -0.62863051481472     -0.06315825963219     -1.49309539889420
  N   1.57880249582379      0.41649822177240      0.00789506328028
  O   1.76198928003423      0.99756406922866     -1.05391103963836
  O   1.98371825190080      0.76643785107160      1.11410969222031
  C   -1.26836374883615      0.69041492721938      0.44054693122884
  H   -2.30319217148339      0.89217631832525      0.15884390345028
  H   -1.25729192321105      0.39464165708291      1.49234425607163
  H   -0.71286501624606      1.62524987303264      0.34474167954316
