13
Coordinates from ORCA-job run
  C   0.70280851121625     -0.01991476845088     -0.50736269036910
  C   -0.39455628735465      0.00490010161714      0.53473668400034
  Cl  0.94334356898891      1.55423482812206     -1.27382625845537
  H   -0.15019909330388      0.77915343962850      1.26532175980154
  H   0.53202786209085     -0.75552400794127     -1.29102190687358
  H   -0.36393756610674     -0.96054765232785      1.05262643996682
  N   1.99119357284088     -0.44396570746017      0.15357368653340
  O   2.43014917991826      0.27616293948789      1.04097553671100
  O   2.46454707870169     -1.51321742295102     -0.22404470249084
  C   -1.77301484101233      0.22852101648605     -0.07510896299990
  H   -1.83927114644096      1.20232097205824     -0.56134123347625
  H   -2.00661419732894     -0.54078988661615     -0.81523241734868
  H   -2.53847664220934      0.18766614834745      0.70170406500061
