13
Coordinates from ORCA-job run
  C   0.73961553504807     -0.79227205866800     -0.24357991705331
  C   -0.56370731061421     -0.53819168063925      0.49633703204966
  Cl  0.49536699796382     -1.22863911511688     -1.93018279785763
  H   -0.31437597181936     -0.44288605444747      1.55694210087706
  H   1.32746228027385     -1.57777585528963      0.22812631963955
  H   -1.17759686780320     -1.43535800110186      0.38147448161294
  N   1.59179486710815      0.45520284300494     -0.12094782597470
  O   1.67574982212048      1.23218813943558     -1.06005337395645
  O   2.08166453913902      0.59972499216234      0.99620035235681
  C   -1.31482668023175      0.69587710196029      0.01103319467515
  H   -1.51023030821805      0.65033034586500     -1.06100959916029
  H   -2.27317967434889      0.77129380761802      0.52772483565883
  H   -0.75573722861790      1.61050553521692      0.21693519713239
