13
Coordinates from ORCA-job run
  C   0.70054632012470     -0.80939109307731     -0.05421559711683
  C   -0.69558100855365     -0.38649113781546     -0.45345535187741
  Cl  1.38828604302425     -1.98048343833129     -1.18252844061092
  H   -1.32137591389970     -1.28296041892637     -0.44342731292573
  H   0.75208456698324     -1.23035145720091      0.94792941085377
  H   -0.65696463290483     -0.02153747986628     -1.48236890722332
  N   1.57906163404083      0.41577363347917     -0.00994641591964
  O   1.74202278712042      1.02689118783886     -1.05823872770851
  O   2.00497190218323      0.73433534214346      1.09783548066958
  C   -1.25903326955168      0.67853778086030      0.48318604421874
  H   -0.70476194142591      1.61552544708376      0.40258931886937
  H   -2.29882251790126      0.88809861134218      0.22656392491003
  H   -1.22843396923964      0.35405302246990      1.52607657386088
