12
Coordinates from ORCA-job run
  C   -0.50873813027570     -0.12274682507645      0.07052809255709
  C   0.65184601571699     -0.45329097691243     -0.53928204969748
  H   0.74981596451021     -1.41885546220833     -1.03292178135835
  N   -0.77438568026065      1.17483306402267      0.51865440785296
  H   0.06343221709888      1.73130960405536      0.39171602710789
  H   -1.07748840859062      1.19517703186969      1.48406085645996
  N   -1.57994343897231     -1.01567648510435      0.19327562487579
  H   -2.38287966908920     -0.62752330793588      0.66010681466825
  H   -1.32643217949538     -1.92602563415110      0.53835790127355
  N   1.70622154666766      0.52229748538544     -0.57956987391947
  H   2.55659940427858      0.15698822082173     -0.16888171724678
  H   1.91995235841155      0.78151328523366     -1.53504430257343
