12
Coordinates from ORCA-job run
  C   -0.50479641150647     -0.14679148507119      0.04645249789454
  C   0.72845295946137     -0.48855758559058     -0.38996482409108
  H   0.93415979007235     -1.51538481643523     -0.68808667966186
  N   -0.89121187440868      1.18493558992786      0.22762897523008
  H   -0.07903645571507      1.77259074567716      0.07642541713709
  H   -1.28882308490119      1.34934172827534      1.14373347585496
  N   -1.52823728044736     -1.08300435577433      0.23308832491192
  H   -1.25749937778755     -1.90163058295410      0.75120246799430
  H   -2.39572285535740     -0.68342270124691      0.55067370942416
  N   1.72168929951810      0.54276754008288     -0.51117125711648
  H   2.54562965446569      0.32216457460565      0.03440402675442
  H   2.01639563660621      0.64799134850346     -1.47438613433206
