12
Coordinates from ORCA-job run
  C   -0.41077112827387      0.13348719814796      0.05394618208639
  C   0.79316566539748      0.38721062876774     -0.49454822559257
  H   0.98184168210823      1.32287951583908     -1.01191007622188
  N   -1.58716813279999      0.89733781644885     -0.16470392034555
  H   -1.89069186797837      1.37921047369514      0.67440711408273
  H   -1.46262201458820      1.56849515530560     -0.91080926208858
  N   -0.58336238462070     -1.04609354194850      0.82588939771062
  H   -0.22405064683162     -0.95530446644500      1.76740424327274
  H   -1.55821395039057     -1.31166478104898      0.84631394815170
  N   1.90407977774397     -0.46870279036837     -0.32824321046744
  H   2.46870646508043     -0.51107032974316     -1.16588872427993
  H   1.56908653515322     -1.39678487865038     -0.09085746630824
