12
Coordinates from ORCA-job run
  C   -0.43806098633569     -0.14964595268814      0.12742012127321
  C   0.62800610396054     -0.53350087343148     -0.60950306094344
  H   0.58406768065053     -1.47737594674084     -1.14704914311191
  N   -0.45166197954133      0.93975591319374      1.00633501492301
  H   0.41190364723682      1.46011393386796      0.98753313868124
  H   -1.25226435699774      1.53856793659201      0.85762043613547
  N   -1.68673880305128     -0.79224956080624      0.09709725029371
  H   -1.68339460694885     -1.60266036640052     -0.50559325333450
  H   -1.99832937013044     -1.03565357130800      1.02838785817455
  N   1.80948630579914      0.24850176180485     -0.80739578048049
  H   1.60497514108816      1.22176891391235     -0.98858963677242
  H   2.47301122427014      0.18037781200431     -0.04726294483842
