12
Coordinates from ORCA-job run
  C   -0.41821987984775      0.22957494633455      0.05425295109344
  C   0.68051290752782      0.22379306542959     -0.73293388059578
  H   0.73930321869754      0.92682694314984     -1.56002083915947
  N   -1.58785282502224      0.95190277948698     -0.23428174713134
  H   -1.49719194788218      1.50306111995092     -1.07571908230592
  H   -1.86620078345441      1.52981795725816      0.54813209696354
  N   -0.54880208651919     -0.48691078024689      1.24969315489661
  H   -1.41168858376764     -1.01203037523315      1.28617340845192
  H   0.25146382666767     -1.07098116536073      1.43759191600391
  N   1.76683679439030     -0.69941041269838     -0.61388301301605
  H   1.45458701362830     -1.64862666492357     -0.46094624387067
  H   2.43725234558179     -0.44701741314731      0.09994127866981
