12
Coordinates from ORCA-job run
  C   -0.40964341672867     -0.18776870245599      0.27476608262416
  C   0.70955847059264     -0.49005625593643     -0.42100857210759
  H   0.90540137746420     -1.52088228787097     -0.71190018374195
  N   -1.40017567422008     -1.13343482844369      0.56371985752491
  H   -1.69088973219647     -1.68783725881210     -0.22374043011952
  H   -2.17286442940603     -0.76719551244783      1.09471808999760
  N   -0.60668041901044      1.06414400385405      0.86598306698476
  H   -1.49853569347754      1.47216513992000      0.61611917078741
  H   0.15722958259350      1.66933303200477      0.58692428332038
  N   1.64844690872191      0.56169318694684     -0.69865965543349
  H   2.53943820696565      0.37519560539170     -0.25462415875335
  H   1.81871481870131      0.64464387784967     -1.69329755108332
