12
Coordinates from ORCA-job run
  C   -0.48861666439777      0.19996571451621      0.01387597998275
  C   0.73453614542055      0.26028593248524     -0.55933206051270
  H   0.99503621576809      1.10488931671058     -1.19523207030805
  N   -1.42509845150242      1.23498553006246     -0.08903585926371
  H   -1.05807400326483      2.15104410699442      0.10622034994271
  H   -2.29375366241035      1.04944759086615      0.38438334576561
  N   -0.95904827155862     -0.95291878727910      0.65022875023481
  H   -1.30775536075568     -0.76477349284818      1.58150297598026
  H   -0.20439795362891     -1.62929114130050      0.67732103369751
  N   1.63766785491133     -0.84018999613901     -0.36361804834416
  H   2.51201369252574     -0.52651044551728      0.03929006973957
  H   1.85549045889286     -1.28793432855098     -1.24560446691460
