12
Coordinates from ORCA-job run
  C   -0.50601234330893     -0.13168834403392      0.07401708295698
  C   0.69028486886593     -0.50698920146574     -0.43227446745309
  H   0.84728123936692     -1.53731982626906     -0.74748037100594
  N   -0.84011338834010      1.20974503292943      0.28454630505709
  H   -0.01959426841588      1.77360588178096      0.09344649098291
  H   -1.18370531524128      1.37953900118239      1.22123230001342
  N   -1.54600301872501     -1.03784666869937      0.31098944259916
  H   -2.37933645150199     -0.61550840487319      0.68555438042635
  H   -1.27034260007343     -1.87001063182076      0.80445719758553
  N   1.70608125172282      0.49485617674637     -0.60392002592771
  H   2.55305585513109      0.24314952471184     -0.10946195071792
  H   1.94740417051986      0.59846745981105     -1.58210638451677
