12
Coordinates from ORCA-job run
  C   -0.38018704231184      0.29519907256807      0.21674882187715
  C   0.78941867131964      0.29081033346800     -0.46171727629448
  H   1.15785469428163      1.20999683255013     -0.91438430915696
  N   -0.79162010215141     -0.78524755768063      1.00326632341565
  H   -1.73192412933130     -1.08755466729543      0.78254699309773
  H   -0.12958676147356     -1.54176550840778      0.87256384785061
  N   -1.21027012718701      1.41978945792563      0.28737765918369
  H   -2.04513447131907      1.27910933877491      0.83168670239484
  H   -1.38684457502553      1.86501406545136     -0.59722896778077
  N   1.55134551816454     -0.92679700943209     -0.50511310471189
  H   1.72837924323157     -1.21190150916656     -1.46040531661782
  H   2.45056908180235     -0.80465284875560     -0.05534137325774
