12
Coordinates from ORCA-job run
  C   -0.50632086577138      0.14930563357691     -0.00884663666554
  C   0.68973250071592      0.19387998405017     -0.63797763594991
  H   0.84435818829697      0.88917961037819     -1.46151336998306
  N   -1.54887782469324      1.03616378931394     -0.30080197470921
  H   -2.38228264394250      0.88154578592784      0.24197125349309
  H   -1.27634349151666      2.00379649649136     -0.33755168952622
  N   -0.83751082374450     -0.86475279004811      0.89516789145367
  H   -1.18181725690838     -0.50081385020352      1.77453175377053
  H   -0.01548871050175     -1.44005641268031      1.04006917001365
  N   1.70848526795342     -0.73774006251171     -0.23896724107568
  H   2.55371859233797     -0.25553423669205      0.04078585547453
  H   1.95234706777412     -1.35397394760271     -1.00486737629584
