12
Coordinates from ORCA-job run
  C   -0.32767052364759      0.23835942535698      0.02177100270366
  C   0.88360749227773      0.32142973431492     -0.55991117475571
  H   1.12094748130595      1.19761209526516     -1.15337011685790
  N   -0.59543531096435     -0.90246103347889      0.85418980769520
  H   -0.46252753918133     -0.68468586734182      1.83615812206771
  H   -1.54936460501752     -1.21963222546590      0.73244028177215
  N   -1.28274339001320      1.28276018375630     -0.18669634850120
  H   -2.09040696644157      0.94270921460381     -0.69634955204965
  H   -1.61160170366554      1.65129093802512      0.69868811192012
  N   1.90613413168090     -0.60515348992871     -0.36282306012563
  H   2.48108020089765     -0.74752054620943     -1.17923676572927
  H   1.52798073276888     -1.47270842889756     -0.00286030813950
