12
Coordinates from ORCA-job run
  C   -0.40568665763360      0.29120797597506      0.17150281974663
  C   0.82200247659901      0.29768540715402     -0.39516074118033
  H   1.21003140308267      1.21305547896368     -0.83913706953500
  N   -1.26454252481069      1.39535348867762      0.13083531790558
  H   -2.14342072086813      1.24808451354575      0.59872831961334
  H   -1.36705184129956      1.81238676011841     -0.77881910150430
  N   -0.86389623015410     -0.77722151935732      0.94865616694701
  H   -0.17496855931158     -1.51950234822171      0.90284670399818
  H   -1.77212121905949     -1.10975175338863      0.65066674880429
  N   1.61254345421448     -0.90053618660004     -0.33048011871634
  H   1.88417247241930     -1.20830803525907     -1.25606033662772
  H   2.46293794682168     -0.74245378160776      0.19642129054866
