12
Coordinates from ORCA-job run
  C   -0.38366323868771     -0.25214909997588      0.17772199837788
  C   0.70777891439102     -0.52440604948857     -0.56632441217683
  H   0.78283523546077     -1.50943383299368     -1.01561075276856
  N   -0.53860495533728      0.87828216576213      1.01804607399246
  H   0.32977181700271      1.36320327994794      1.19338638262106
  H   -1.25063132107503      1.52557137305073      0.70304323880280
  N   -1.46348863675819     -1.16859983966969      0.20574715951099
  H   -2.05742308083477     -1.11400241348235     -0.60801104463325
  H   -2.00498072451039     -1.05089595613824      1.05029762201120
  N   1.72091142311965      0.39630656138942     -0.93167335233415
  H   2.63914269056582      0.12025138381198     -0.61081931975788
  H   1.51935187666339      1.33487242778619     -0.61780359364573
