12
Coordinates from ORCA-job run
  C   -0.43252981134164      0.19997997714832      0.02932340339908
  C   0.65649297356091      0.19119655899765     -0.77309004922525
  H   0.67059335186532      0.83199720920354     -1.65069050974395
  N   -0.64801389078226     -0.68453906755526      1.09358897681919
  H   0.15531314472889     -1.27200632273707      1.26114466061284
  H   -0.92499892421314     -0.19368231440153      1.93333348450146
  N   -1.49608081142213      1.10416268104906     -0.09909515916453
  H   -1.38171914553231      1.73578678068101     -0.87758221184433
  H   -2.38925096359502      0.63240880747305     -0.13152309060408
  N   1.84178175129406     -0.57636808715949     -0.52730540792349
  H   2.24236169009808     -0.39740404538176      0.38379894021705
  H   1.70805063533925     -1.57153217731753     -0.64390303704401
