12
Coordinates from ORCA-job run
  C   -0.40118465682476      0.28323316519883      0.19374249831011
  C   0.79276426200977      0.31369025632621     -0.44019096621061
  H   1.13770326457101      1.23719912238492     -0.90249219027273
  N   -1.28249219956814      1.37091897166680      0.19932863057709
  H   -1.44666961520985      1.77834418511248     -0.70570343781196
  H   -2.13037236825618      1.20675535065308      0.71642958204467
  N   -0.79433537360934     -0.79303444604831      0.99495349619176
  H   -1.71097484517190     -1.14411415601068      0.74861221760597
  H   -0.09417148998270     -1.52135592171078      0.91118426070319
  N   1.61006403786142     -0.86780795741724     -0.41868899990022
  H   1.83572160716167     -1.17257658451055     -1.35746046338311
  H   2.48494737701900     -0.69225198564477      0.06028537214584
