12
Coordinates from ORCA-job run
  C   -0.37112628865299      0.33860566525449      0.16268173867404
  C   0.72634115781824      0.15903971132134     -0.60640390929741
  H   1.00461871565066      0.91369600356218     -1.34032426978881
  N   -0.65251043830855     -0.47586692331952      1.26414626153545
  H   0.02891329540924     -1.22620843957108      1.28429218504693
  H   -1.59426224345747     -0.84576488504276      1.23956269448073
  N   -1.24268495918381      1.42098754738421     -0.00236917546836
  H   -2.01214369409217      1.43000968746849      0.64640455108832
  H   -1.52637204502262      1.58850916479860     -0.95282054172664
  N   1.53696533839494     -1.00598131387240     -0.38226816357887
  H   1.63337863501556     -1.55162493173424     -1.22969675234309
  H   2.46888252642898     -0.74440128624932     -0.08420461862230
