12
Coordinates from ORCA-job run
  C   -0.44589339782717      0.23290118265665      0.16790776305815
  C   0.62608152380965      0.17275075287228     -0.65296387353032
  H   0.79171684434221      0.95224216535420     -1.39645582133604
  N   -0.61826911747691     -0.62944743773632      1.25011196930560
  H   -1.55753936120930     -1.00311799272926      1.27927016187779
  H   0.07906692173192     -1.36231916956016      1.19894072362087
  N   -1.49742863937305      1.15005050627838      0.03636959413366
  H   -1.70185966718424      1.60451867140714      0.91649043953346
  H   -1.32548327434216      1.83163779080493     -0.68856074858005
  N   1.54274655952779     -0.92214046875781     -0.50459186734887
  H   2.46161959761572     -0.59411382795823     -0.23407530482902
  H   1.64424201038553     -1.43196217263181     -1.37344303590522
