12
Coordinates from ORCA-job run
  C   -0.45262974668257      0.23926795828171      0.13782571820286
  C   0.68723237244015      0.18024998069013     -0.58575468318476
  H   0.91557331195263      0.95877055495124     -1.31340494108896
  N   -0.88697934808958     -0.80678268313930      0.95090669802517
  H   -1.17726819323642     -0.47291124280501      1.86026859230450
  H   -0.14787768179842     -1.49598868600366      1.01984726807026
  N   -1.32302991517913      1.33771261349711      0.16071970600231
  H   -2.28142962488731      1.04957962194683      0.01425848778570
  H   -1.05797817560504      2.05220655726320     -0.50177181050783
  N   1.56942329464993     -0.93469968760938     -0.38546824951977
  H   2.49733368961756     -0.62255455841082     -0.12722120466965
  H   1.65763001681820     -1.48585042866204     -1.23020558141982
