12
Coordinates from ORCA-job run
  C   -0.46912703648160     -0.12926944478866      0.21053143538057
  C   0.65029889396259     -0.44296475750812     -0.47852938960051
  H   0.78320363277638     -1.44713157669388     -0.88063870475579
  N   -1.43876756741566     -1.05682817257591      0.61561413393653
  H   -2.36926300119334     -0.74616037279076      0.36931623828822
  H   -1.26146060442061     -1.98206214589899      0.25209543608589
  N   -0.77922393766244      1.17432105996806      0.59591732637534
  H   -1.07406760061838      1.21442335122759      1.56242601146429
  H   0.02359013087175      1.76672418929387      0.42104619946302
  N   1.63951331540054      0.57785246427455     -0.68072242474677
  H   2.54054781472797      0.28747723241840     -0.32160838959436
  H   1.75575596005278      0.78261817307385     -1.66544787229643
