12
Coordinates from ORCA-job run
  C   -0.40018232194484     -0.07141232385014      0.08566741011232
  C   0.70480839134152     -0.57730559859371     -0.49727113558332
  H   0.73669336091136     -1.62539517635569     -0.78584879880165
  N   -0.40828150723210      1.29339126489526      0.50716603005526
  H   -1.29117554239852      1.71527908823627      0.24467915976561
  H   -0.30608612933136      1.37114198601356      1.51251268825320
  N   -1.64344073870565     -0.75339609893776      0.16743925901948
  H   -1.60812116638179     -1.65714001019574     -0.28631992739009
  H   -1.95180476972502     -0.86731475873811      1.12642886247264
  N   1.80221581109457      0.20161918951291     -0.91045045134003
  H   1.68073218396855      1.14618372482951     -0.56688147789422
  H   2.68564242840327     -0.17665128681638     -0.59812161866920
