12
Coordinates from ORCA-job run
  C   -0.44388071795072      0.21291847972897     -0.01573739972879
  C   0.61193626102483      0.08215310277241     -0.84460100955971
  H   0.60571046067852      0.65094108935190     -1.76879104377374
  N   -1.42578102145775      1.19938924667499     -0.27602522560564
  H   -2.30350540793932      0.95138417355850      0.15750230787899
  H   -1.14395599163142      2.12977338179760     -0.00696569448141
  N   -0.71309794534735     -0.61505915136183      1.10253125994538
  H   -0.63469433711637     -0.13540187085202      1.99080800937504
  H   -0.16564975542423     -1.46370982566133      1.10763336887396
  N   1.80503266760613     -0.63138249668686     -0.57043001494823
  H   1.81945273893768     -1.01211992791705      0.36485112954049
  H   1.98743304861999     -1.36688620140529     -1.23977568751635
