12
Coordinates from ORCA-job run
  C   -0.48014030349728     -0.11951936142487      0.19144062607598
  C   0.65958009773410     -0.45546813011373     -0.45247880098390
  H   0.80638700137959     -1.47306113238203     -0.81394804156098
  N   -1.60449454877569     -0.94912246180837      0.30116880003314
  H   -1.92826823930415     -1.00545721449050      1.25767583471988
  H   -1.44062725880492     -1.87062101163409     -0.07775825785846
  N   -0.65535829975944      1.10912758674427      0.82663043716529
  H   0.11601561040454      1.71768386808382      0.58062736629244
  H   -1.55020901991915      1.52048397070201      0.59752988354100
  N   1.66586558677050      0.55213784029301     -0.63640625665070
  H   2.52272947771062      0.30293733313522     -0.15816249924729
  H   1.88751989606128      0.66987871289527     -1.61731909152641
