12
Coordinates from ORCA-job run
  C   -0.46953906323119      0.22008354244628      0.10618058337665
  C   0.69077729033081      0.20167124156717     -0.59687110319057
  H   0.94104988393848      1.04811748427245     -1.23753481917228
  N   -0.99761639775901     -0.89888816938826      0.76223713070530
  H   -1.11201674333753     -0.71310495999286      1.75044649865175
  H   -0.37778600838700     -1.68463210323675      0.60270398004235
  N   -1.26589500209112      1.33114627230630      0.26870872712807
  H   -0.96546692341549      2.21248795691944     -0.10167052194435
  H   -2.25750070749116      1.17331445701855      0.25063251837216
  N   1.55459159282016     -0.93956968464738     -0.49298163168710
  H   2.35940521651535     -0.74620995259045      0.09336115212708
  H   1.90099686210772     -1.20541608467449     -1.40521251440906
