16

C	-0.425083	-0.107037	-1.479963
C	0.0	0.0	0.0
Cl	-2.190072	-0.500516	-1.575458
H	1.09348	0.0	0.0
C	-0.256055	1.213409	-2.091169
N	-0.116572	2.269054	-2.589927
C	0.379778	-1.131205	-2.272022
H	0.133649	-1.035124	-3.331284
H	0.149726	-2.135531	-1.929942
H	1.442288	-0.933329	-2.103946
N	-0.418519	-1.223294	0.771322
O	0.029729	-2.290494	0.372404
O	-1.155368	-1.074566	1.741395
C	-0.537441	1.186958	0.644828
N	-0.939441	2.164126	1.158937
Br	3.314952	0.0	0.0
