16

C	-0.449053	0.013897	-1.467894
C	0.0	0.0	0.0
Cl	0.288694	-1.364086	-2.339213
H	1.093015	0.0	0.0
C	-1.90529	-0.06708	-1.60277
N	-3.070425	-0.049935	-1.751035
C	0.081373	1.297226	-2.111206
H	1.162365	1.334257	-1.954082
H	-0.38967	2.173138	-1.661867
H	-0.136904	1.280343	-3.179572
N	-0.463102	-1.195565	0.791344
O	-0.164123	-1.181866	1.980069
O	-1.085726	-2.077236	0.208265
C	-0.475777	1.188119	0.697705
N	-0.855685	2.169463	1.221247
Br	3.305473	0.0	0.0
