16

C	-0.450481	-0.079752	-1.467637
C	0.0	0.0	0.0
Cl	-0.032485	-1.704564	-2.095137
H	1.109308	0.0	0.0
C	-1.890182	0.134541	-1.642598
N	-3.015249	0.411577	-1.840651
C	0.338815	0.960499	-2.260476
H	0.082689	1.964853	-1.915541
H	0.093598	0.873593	-3.320139
H	1.404759	0.783988	-2.099923
N	-0.519974	-1.144297	0.833206
O	0.21665	-1.557788	1.718824
O	-1.65286	-1.545185	0.57849
C	-0.476164	1.23069	0.618093
N	-0.864836	2.226185	1.106451
Br	3.355547	0.0	0.0
