15
Coordinates from ORCA-job run
  C   0.54943274387004     -0.20251516307988     -0.07913928178250
  C   -0.77465426100564      0.11274659759932     -0.04590578063009
  C   1.15290639748577     -1.37258467209702      0.63592815638458
  H   0.39390107788400     -1.97841866290831      1.12845962310734
  H   1.69685893390308     -2.00246187125146     -0.07385894441767
  H   1.86489106971896     -1.02946261103166      1.39394564404747
  N   1.43353906288842      0.51235582803644     -0.86753428030218
  H   2.40137802300915      0.44816865660478     -0.59403307431756
  H   1.15702943340849      1.45030709596185     -1.11296863789027
  C   -1.67012493855257     -0.68482188627668      0.71975243238179
  N   -2.43482798474099     -1.32401807104403      1.34820852612440
  C   -1.33236096793230      1.28772808207479     -0.81145577613274
  H   -0.91727565755394      2.23741475205747     -0.45294052466674
  H   -1.10444757619803      1.20027525221326     -1.87900580824034
  H   -2.41524535618444      1.34428667314115     -0.70445227366548
