15
Coordinates from ORCA-job run
  C   0.54416746965043     -0.07823286146103      0.10890528907367
  C   -0.75591012250112     -0.04552719039720     -0.29469089970077
  C   1.20085448167752     -1.27717692145768      0.72277521054546
  H   0.54630650563401     -2.14643912463953      0.70500143650801
  H   1.47096057610579     -1.06295159738999      1.76062114391023
  H   2.12073140162279     -1.52761046180225      0.18499544925704
  N   1.33225637797492      1.05889310723379      0.07320119861191
  H   1.05627500908078      1.77455398494478     -0.58131870774430
  H   2.32566615241163      0.88999203401226      0.06884585675627
  C   -1.55511391761075     -1.21785080142397     -0.18750127061492
  N   -2.23738739124150     -2.17578051038647     -0.11435611829541
  C   -1.38726451655350      1.20766437522765     -0.85050774896791
  H   -1.22872381390660      2.05780698908959     -0.18020657966505
  H   -2.46151354364191      1.07625750379275     -0.98011850132920
  H   -0.97130466870251      1.46840147465729     -1.83064575834502
