15
Coordinates from ORCA-job run
  C   0.55772872355997     -0.03406026586035      0.24023631386132
  C   -0.67961391505520      0.43403603804171     -0.09426561185236
  C   1.27563236932070     -1.10546205838438     -0.52669509450827
  H   0.61414306971249     -1.65835351746624     -1.18913232801698
  H   1.72649368850042     -1.82367770790735      0.16527429805265
  H   2.08608976803952     -0.66820302471920     -1.11686140170193
  N   1.31699769904599      0.52846379069265      1.25011106817916
  H   1.94842049931345     -0.10198901755550      1.71790329408407
  H   0.82714734662006      1.14460382319165      1.88355629825746
  C   -1.24834951715556      1.42178987965948      0.76393442667343
  N   -1.68802789028658      2.22994251287457      1.50054712248419
  C   -1.51667043221048     -0.01305446775701     -1.26679021941231
  H   -0.90929121192740     -0.47290673932531     -2.04574515689153
  H   -2.28837640907998     -0.72713768374721     -0.96301618739350
  H   -2.02332378839741      0.84500843826250     -1.71405682181538
