15
Coordinates from ORCA-job run
  C   0.55409802916291     -0.18607540519290     -0.05546923148417
  C   -0.77039631137757      0.12837770996146     -0.02543969827035
  C   1.14834590232178     -1.38471021395916      0.61862527640633
  H   0.38763553522689     -1.98764658599315      1.11216021877748
  H   1.88093039290047     -1.06540011981110      1.36550595083306
  H   1.66818830007619     -2.01490110309956     -0.11061722374155
  N   1.47490540473524      0.66249338043525     -0.64415167820628
  H   2.34624097713602      0.23295658488511     -0.91171691827880
  H   1.11928493243310      1.29661262792249     -1.34227837501820
  C   -1.68272121697246     -0.73341618194561      0.64553083492027
  N   -2.46235889109580     -1.42920558682057      1.18990895701981
  C   -1.30926572101457      1.37544083895032     -0.68212914626109
  H   -2.36566388866540      1.51068881939083     -0.45126279341216
  H   -1.21511531266008      1.33087319006342     -1.77344051900606
  H   -0.77410813220671      2.26391204521318     -0.33122565427829
