15
Coordinates from ORCA-job run
  C   0.55705925314864     -0.09141568441061      0.06286752890581
  C   -0.74980709576799     -0.04954804683602     -0.31692391357537
  C   1.28708474346495     -1.34956514373089      0.42149242336671
  H   1.68985600501650     -1.28212767323788      1.43779390852789
  H   2.12894045758611     -1.49818958994567     -0.26123106555957
  H   0.63638121141443     -2.22089076784276      0.36726435807219
  N   1.34253451079022      1.04765690826983      0.04214562963385
  H   0.85633815963668      1.92851701601955      0.10456431707032
  H   2.16481952015698      1.01239670443382      0.62361913498418
  C   -1.51483991045974     -1.24892832131728     -0.34211245471792
  N   -2.17448091902122     -2.22484282012991     -0.36903248462997
  C   -1.42305328705474      1.24163478083368     -0.71313043493297
  H   -1.51612353176729      1.92582373637191      0.13860867892390
  H   -2.42743930743341      1.05660002477442     -1.09320770822560
  H   -0.85626980971014      1.75187887674781     -1.49871791784343
