15
Coordinates from ORCA-job run
  C   0.59981455070270      0.03834174999128      0.15416593330412
  C   -0.72768183474304      0.33422986831455      0.04813596019288
  C   1.28890047871075     -0.96741524964889     -0.71886318894054
  H   0.60628710910988     -1.45488914841822     -1.41063519741807
  H   2.08261113375902     -0.48789390262223     -1.30203690125453
  H   1.75507723696921     -1.73518029591132     -0.09553051404463
  N   1.40891732172809      0.56627815147672      1.14347968223134
  H   2.38329499313742      0.65294510070455      0.90035945127903
  H   1.04553724809659      1.37468784040974      1.62859097658800
  C   -1.24989363385335      1.29641630973769      0.96136010975051
  N   -1.64048520371107      2.10415720831686      1.72594871709910
  C   -1.69292671747292     -0.31110205248361     -0.91910397887427
  H   -1.25964119075735     -0.41680763835750     -1.91518762677550
  H   -2.58624619791795      0.30731901589047     -1.01928288591729
  H   -2.01356529375798     -1.30008695740012     -0.57740053722014
