15
Coordinates from ORCA-job run
  C   0.60434898080474      0.03096588014035      0.15402049354568
  C   -0.70633325094346      0.38690343512549      0.02763227360411
  C   1.20902672182183     -1.10724211449808     -0.61247524839252
  H   1.38866995100827     -1.95630738598803      0.05349869083096
  H   0.57324522713883     -1.43289904492147     -1.43308570024831
  H   2.17495773982229     -0.81104737951840     -1.03364167220705
  N   1.45254304773696      0.60274484769779      1.08302773906849
  H   1.13125728361157      1.46183921861750      1.50693059362148
  H   2.42598817167441      0.62567750405476      0.82385014925422
  C   -1.15207617553892      1.50768574039986      0.78652403537179
  N   -1.47858170949449      2.44330016439759      1.42503569979956
  C   -1.70390314551453     -0.30612181779067     -0.87215536381822
  H   -1.55997182873227     -0.04042707069068     -1.92386173794587
  H   -2.71863989018546     -0.01480842995676     -0.59777480536290
  H   -1.64153112320977     -1.39226354706923     -0.78152514712143
