15
Coordinates from ORCA-job run
  C   0.55058587282419     -0.19975299470782     -0.07474652348454
  C   -0.77570912074168      0.10760210153257     -0.05624011653486
  C   1.14853738766262     -1.38426660308878      0.62087080006822
  H   0.38998447108243     -1.97635106518599      1.13006171047670
  H   1.88565644723080     -1.05839236792165      1.36223271108990
  H   1.66354379954710     -2.02127676168465     -0.10375176234616
  N   1.44126334441547      0.53276373186089     -0.83925034478609
  H   2.40606795761294      0.46710388468474     -0.55617913261667
  H   1.16351594959781      1.47329443136256     -1.07219907447286
  C   -1.67574798487003     -0.69910454083452      0.69486611422513
  N   -2.44321437713268     -1.34458006719392      1.31327419384706
  C   -1.32894827840417      1.29393751244476     -0.80722424927509
  H   -0.94610394444726      2.23945966078960     -0.40515098548607
  H   -2.41587037671025      1.32596278669896     -0.73655016552180
  H   -1.06256114766729      1.24360029124327     -1.86801317518288
