15
Coordinates from ORCA-job run
  C   0.58006750464223     -0.02588683412574      0.20688936263023
  C   -0.67588550797271      0.44735859751279     -0.03708801600948
  C   1.14985230524896     -1.21863705929431     -0.50181914428006
  H   1.16662336521405     -2.08348183704427      0.16789326001065
  H   0.58378434832711     -1.47550844954227     -1.39458262153349
  H   2.18229158345543     -1.02080605170253     -0.80640835532706
  N   1.38716747767330      0.47288849272000      1.21162201288799
  H   2.37844068510522      0.40909016693684      1.04310520523859
  H   1.10522775197526      1.35807838162530      1.60894192583385
  C   -1.08001082206125      1.61447815693609      0.67436180811594
  N   -1.37416802690022      2.58441895383676      1.27630154143444
  C   -1.65271231609461     -0.15108736466065     -1.02222327492332
  H   -2.67063552751403      0.14593756096968     -0.76497340447756
  H   -1.46105539675894      0.18777215699951     -2.04517817133927
  H   -1.61998742433982     -1.24161487116720     -1.00984212826144
