15
Coordinates from ORCA-job run
  C   0.61881491160359      0.04891328069767      0.10826182443443
  C   -0.70292698924442      0.37922520406815      0.03769260529819
  C   1.24099537131858     -1.02610850439824     -0.73290021645594
  H   1.83841069095028     -0.58091394148328     -1.53377486326555
  H   1.91474356082367     -1.63777729400323     -0.12489689410103
  H   0.49883468897739     -1.68876307641847     -1.17209502987787
  N   1.52698757669895      0.76039305836676      0.87025581709552
  H   2.30552640997181      0.22702932834862      1.22335888700455
  H   1.13328314432095      1.39104632272126      1.55459291117694
  C   -1.16696587683979      1.38971525602343      0.93039416030159
  N   -1.51513398313764      2.22363681348342      1.68733268908220
  C   -1.71909858864485     -0.25584164199168     -0.88093637249062
  H   -1.26818565881408     -0.57554105282466     -1.82080067526145
  H   -2.20325032046913     -1.12140163056808     -0.41782520105129
  H   -2.50203493751533      0.46438787797831     -1.12565964188967
