15
Coordinates from ORCA-job run
  C   0.55685426573617     -0.14560606667203      0.01639305681520
  C   -0.77897596164328      0.08560589663372     -0.11081710811064
  C   1.14390859534508     -1.23208482338472      0.86472250276494
  H   0.37101780009960     -1.81816185876933      1.35911673758338
  H   1.79567476706534     -0.79619213491216      1.62745705597080
  H   1.75168659322302     -1.90774993609436      0.25357409575572
  N   1.48511611313208      0.69557748428081     -0.57072158225957
  H   1.16599997645952      1.23418023671088     -1.36065773753410
  H   2.39985134127585      0.29698179087379     -0.71068634350690
  C   -1.70711582942566     -0.75792424639308      0.56151798793841
  N   -2.49954911041973     -1.44087524742447      1.10353204573206
  C   -1.31533939113751      1.22360202197321     -0.94456287612295
  H   -2.39749036917083      1.30262491922136     -0.84462600021234
  H   -0.87868754578087      2.17713782350489     -0.63008411306192
  H   -1.09395124475878      1.08288414045149     -2.00915772175208
