15
Coordinates from ORCA-job run
  C   0.55504399724881     -0.18355433940773     -0.05425807271397
  C   -0.77125124007784      0.12338699658431     -0.02817698028906
  C   1.15100249186508     -1.38895403682814      0.60664698818944
  H   1.88589202634244     -1.07690533534083      1.35443625694452
  H   0.39123230075500     -1.99590742564027      1.09621553641155
  H   1.66854718283551     -2.01260170391283     -0.12986865553482
  N   1.47511387925698      0.67754981718132     -0.62543374101574
  H   2.34940798539046      0.25515903907691     -0.89483848858455
  H   1.12003694915095      1.31919449753712     -1.31694623358495
  C   -1.68385548780849     -0.74941303269789      0.62771911561238
  N   -2.46367897248667     -1.45283002515590      1.16163141526404
  C   -1.31234412252921      1.37597846712725     -0.67337795904940
  H   -0.79105044745245      2.26337473338423     -0.29996886897327
  H   -1.20189982564231      1.34869049441377     -1.76380591718192
  H   -2.37319671684824      1.49683185367870     -0.45597439549423
