16

C	-0.500183	0.028664	-1.441976
C	0.0	0.0	0.0
Cl	0.011075	-1.414069	-2.323445
H	1.095255	0.0	0.0
C	-1.954379	0.153616	-1.541385
N	-3.129333	0.202065	-1.578226
N	0.105504	1.278975	-2.128795
O	-0.535266	2.312359	-1.949767
O	1.161258	1.161399	-2.721479
C	-0.49118	-1.206985	0.634687
N	-0.866448	-2.172161	1.194271
C	-0.387159	1.235984	0.812699
H	-1.461941	1.436834	0.817919
H	-0.046818	1.069115	1.837017
H	0.148575	2.107207	0.433728
H	2.591018	0.0	0.0
