16

C	-0.433933	-0.048211	-1.450182
C	0.0	0.0	0.0
Cl	0.332571	1.248057	-2.388835
H	1.096071	0.0	0.0
C	-0.122999	-1.327882	-2.082329
N	0.143634	-2.353158	-2.591905
N	-1.964119	0.141449	-1.529573
O	-2.396079	1.287779	-1.517076
O	-2.632186	-0.88968	-1.483217
C	-0.4647	-1.180631	0.699683
N	-0.81562	-2.112972	1.327085
C	-0.393112	1.272942	0.743079
H	-1.465549	1.350069	0.937811
H	0.14994	1.269145	1.691538
H	-0.064427	2.146425	0.179223
H	2.527498	0.0	0.0
