16

C	-0.501087	-0.015397	-1.441388
C	0.0	0.0	0.0
Cl	0.147234	-1.404876	-2.323447
H	1.095232	0.0	0.0
C	-1.960243	-0.02949	-1.544335
N	-3.135542	-0.078858	-1.573599
N	-0.011923	1.285544	-2.120565
O	1.09344	1.28638	-2.630377
O	-0.781967	2.237729	-2.014412
C	-0.479112	-1.199318	0.660237
N	-0.869571	-2.152419	1.229939
C	-0.403496	1.253161	0.77476
H	-1.479651	1.446719	0.764591
H	0.130407	2.117349	0.375543
H	-0.070776	1.119838	1.806552
H	2.598516	0.0	0.0
