16

C	-0.3705	0.177481	-1.457613
C	0.0	0.0	0.0
Cl	0.240786	1.724515	-2.090654
H	1.09728	0.0	0.0
C	0.168119	-0.898159	-2.288307
N	0.595771	-1.755526	-2.968939
N	-1.900801	0.184527	-1.63696
O	-2.496715	1.168022	-1.216837
O	-2.410669	-0.82826	-2.109734
C	-0.461127	-1.295576	0.456519
N	-0.847722	-2.338439	0.843414
C	-0.415078	1.10938	0.958063
H	-1.486513	1.125936	1.166881
H	-0.106992	2.077924	0.564023
H	0.138594	0.943654	1.886448
H	2.534812	0.0	0.0
