16

C	-0.436073	0.037955	-1.441989
C	0.0	0.0	0.0
Cl	-2.22469	-0.082342	-1.677077
H	1.09548	0.0	0.0
C	0.003139	1.260423	-2.1096
N	0.297564	2.265773	-2.642054
N	0.190966	-1.156773	-2.18519
O	-0.233132	-2.261947	-1.884148
O	1.092817	-0.897514	-2.971849
C	-0.495234	-1.170502	0.693551
N	-0.875883	-2.086299	1.32693
C	-0.364536	1.274485	0.759573
H	0.129624	2.129678	0.292592
H	-1.442867	1.447134	0.808683
H	0.035392	1.184056	1.772093
H	2.558324	0.0	0.0
