16

C	-0.499092	-0.008126	-1.442848
C	0.0	0.0	0.0
Cl	0.026585	-1.464599	-2.292225
H	1.095234	0.0	0.0
C	-1.953456	0.100521	-1.545187
N	-3.128408	0.138028	-1.587357
N	0.091848	1.232946	-2.160364
O	-0.559301	2.262496	-2.001617
O	1.143404	1.113963	-2.759231
C	-0.489898	-1.194281	0.66034
N	-0.869596	-2.151004	1.231461
C	-0.387035	1.254134	0.783587
H	-1.461456	1.457303	0.782093
H	-0.050023	1.10963	1.812263
H	0.152034	2.115469	0.386636
H	2.594286	0.0	0.0
