16

C	-0.433338	-0.030402	-1.450926
C	0.0	0.0	0.0
Cl	0.330723	1.280455	-2.370725
H	1.096038	0.0	0.0
C	-0.11867	-1.300822	-2.099957
N	0.151948	-2.317637	-2.624123
N	-1.963252	0.160183	-1.529399
O	-2.631575	-0.871671	-1.50983
O	-2.395066	1.305427	-1.489362
C	-0.464395	-1.19035	0.68373
N	-0.817987	-2.13117	1.296878
C	-0.393485	1.263008	0.759304
H	-0.062618	2.143899	0.20818
H	-1.466022	1.338302	0.953526
H	0.147783	1.245738	1.708627
H	2.525718	0.0	0.0
