17

C	-0.292988	-0.034329	-1.501089
C	0.0	0.0	0.0
Cl	-0.239614	1.648472	-2.106786
H	1.09551	0.0	0.0
C	0.726047	-0.849418	-2.266313
H	0.649149	-0.652484	-3.334166
H	1.699059	-0.55846	-1.857439
H	0.562045	-1.908415	-2.076864
N	-1.722975	-0.494125	-1.785766
O	-1.932726	-1.033936	-2.866588
O	-2.566862	-0.251353	-0.930524
N	-0.381967	-1.269878	0.669952
O	-0.412777	-1.26695	1.896006
O	-0.577889	-2.259803	-0.03649
C	-0.548187	1.114014	0.740279
N	-0.945277	2.032012	1.357143
F	2.488745	0.0	0.0
