17

C	-0.293933	0.070849	-1.498825
C	0.0	0.0	0.0
Cl	-0.202535	1.787048	-1.992868
H	1.093027	0.0	0.0
C	0.708981	-0.715564	-2.314095
H	0.5214	-1.780459	-2.194614
H	1.687382	-0.471222	-1.887459
H	0.637834	-0.448133	-3.366729
N	-1.732303	-0.340619	-1.815227
O	-2.570595	-0.155673	-0.940302
O	-1.953367	-0.78548	-2.936241
N	-0.390338	-1.309636	0.583586
O	-0.398292	-1.391915	1.807369
O	-0.621814	-2.24264	-0.185796
C	-0.544399	1.063184	0.815651
N	-0.965091	1.960965	1.447155
F	2.489062	0.0	0.0
