17

C	-0.463666	0.012873	-1.460949
C	0.0	0.0	0.0
Cl	-0.041182	-1.534461	-2.202698
H	1.091998	0.0	0.0
C	-1.924249	0.331569	-1.724347
H	-2.17357	1.294612	-1.273617
H	-2.543659	-0.442006	-1.274063
H	-2.102629	0.368255	-2.801775
N	0.33525	1.128798	-2.156811
O	0.801664	0.929597	-3.268214
O	0.341165	2.193108	-1.548911
N	-0.479442	-1.275792	0.652501
O	0.37242	-2.043655	1.087022
O	-1.700169	-1.461433	0.723753
C	-0.565478	1.078657	0.786173
N	-1.006999	1.927274	1.472339
F	2.457744	0.0	0.0
