17

C	-0.283184	-0.023151	-1.510621
C	0.0	0.0	0.0
Cl	-0.02159	1.616888	-2.134587
H	1.092126	0.0	0.0
C	0.638237	-0.972656	-2.239781
H	1.641474	-0.733442	-1.875598
H	0.545135	-0.82664	-3.317058
H	0.406062	-2.001959	-1.985093
N	-1.763671	-0.365952	-1.732496
O	-2.598707	0.501742	-1.50548
O	-2.010474	-1.528946	-2.050983
N	-0.460141	-1.284212	0.617046
O	0.172017	-2.297025	0.328507
O	-1.430704	-1.253719	1.377491
C	-0.593213	1.114083	0.70813
N	-0.985152	2.056794	1.291258
F	2.490995	0.0	0.0
