14

C	-0.60331	0.011652	-1.393075
C	0.0	0.0	0.0
Cl	-0.061939	-1.45059	-2.256942
H	1.087962	0.0	0.0
H	-1.689029	-0.035791	-1.319307
C	-0.215509	1.207221	-2.132751
N	0.048217	2.170366	-2.750492
N	-0.522883	-1.19585	0.747352
O	0.269439	-1.818509	1.440741
O	-1.72819	-1.424786	0.62387
N	-0.501504	1.169529	0.79396
O	0.101078	1.406931	1.834198
O	-1.483517	1.778587	0.360244
Br	3.335217	0.0	0.0
