14

C	0.0	0.0	0.0
C	-0.412959	0.104439	-1.495678
Cl	1.753399	0.0	0.0
H	0.475228	-0.20323	-2.05197
H	-0.382948	-0.921353	0.425799
N	-0.430753	1.091134	0.955663
O	-0.432546	0.748638	2.130459
O	-0.620107	2.215531	0.520455
N	-0.585892	1.524326	-2.012626
O	-1.683161	1.890459	-2.39976
O	0.458401	2.167853	-2.063786
C	-1.474439	-0.782585	-1.971023
N	-1.913578	-1.618015	-2.677809
Cl	-2.992817	0.0	0.0
