16

C	0.0	0.0	0.0
C	-0.524906	0.174459	-1.439963
Br	1.927541	0.0	0.0
H	-1.60265	0.352736	-1.289107
N	-0.384813	1.275123	0.80032
O	-0.06477	1.27895	1.980747
O	-0.963996	2.171959	0.203261
N	-0.524235	-1.096237	0.724473
H	-0.280298	-1.96397	0.260658
H	-1.54793	-0.986949	0.730183
C	-0.384514	-1.115124	-2.127833
N	-0.237048	-2.117752	-2.724079
N	0.10331	1.261095	-2.170123
H	-0.604804	1.811421	-2.634743
H	0.769871	0.916715	-2.847206
Cl	-3.536945	0.0	0.0
