16

C	0.0	0.0	0.0
C	-0.511551	0.089956	-1.447564
Br	1.936316	0.0	0.0
H	-1.592714	0.264498	-1.334004
N	-0.360451	1.335945	0.729619
O	-0.101059	1.352333	1.930099
O	-0.898735	2.234677	0.100098
N	-0.544514	-1.104608	0.662264
H	-1.568899	-1.026705	0.583094
H	-0.27767	-1.094097	1.639171
C	-0.334312	-1.21327	-2.097286
N	-0.150275	-2.189103	-2.725783
N	0.123911	1.155331	-2.204797
H	0.741062	0.785301	-2.913269
H	-0.582129	1.737991	-2.631453
Cl	-3.533488	0.0	0.0
