16

C	0.0	0.0	0.0
C	-0.327299	0.070981	-1.521746
Br	2.01759	0.0	0.0
H	0.50499	0.636917	-1.955268
N	-0.260632	1.385084	0.656579
O	-0.459475	1.377117	1.863684
O	-0.184688	2.371554	-0.064099
N	-0.530547	-1.071531	0.673988
H	-0.423635	-0.934181	1.673232
H	-1.5427	-1.083199	0.441633
C	-1.491603	0.840011	-2.00033
N	-2.13626	1.467428	-2.75888
N	-0.418912	-1.295469	-2.021344
H	0.403917	-1.810151	-1.729647
H	-0.447614	-1.264631	-3.033483
Cl	-3.363006	0.0	0.0
