17

C	0.0	0.0	0.0
C	-0.416492	-0.206179	-1.475509
F	1.400433	0.0	0.0
H	-0.175259	0.74846	-1.97398
C	-0.552624	1.260431	0.616142
H	-1.64499	1.199086	0.634494
H	-0.18209	1.372664	1.637803
H	-0.237791	2.125672	0.025768
C	-0.375475	-1.190593	0.790126
N	-0.62109	-2.12688	1.454044
N	-1.794774	-0.500223	-1.726696
H	-2.098466	-1.311388	-1.196436
H	-2.4395	0.234461	-1.451322
N	0.352069	-1.335053	-1.984535
H	-0.016703	-1.542373	-2.903841
H	1.333049	-1.101874	-2.054845
Cl	-4.434204	0.0	0.0
