17

C	0.0	0.0	0.0
C	-0.49546	-0.176807	-1.439436
F	1.403591	0.0	0.0
H	-1.57085	-0.363031	-1.354473
C	-0.49697	1.254599	0.67734
H	-1.591434	1.232665	0.672766
H	-0.129688	1.289683	1.70465
H	-0.131583	2.131698	0.139547
C	-0.35884	-1.192917	0.796957
N	-0.580941	-2.126061	1.472902
N	0.159395	-1.350382	-1.987202
H	-0.191997	-1.475694	-2.929243
H	1.152915	-1.163538	-2.059375
N	-0.319321	1.012507	-2.271881
H	0.575858	1.44827	-2.077603
H	-1.052982	1.679853	-2.062665
Cl	-3.749751	0.0	0.0
