17

C	0.0	0.0	0.0
C	-0.485392	0.526344	-1.355493
F	1.403717	0.0	0.0
H	-1.568088	0.645544	-1.252126
C	-0.483907	0.827212	1.167575
H	-0.068841	0.431822	2.097911
H	-1.575573	0.779467	1.191842
H	-0.15911	1.856054	1.016273
C	-0.368821	-1.421308	0.160704
N	-0.545379	-2.572715	0.304679
N	-0.237824	-0.393982	-2.465239
H	0.662601	-0.847443	-2.341586
H	-0.949551	-1.116388	-2.457612
N	0.130029	1.828873	-1.557503
H	-0.244917	2.191328	-2.426427
H	1.125417	1.688523	-1.700176
Cl	-3.740595	0.0	0.0
