17

C	0.0	0.0	0.0
C	-0.469027	0.505098	-1.395837
F	1.389049	0.0	0.0
H	0.465935	0.75525	-1.907251
C	-0.448916	0.847879	1.17419
H	-1.53557	0.819371	1.254623
H	-0.119496	1.873299	1.011375
H	-0.000579	0.444718	2.085075
C	-0.36284	-1.413575	0.244047
N	-0.495054	-2.548414	0.514016
N	-1.223238	1.74659	-1.263221
H	-2.142827	1.503966	-0.888149
H	-1.376698	2.107835	-2.199109
N	-1.082799	-0.590627	-2.137329
H	-1.302052	-0.252713	-3.069054
H	-1.973443	-0.806813	-1.689641
Cl	-3.75854	0.0	0.0
