17

C	0.0	0.0	0.0
C	-0.537161	0.106992	-1.432114
F	1.389454	0.0	0.0
H	-1.586631	0.402546	-1.326112
C	-0.478563	1.160343	0.845772
H	-0.177088	2.08238	0.346669
H	-1.566079	1.112959	0.929256
H	-0.017596	1.106614	1.834764
C	-0.379787	-1.287112	0.619696
N	-0.580951	-2.322387	1.13529
N	-0.384971	-1.178726	-2.127467
H	-0.765534	-1.050226	-3.060338
H	-0.998976	-1.85374	-1.677214
N	0.194741	1.166081	-2.097384
H	1.089792	0.789404	-2.389233
H	-0.317037	1.460936	-2.919302
Cl	-3.759562	0.0	0.0
