18

C	-0.391383	0.119542	-1.46183
C	0.0	0.0	0.0
Cl	0.035322	-1.654272	-2.252732
H	1.090031	0.0	0.0
N	-1.758496	0.367785	-1.717522
H	-2.293768	-0.361357	-1.260827
H	-1.942237	0.339182	-2.713511
N	0.476521	1.060867	-2.021948
H	0.39292	1.109927	-3.0287
H	1.440283	0.853487	-1.738704
N	-0.532916	-1.213383	0.661972
O	0.164529	-1.744592	1.519604
O	-1.682601	-1.579316	0.382267
C	-0.460983	1.19646	0.820215
H	-1.546985	1.221088	0.935888
H	-0.132024	2.103284	0.313742
H	0.023807	1.148916	1.799228
H	2.792588	0.0	0.0
