18

C	-0.539224	0.078168	-1.432971
C	0.0	0.0	0.0
Cl	0.06909	1.602677	-2.217734
H	1.089188	0.0	0.0
N	0.001532	-0.981989	-2.25385
H	-0.315003	-1.853688	-1.837966
H	-0.36662	-0.887401	-3.1963
N	-1.990106	0.230647	-1.389448
H	-2.338256	0.281351	-2.344229
H	-2.33116	-0.633347	-0.974841
N	-0.431488	-1.170417	0.67509
O	-0.963484	-2.134895	0.03786
O	-0.138015	-1.277214	1.889986
C	-0.258784	1.226979	0.858833
H	0.279965	1.09571	1.796674
H	-1.323068	1.377425	1.048963
H	0.14908	2.102451	0.355496
H	2.367329	0.0	0.0
