18

C	-0.362104	0.193391	-1.466414
C	0.0	0.0	0.0
Cl	-0.081203	-1.583944	-2.311007
H	1.091351	0.0	0.0
N	-1.704104	0.556713	-1.71749
H	-1.876123	0.603247	-2.713813
H	-2.30528	-0.150651	-1.310935
N	0.578123	1.083335	-1.98882
H	0.537911	1.14216	-2.997554
H	1.521725	0.82808	-1.667217
N	-0.567274	-1.245023	0.5677
O	0.175728	-2.007717	1.17463
O	-1.789041	-1.414459	0.444503
C	-0.471258	1.16439	0.855945
H	-0.098844	2.085005	0.406874
H	-1.559106	1.209573	0.925627
H	-0.031837	1.06398	1.852608
H	2.824153	0.0	0.0
