18

C	-0.327402	0.113614	-1.483997
C	0.0	0.0	0.0
Cl	0.025366	-1.695463	-2.22388
H	1.090168	0.0	0.0
N	-1.665241	0.43524	-1.80284
H	-1.796079	0.446615	-2.807907
H	-2.266791	-0.27069	-1.394876
N	0.615805	0.996613	-2.021933
H	1.553749	0.763365	-1.660926
H	0.612715	0.990759	-3.033883
N	-0.57602	-1.205417	0.634651
O	0.121372	-1.837599	1.419954
O	-1.762881	-1.464566	0.39616
C	-0.477781	1.210115	0.785781
H	-0.074189	2.103329	0.309024
H	-0.076327	1.147314	1.801335
H	-1.567575	1.275708	0.814028
H	2.80933	0.0	0.0
