18

C	-0.334543	0.086839	-1.500801
C	0.0	0.0	0.0
Cl	-0.076202	-1.637647	-2.190422
H	1.091465	0.0	0.0
N	-1.664088	0.442201	-1.92712
H	-1.821784	1.398305	-1.627485
H	-2.323786	-0.164573	-1.454047
N	0.58958	1.015143	-2.02017
H	1.535427	0.806822	-1.67213
H	0.558024	1.011489	-3.031412
N	-0.590162	-1.196342	0.639295
O	-1.811334	-1.354848	0.503627
O	0.129563	-1.934563	1.302899
C	-0.476729	1.218816	0.768449
H	-0.105101	1.157648	1.795214
H	-0.043295	2.106159	0.305802
H	-1.567225	1.297242	0.785751
H	2.827621	0.0	0.0
