17
Coordinates from ORCA-job run
  C   -0.47789100289105      0.12770594228418     -0.30178659661019
  C   0.93453798682729      0.50404395475455      0.13079861101441
  F   -0.42390713787726     -0.13835146207706     -1.68736849734620
  H   1.22326055411352      1.38414384517645     -0.45385486396740
  H   0.90317695236314      0.81803590379266      1.18020158912738
  C   -0.99363037828160     -1.13553157431730      0.36093389494779
  H   -0.99034422961683     -1.03218238575631      1.44905502998770
  H   -0.37658999134380     -1.99226978179011      0.08821234427116
  H   -2.01573464945330     -1.33678479751754      0.03297566800328
  C   -1.43708974492615      1.28968102753830     -0.12485778541268
  H   -2.41576323310830      1.03198560043822     -0.53541676346807
  H   -1.55609020502086      1.53872780674733      0.93231207248930
  H   -1.06333580307715      2.16994164709711     -0.65244962765276
  C   1.96978496027023     -0.59923047673598     -0.06456918375783
  H   1.92496342727271     -0.98519147620372     -1.08427627699951
  H   1.81654957870785     -1.43087081918206      0.62587547670506
  H   2.97710291604157     -0.21285295424871      0.10621490866855
