15

C	-0.653898	0.027641	-1.347917
C	0.0	0.0	0.0
Br	0.161465	1.647805	-2.297821
H	1.088021	0.0	0.0
H	-0.271771	0.904051	0.546816
N	-0.249267	-1.115849	-2.274278
O	-1.058999	-1.398865	-3.15701
O	0.851133	-1.61113	-2.11389
N	-2.049559	0.075626	-1.314628
H	-2.369381	0.848617	-0.749376
H	-2.44909	0.09969	-2.243758
N	-0.454007	-1.127781	0.792473
O	-0.443843	-0.98086	2.022737
O	-0.712285	-2.194653	0.217747
H	2.545766	0.0	0.0
