15

C	-0.511536	-0.003841	-1.37504
C	0.0	0.0	0.0
Br	-2.690685	0.36939	-1.430917
H	1.089971	0.0	0.0
H	-0.258833	-0.937676	0.4911
N	0.026193	1.087315	-2.271612
O	0.814641	1.883933	-1.780218
O	-0.294719	1.018453	-3.456648
N	-0.241853	-1.195561	-2.025374
H	-0.575357	-1.193323	-2.979612
H	-0.548194	-2.005822	-1.508807
N	-0.448985	1.057392	0.89019
O	-0.764329	2.155957	0.431538
O	-0.399937	0.788951	2.097733
H	2.427507	0.0	0.0
