15

C	-0.578655	-0.001009	-1.3861
C	0.0	0.0	0.0
Br	0.232573	1.504287	-2.371835
H	1.086164	0.0	0.0
H	-0.31739	0.894287	0.535289
N	-0.078024	-1.254893	-2.162705
O	-0.793419	-1.627811	-3.092956
O	0.971096	-1.767345	-1.807032
N	-1.983193	0.138713	-1.467258
H	-2.268944	0.119727	-2.440397
H	-2.381493	-0.666257	-0.992591
N	-0.4223	-1.162222	0.760286
O	-1.109084	-2.050839	0.202406
O	0.013076	-1.249429	1.915679
H	2.54685	0.0	0.0
