15

C	-0.371833	-0.119542	-1.458692
C	0.0	0.0	0.0
Br	-2.225932	-0.770163	-1.688517
H	1.091886	0.0	0.0
H	-0.301875	-0.911405	0.513971
N	-0.23533	1.226329	-2.193813
O	0.928843	1.555286	-2.375626
O	-1.230315	1.848641	-2.534351
N	0.520562	-1.021443	-2.132058
H	0.301594	-1.964498	-1.832292
H	1.462215	-0.795916	-1.77678
N	-0.538014	1.115483	0.754845
O	-0.5117	2.235854	0.234268
O	-0.901667	0.893452	1.917655
H	2.587753	0.0	0.0
