15

C	-0.176192	0.120098	-1.496002
C	0.0	0.0	0.0
Br	-0.553451	-1.932348	-2.13536
H	1.087991	0.0	0.0
H	-0.456183	-0.865185	0.460639
N	-1.479004	0.715719	-2.007068
O	-1.469591	1.141019	-3.156641
O	-2.431819	0.735223	-1.240542
N	0.889727	0.693911	-2.066009
H	0.891102	0.819326	-3.065099
H	1.787904	0.516258	-1.555307
N	-0.433753	1.194682	0.731158
O	-0.821448	1.023653	1.887977
O	-0.313205	2.293843	0.189815
H	2.661991	0.0	0.0
