15

C	-0.278584	0.095211	-1.482923
C	0.0	0.0	0.0
Br	-0.360526	1.893916	-2.201031
H	1.102595	0.0	0.0
H	-0.391606	-0.948083	0.362716
N	1.03147	-0.568385	-2.030271
O	2.109451	0.094879	-1.805343
O	0.976372	-1.830497	-1.93238
N	-1.443734	-0.617783	-1.904089
H	-1.229172	-1.594762	-1.712226
H	-1.51244	-0.532821	-2.914505
N	-0.510675	1.050497	0.865688
O	-1.500355	0.789302	1.564493
O	0.086944	2.129438	0.881111
H	2.522461	0.0	0.0
