15

C	-0.591036	0.164749	-1.386543
C	0.0	0.0	0.0
Br	0.392863	1.458121	-2.445939
H	1.10344	0.0	0.0
H	-0.277719	-0.96357	0.424045
N	-0.466821	-1.227973	-2.045648
O	0.282007	-1.41818	-2.989817
O	-1.195801	-2.075177	-1.528596
N	-1.997679	0.482058	-1.50241
H	-2.098375	1.415989	-1.118985
H	-2.493362	-0.161194	-0.890782
N	-0.419592	1.007889	0.925144
O	-0.267339	0.745087	2.131462
O	-0.76552	2.133799	0.503941
H	2.453374	0.0	0.0
