15

C	-0.539983	0.038459	-1.408187
C	0.0	0.0	0.0
Br	0.274352	1.349905	-2.584875
H	1.1022	0.0	0.0
H	-0.346919	-0.918213	0.477053
N	-0.107463	-1.376929	-1.96858
O	0.983055	-1.524453	-2.493261
O	-0.935949	-2.266856	-1.763952
N	-1.94241	0.203656	-1.458993
H	-2.286024	0.131914	-2.409424
H	-2.383563	-0.500338	-0.880818
N	-0.439226	1.099077	0.826235
O	-0.228325	2.250628	0.423477
O	-0.875908	0.824153	1.959685
H	2.537068	0.0	0.0
