11
Coordinates from ORCA-job run
  C   0.73650471781341     -0.48066435000395      0.05592580463955
  C   -0.40958210927071      0.46571419747031     -0.23019342416228
  F   0.34188354904380     -1.76403832327950     -0.26096816841831
  H   -0.12326587424983      1.50180507410015     -0.03969384907917
  H   0.99133106800427     -0.45876823804448      1.11717785866275
  H   -0.77531651179323      0.34774930573415     -1.24840825140753
  C   1.90500831860206     -0.10790547955936     -0.75205748789968
  N   2.84062365006865      0.20707460501236     -1.38634099320635
  N   -1.55394860714425      0.15960427237836      0.68623344500779
  O   -2.67496602376863      0.16110692058562      0.19152626985214
  O   -1.27827217730555     -0.03167798439366      1.86679879601110
