11
Coordinates from ORCA-job run
  C   0.57706146300217     -0.55014714964918     -0.37747682529654
  C   -0.21984800899032      0.55786184613358      0.27734236192471
  F   0.06421562668813     -0.78119037585666     -1.63708901726120
  H   -0.26229209778605      1.44218645748020     -0.35550053693394
  H   0.48765572041298     -1.47370422166329      0.19766397034774
  H   0.18304586557506      0.80507260015371      1.26129859314591
  C   1.98738195505189     -0.15237101651015     -0.48256212807441
  N   3.11113490606549      0.17983644195741     -0.54334175564412
  N   -1.62972338219394      0.10071376113474      0.49013183746264
  O   -1.77885519396935     -1.02493158290706      0.95604201818762
  O   -2.51877685385606      0.89767323972671      0.21449148214160
