11
Coordinates from ORCA-job run
  C   0.68179468076205     -0.11971640949887     -0.54713815125902
  C   -0.34511476654111     -0.03708125911474      0.56195338018593
  F   1.12027835239392      1.15439295769070     -0.84251207223082
  H   0.04026926393260      0.51192512873976      1.41891302573526
  H   0.23305236196970     -0.53947946998032     -1.44937005787585
  H   -0.68532644877391     -1.03079273171013      0.85907681912001
  C   1.81618825269663     -0.94597080383358     -0.11339342762873
  N   2.70481030606920     -1.62159869581022      0.24815009013679
  N   -1.55160031643400      0.70284306180463      0.07193202141500
  O   -1.97279633353194      0.39450561871432     -1.03895159654975
  O   -2.04055535254316      1.53097260299845      0.83133996895119
