11
Coordinates from ORCA-job run
  C   0.64334343485163     -0.31136095728344     -0.51770713608726
  C   -0.27872009901139      0.24674670781112      0.54513253543975
  F   0.72564826942078      0.59419079460715     -1.55499206508824
  H   0.02679154602198      1.24552571347346      0.85075918771697
  H   0.24226179184968     -1.24525147412812     -0.91607512498932
  H   -0.33600420163963     -0.42148057330609      1.40649974330116
  C   1.97868763637132     -0.53589641541058      0.05179031816651
  N   3.03397420560107     -0.71970438995891      0.53078595329243
  N   -1.66649249624700      0.36057570983918     -0.00571489640724
  O   -2.08767923957654     -0.60229495404020     -0.63985596070871
  O   -2.28181084764190      1.38894983839643      0.25037744536395
