11
Coordinates from ORCA-job run
  C   0.73391244287813     -0.64957676608141     -0.24500109736872
  C   -0.53327760967158     -0.35010204345154      0.52774847558450
  F   0.40605981081532     -0.96165936549616     -1.54637152516677
  H   -1.18517395748981     -1.22234600984349      0.53628301377140
  H   1.19675150144527     -1.53611422857265      0.20209976928783
  H   -0.31178402631649     -0.04608334870941      1.55303230381171
  C   1.72440231122294      0.43548230710519     -0.21380438366459
  N   2.57534500475317      1.23886262078125     -0.13237280406268
  N   -1.33440041708068      0.75624109196756     -0.08873907791248
  O   -2.53939265020808      0.72460027116945      0.13372608758752
  O   -0.73244241034819      1.61069547113122     -0.72860076186772
