18

C	0.0	0.0	0.0
C	-0.391276	0.025046	-1.515293
Br	1.956401	0.0	0.0
H	0.4649	0.467874	-2.031741
N	-0.316423	1.354453	0.642262
O	-0.537652	1.371478	1.845356
O	-0.226216	2.335861	-0.087098
C	-0.531614	-1.121425	0.845357
H	-1.625119	-1.044694	0.826221
H	-0.166944	-1.019229	1.86589
H	-0.204156	-2.078283	0.439489
C	-1.492787	0.896465	-1.957036
N	-2.134046	1.627788	-2.619332
C	-0.60447	-1.393352	-2.055178
H	0.265778	-2.021211	-1.846582
H	-1.5014	-1.824393	-1.607778
H	-0.745618	-1.342213	-3.137229
Cl	-3.56022	0.0	0.0
