18

C	0.0	0.0	0.0
C	-0.415245	-0.11013	-1.481083
Br	1.95832	0.0	0.0
H	-0.072214	-1.115652	-1.75532
N	-0.357223	1.369022	0.584176
O	-0.738918	2.232241	-0.196053
O	-0.215291	1.497465	1.794696
C	-0.627394	-1.057957	0.869512
H	-0.444018	-2.045521	0.443332
H	-1.706747	-0.870914	0.898978
H	-0.226667	-1.014285	1.881176
C	0.318748	0.811225	-2.358319
N	0.845793	1.509278	-3.140581
C	-1.91028	-0.011393	-1.783827
H	-2.271059	1.012515	-1.719442
H	-2.062839	-0.382569	-2.80004
H	-2.53286	-0.588592	-1.106111
Cl	-4.599768	0.0	0.0
