15
Coordinates from ORCA-job run
  C   0.81684634675742     -0.57459739828805      0.47292247079616
  C   -0.52413220024949      0.16746453579479      0.32699811586290
  F   0.50605459454044     -1.78175623502034      1.08037123563560
  H   -0.95029419338778      0.25471098217048      1.32994487721937
  C   1.44241435897164     -0.86873910475811     -0.82405509920609
  N   1.90375652507292     -1.17066647504962     -1.86117194057317
  C   1.74338904846786      0.14917363049090      1.35588067555900
  N   2.44950028062884      0.69980537692119      2.11612028633062
  C   -1.48249173602864     -0.52663192285728     -0.62295844714458
  H   -2.44374337343212     -0.01315111126858     -0.60211044501082
  H   -1.62681611581693     -1.56069078480656     -0.30873485225384
  H   -1.09270829128482     -0.51412373250794     -1.64299844233728
  N   -0.29522820798532      1.57122156567552     -0.14651115920248
  O   -1.24630987451465      2.33400018795396     -0.03055906925513
  O   0.79976283826063      1.83598048554963     -0.64113820642026
