15
Coordinates from ORCA-job run
  C   1.00268480649126     -0.35152541911446     -0.03173543205436
  C   -0.42524915711598      0.15643996024083      0.23262403097190
  F   1.30768646711908     -0.28324229298952     -1.36847170640935
  H   -0.68326034333032     -0.06195395626029      1.27218844313601
  C   2.00251393785965      0.39542698024631      0.74986772375382
  N   2.78821498140865      0.95188731899501      1.42268056219608
  C   1.04572245517482     -1.76897266603859      0.37895057385382
  N   1.04033589698168     -2.89777734995474      0.70402418981777
  C   -1.44111928264227     -0.44054225863447     -0.72761033085354
  H   -1.44295797848546     -1.52903277044748     -0.65029654112743
  H   -2.43383302508742     -0.07158280637080     -0.46960360596341
  H   -1.20371021219702     -0.15566514392846     -1.75274810936170
  N   -0.48712560490310      1.65482137794337      0.11724596694547
  O   -1.44467882951545      2.18204078765481      0.67270529627131
  O   0.37477588824188      2.21867823865846     -0.55082106117638
