15
Coordinates from ORCA-job run
  C   0.75603335201484     -0.55954245318227      0.57906253256666
  C   -0.56506321552838      0.16062401751839      0.25350506348638
  F   0.38584350112166     -1.76982000125086      1.14580536736579
  H   -1.12103274082238      0.24469186881597      1.19101281761330
  C   1.55309278350949     -0.84764948123659     -0.62158824200026
  N   2.15327747688876     -1.15024029687372     -1.58485318406785
  C   1.54555527061249      0.18128548752429      1.57396532346481
  N   2.13558456233678      0.74547782542344      2.41858778105046
  C   -1.37893848267938     -0.55245307513925     -0.81042136600412
  H   -0.86063632922884     -0.53340853856327     -1.77143695797951
  H   -2.34456889440641     -0.05798080513035     -0.91612155390327
  H   -1.54297848815719     -1.58875892315710     -0.51378611571056
  N   -0.29756130895314      1.56614563664223     -0.19367488672719
  O   0.84878165572531      1.84675343562696     -0.54125134646181
  O   -1.26738914243360      2.31387530298215     -0.20780523269284
