15
Coordinates from ORCA-job run
  C   0.95275145525354     -0.01888237599747      0.58900513854592
  C   -0.52449016542869      0.27383926645703      0.29133931543171
  F   1.45421932982483      1.00635765753629      1.36073080666531
  H   -1.05167204722551      0.29447367814412      1.24708155752593
  C   1.01621036174838     -1.27119957676505      1.36411009881562
  N   1.01988533487590     -2.27054965831168      1.98172105000763
  C   1.77917253435204     -0.17291249259602     -0.61927782106341
  N   2.45352686958696     -0.37437411646519     -1.55982018895865
  C   -1.14645649318117     -0.69506732904291     -0.69540598825113
  H   -2.19757519365918     -0.44004196779008     -0.83921735059289
  H   -0.63310620904389     -0.64397162394463     -1.65701276996461
  H   -1.09227015923535     -1.71610431872263     -0.31287744557425
  N   -0.63870367459158      1.67202546651874     -0.24466868120148
  O   0.12580518764195      1.98404618562013     -1.15216302670427
  O   -1.51829713091821      2.37136120535933      0.24645530531856
