15
Coordinates from ORCA-job run
  C   0.80601156318133     -0.59619803268112      0.46868941776112
  C   -0.51903679423387      0.17508578499634      0.32883986691779
  F   0.46983564511433     -1.80013611141387      1.06928995480507
  H   -0.94187319152534      0.26508325861096      1.33290454179275
  C   1.42400204911871     -0.89660767153219     -0.83041520497948
  N   1.87195119897004     -1.20227501419305     -1.87230276688503
  C   1.74767303051244      0.10306561484798      1.35538556211861
  N   2.45799176242611      0.65267187432206      2.11245008837998
  C   -1.49280449558264     -0.49214932956127     -0.62464665204058
  H   -1.10558602195687     -0.47744671483172     -1.64558844105892
  H   -2.44427138224576      0.03883009161503     -0.59621889685255
  H   -1.65545537537251     -1.52620794680488     -0.31956888102017
  N   -0.26117246782136      1.57674300761563     -0.13584496460122
  O   -1.19339518019189      2.36046834569541     -0.00685131663869
  O   0.83612965960725      1.82007284331465     -0.63612230769868
