15
Coordinates from ORCA-job run
  C   0.92553007600744     -0.32778662790969      0.53665578082200
  C   -0.56103198455961      0.00604100400200      0.34850577712859
  F   1.29448886308678      0.02970826651782      1.81503046109376
  H   -1.12386013318552     -0.59740824273178      1.06316615659160
  C   1.08327613206199     -1.78566727640240      0.38634275005914
  N   1.16228411233438     -2.95120707599818      0.26171247308045
  C   1.80844184542439      0.34130182789024     -0.43280004305822
  N   2.53594477090891      0.79957972889146     -1.23314824331651
  C   -1.04629047228033     -0.17571556225533     -1.07643355001622
  H   -0.91253690456801     -1.21130368384263     -1.39516203731597
  H   -2.10988384086031      0.06242162997301     -1.12956005704276
  H   -0.50023339467974      0.48284689093409     -1.75366532792979
  N   -0.78743385378005      1.42744081543291      0.77606785989743
  O   -1.71826389875933      1.62276651915439      1.55026546582320
  O   -0.05143131715099      2.27698178634408      0.28402253418330
