15
Coordinates from ORCA-job run
  C   0.98065804920292     -0.33802064673830      0.01911071611170
  C   -0.46302039652034      0.16415902593991      0.22248765202796
  F   1.34064066795351     -0.20611977990633     -1.30170166485693
  H   -0.72811740139065      0.01500510205503      1.27122111661352
  C   1.93943001548055      0.41167272062045      0.84783405975867
  N   2.70663834075300      1.00397704540445      1.51185677489050
  C   1.03074559337012     -1.76443466062516      0.38593258769823
  N   1.03878973818120     -2.90121621180137      0.68227110469825
  C   -1.44109284971646     -0.49247743688905     -0.72880417868329
  H   -2.43498369674139     -0.06810583799845     -0.57905427757005
  H   -1.49283399613688     -1.56485305940018     -0.53159577864608
  H   -1.14063123099883     -0.32444081278472     -1.76093909497199
  N   -0.45409987006777      1.65722080203485      0.03083971784408
  O   -0.39767425905235      2.33747648791976      1.05319894615642
  O   -0.48544870431664      2.07215726216910     -1.12365768107095
