15
Coordinates from ORCA-job run
  C   0.83425432103257     -0.59007176421546      0.41875210828710
  C   -0.51823257530550      0.14203147250347      0.35021691892394
  F   0.55294332456723     -1.83228250533576      0.96738955626610
  H   -0.91717768509317      0.16959152576386      1.36763546215049
  C   1.42883444595684     -0.80623479099380     -0.90769040846338
  N   1.87855394182314     -1.04761240171909     -1.96557891023846
  C   1.77703933893376      0.09654952090910      1.31404140412082
  N   2.50487942146903      0.62544936925386      2.06921951256822
  C   -1.49454877103118     -0.51117518073354     -0.61024250356632
  H   -1.13274019117709     -0.43909701229206     -1.63811553150855
  H   -2.46034510466107     -0.01129768219369     -0.53626422340178
  H   -1.61947457597780     -1.56227293665610     -0.34876357889776
  N   -0.31834561483285      1.57243362248655     -0.05133840570279
  O   0.75610570745866      1.87595305386730     -0.56800074319742
  O   -1.27174598316260      2.31703570935534      0.13973934265974
