15
Coordinates from ORCA-job run
  C   1.00130395493984     -0.27301546043902      0.00704340464420
  C   -0.48397695316314      0.08116256000804      0.22263557130047
  F   1.41939665237717      0.19099478940375     -1.21815997895820
  H   -0.79065028476967     -0.32301834871262      1.18958287592353
  C   1.85758537598593      0.31158256928501      1.05270612364941
  N   2.53673297107585      0.76993886658542      1.89474361622956
  C   1.13631994682391     -1.74031791057971      0.03219079067985
  N   1.20980727974874     -2.91255013793893      0.05459901195099
  C   -1.36102087350786     -0.39411866644515     -0.91653741309547
  H   -2.38895745952035     -0.07241670627534     -0.74305634583463
  H   -1.01862546878621      0.02304647418704     -1.86129575227729
  H   -1.34697128215773     -1.48424190312066     -0.97030403686858
  N   -0.57403107556326      1.57580419437657      0.37734368874354
  O   -0.58840667829345      2.24399688667761     -0.65191075257001
  O   -0.60850610518973      2.00315279298800      1.52941919648257
