15
Coordinates from ORCA-job run
  C   0.99386235679289     -0.27270820943039      0.12748900848374
  C   -0.46225494516722      0.22883150450370      0.18006290878749
  F   1.50669260487635     -0.00428375698528     -1.12211148190588
  H   -0.81319491008462      0.17908892507981      1.21664725121472
  C   1.86100719310852      0.31562112901202      1.16280273739742
  N   2.56055930455044      0.68063735106709      2.03271037872227
  C   0.99749344255800     -1.73438374478426      0.33002216893281
  N   0.98687918218135     -2.89787969489702      0.49020419933740
  C   -1.37689701884302     -0.53762371974656     -0.75535414671688
  H   -2.37399760318752     -0.10429878036942     -0.72934336505861
  H   -1.44239425753500     -1.58088462952352     -0.44494213528505
  H   -1.00314070890916     -0.49061845787460     -1.77891622646178
  N   -0.46979845379899      1.70922575646985     -0.16536911955189
  O   0.52786144327776      2.35884383316375      0.12893557898533
  O   -1.49267762981978      2.15143249431486     -0.67283775688109
