15
Coordinates from ORCA-job run
  C   1.00482607851529     -0.26536039514652     -0.02390063134049
  C   -0.46798253326502      0.10648041953134      0.24155217873005
  F   1.32897002146660      0.00047717768902     -1.33324028206423
  H   -0.70137605376465     -0.15633610025433      1.27532747539637
  C   1.91938872497224      0.48599532707384      0.85221169216128
  N   2.65073541689773      1.08541496737395      1.54943797395638
  C   1.16731458339309     -1.70916050647582      0.22323178685648
  N   1.25705974852521     -2.86331108976584      0.42266207734108
  C   -1.41292352534373     -0.53342244476381     -0.75375572955468
  H   -2.43247965678624     -0.20058897544528     -0.55317641890752
  H   -1.14523274422467     -0.25016613134186     -1.76966854887374
  H   -1.38135826507410     -1.62011992409927     -0.65529824679296
  N   -0.57521804530685      1.60666289303041      0.18686721957499
  O   -0.58053535324037      2.19340055527837      1.26681454931992
  O   -0.63118839676454      2.12103422731583     -0.92606509580292
