15
Coordinates from ORCA-job run
  C   0.96286436440806     -0.37817877714911      0.07145065736636
  C   -0.46146218780971      0.19965579317025      0.19824298874578
  F   1.36727604474857     -0.33987770181295     -1.24245326963504
  H   -0.76177700184336      0.12973400960399      1.24575934249252
  C   1.93136063700578      0.37446527979981      0.88627346383578
  N   2.70983724716896      0.96774742090559      1.53615580553391
  C   0.93516929508051     -1.78142641387559      0.52069720805799
  N   0.87382099262899     -2.89909928403260      0.87730193598341
  C   -1.44147217402375     -0.47263776754738     -0.73983879667048
  H   -1.10376129670022     -0.38560939156922     -1.77048251496152
  H   -1.54877114997709     -1.52669444865448     -0.47691839853001
  H   -2.41850317361226      0.00440086695185     -0.64923133693556
  N   -0.37602334418165      1.67541639556489     -0.08625870570003
  O   -0.29867586147367      2.41492858226243      0.89282260155531
  O   -0.37088239141916      2.01817543638248     -1.26452098113845
