15
Coordinates from ORCA-job run
  C   0.74480271852583     -0.46276161728848      0.69933263238674
  C   -0.62661310425901      0.01952080554938      0.20651107776649
  F   0.80831580618875     -0.27725136460747      2.06294997429920
  H   -1.38312204556976     -0.60336788363056      0.68770268671911
  C   0.84656429676442     -1.90482156522857      0.41054166672332
  N   0.89301996635389     -3.04994693004037      0.15209021791094
  C   1.87743493091650      0.22275233705501      0.05577551278797
  N   2.79656237584092      0.69359563448282     -0.50402381337156
  C   -0.75826026171587      0.03127970972957     -1.30399125569365
  H   -0.60803311252521     -0.97211920402984     -1.70716209556821
  H   -1.76162143085977      0.36187221540142     -1.57711351774889
  H   -0.02701476644775      0.70953237617715     -1.74677465086508
  N   -0.86799985764493      1.40311438774924      0.73777484145038
  O   -1.96718547071434      1.60682721451638      1.24195341581559
  O   0.03314995514633      2.22177388416428      0.58643330738768
