15
Coordinates from ORCA-job run
  C   0.97305168982337     -0.35964583947120      0.06381238142666
  C   -0.46702970437989      0.17435412009602      0.20161322585552
  F   1.38205112387543     -0.27830818711850     -1.24642534396858
  H   -0.77493725889913      0.05078011469107      1.24193128697363
  C   1.91505545889104      0.40181744863861      0.90097861831254
  N   2.66788389593500      1.01252924278802      1.56484137269506
  C   0.98304537672296     -1.77417994771347      0.47699471011600
  N   0.95577795474313     -2.90241502913835      0.80301332084905
  C   -1.42103265011413     -0.48184016452140     -0.77432107325495
  H   -2.41209365566929     -0.03807342150633     -0.66837167422432
  H   -1.49900540687248     -1.54964933467234     -0.56177673757227
  H   -1.07930721010428     -0.33657830957466     -1.79702050227813
  N   -0.42346607959581      1.66258448353171     -0.01803872766600
  O   -0.36907453026042      2.05260697199359     -1.18042884536719
  O   -0.42991900409551      2.36401785197722      0.99119798810297
