15
Coordinates from ORCA-job run
  C   0.77040518315939     -0.55405380101182      0.56819503939548
  C   -0.55516264385928      0.16885126426754      0.26760060742596
  F   0.40949384897662     -1.74857585799992      1.17334883570660
  H   -1.08135112100883      0.27613812281002      1.21984236862881
  C   1.52712799699112     -0.87492617712404     -0.65000798797934
  N   2.08700460488903     -1.19100826890730     -1.63302384224456
  C   1.59555147451007      0.20265814960814      1.52133908182952
  N   2.21439465903289      0.78149712774126      2.33494720024574
  C   -1.40634249877802     -0.55928634240698     -0.75607703189017
  H   -0.91619283976245     -0.56653994177639     -1.73188159101389
  H   -2.36971396559967     -0.05716587329553     -0.84437574101533
  H   -1.57154969557878     -1.58715397816117     -0.43206360080729
  N   -0.29188369192899      1.56309682286160     -0.21625450803643
  O   0.84526993283753      1.82851956936687     -0.60359944241014
  O   -1.25705124388065      2.31694918402772     -0.21798938783498
