15
Coordinates from ORCA-job run
  C   0.84114802929263     -0.58784515567957      0.40842769120777
  C   -0.51846803705062      0.13204674254689      0.35147865937249
  F   0.57245927036442     -1.84199171597206      0.93540350384183
  H   -0.91843819155493      0.13789755368732      1.36887525987343
  C   1.43732062155328     -0.77507716977740     -0.92177597009950
  N   1.87728306460091     -0.99744873799535     -1.98791799948583
  C   1.77630788971742      0.09211597815509      1.31684090252229
  N   2.49180695018083      0.60430591411445      2.09500702640006
  C   -1.48839610342278     -0.51426460530971     -0.62030230674254
  H   -1.12892341918745     -0.41795868530363     -1.64698510902540
  H   -1.60017909951618     -1.57164886016858     -0.37902232360256
  H   -2.45990242858640     -0.02745934433023     -0.53520196503872
  N   -0.33205050269729      1.57079424583939     -0.02564464911832
  O   -1.29391705834774      2.30235840933094      0.17305824689333
  O   0.74194901465390      1.89417543086245     -0.53124096699836
