15
Coordinates from ORCA-job run
  C   0.98956941898611     -0.14862981091560      0.50610297672990
  C   -0.47186920058881      0.29435656833622      0.35302915256924
  F   1.64138394989493      0.76253891304892      1.30743232186847
  H   -0.92391753888546      0.28026280564732      1.34673937640349
  C   0.99422797111453     -1.46008496999818      1.17980700486623
  N   0.95503402789611     -2.50056810160502      1.72389594701942
  C   1.70430786896086     -0.27786410287685     -0.77429812890647
  N   2.28236284280662     -0.46543406426333     -1.77933493293167
  C   -1.25390385607444     -0.53241911720371     -0.64970040501380
  H   -1.26668516544566     -1.58233795643892     -0.35073183514392
  H   -2.28433109343348     -0.17536507165475     -0.68596912020396
  H   -0.81187704928633     -0.44755384095435     -1.64389898601647
  N   -0.49884667060228      1.73569814210477     -0.06671427743322
  O   -1.30215621334076      2.45435986125953      0.51793131533902
  O   0.24670070799808      2.06304074551393     -0.98429040914627
