16

C	0.0	0.0	0.0
C	-0.449122	-0.039991	-1.473573
F	1.37034	0.0	0.0
H	-1.54729	-0.062336	-1.375713
N	-0.496093	1.217191	0.564256
H	-1.52066	1.083139	0.473109
H	-0.281415	1.170444	1.556798
N	-0.455352	-1.154792	0.724132
H	-0.234635	-1.971145	0.159876
H	-1.479092	-1.026098	0.68243
N	0.045815	-1.26456	-2.108476
H	-0.414626	-1.385517	-3.001892
H	1.038782	-1.160006	-2.284866
C	-0.018673	1.161662	-2.205996
N	0.351452	2.041131	-2.89333
F	-2.839055	0.0	0.0
