16

C	0.0	0.0	0.0
C	-0.228884	0.137458	-1.559424
F	1.41909	0.0	0.0
H	0.557867	0.832091	-1.868284
N	-0.500512	1.185658	0.6195
H	-0.315138	1.071765	1.612818
H	-1.522707	1.066897	0.51045
N	-0.47588	-1.18036	0.641654
H	-0.20208	-2.001933	0.112922
H	-1.499498	-1.068965	0.585865
N	-1.498363	0.610306	-2.077705
H	-2.236076	0.281149	-1.423104
H	-1.486376	1.618784	-1.977331
C	0.111106	-1.158888	-2.177591
N	0.399961	-2.186668	-2.667353
F	-2.923552	0.0	0.0
