14

C	0.0	0.0	0.0
C	-0.467796	-0.08513	-1.470556
Cl	1.776958	0.0	0.0
H	0.402658	-0.007335	-2.131313
H	-0.343385	0.927789	0.440276
C	-0.440896	-1.126429	0.820753
N	-0.618931	-2.01524	1.567708
N	-1.209214	1.232029	-1.809554
O	-1.999902	1.179448	-2.745086
O	-0.856898	2.266666	-1.250154
N	-1.21273	-1.24495	-1.758826
H	-2.040038	-1.105058	-1.143258
H	-1.489473	-1.224735	-2.731819
F	-2.482207	0.0	0.0
