14

C	0.0	0.0	0.0
C	-0.561013	0.011298	-1.408884
Cl	1.774521	0.0	0.0
H	-1.687541	-0.055167	-1.115339
H	-0.343839	0.937297	0.429921
C	-0.453515	-1.086488	0.871248
N	-0.628577	-1.922978	1.676944
N	-0.124315	-1.217363	-2.157986
O	0.28792	-1.077239	-3.315539
O	-0.245377	-2.30508	-1.597892
N	-0.207859	1.221765	-2.074478
H	0.746169	1.177433	-2.415251
H	-0.811765	1.350603	-2.874241
F	-2.634319	0.0	0.0
