14

C	0.0	0.0	0.0
C	-0.446086	0.022031	-1.480729
Cl	1.780796	0.0	0.0
H	0.437873	0.121373	-2.119417
H	-0.347013	0.892948	0.503405
C	-0.442858	-1.186065	0.728775
N	-0.595428	-2.149342	1.383592
N	-1.142322	1.378945	-1.746693
O	-0.802164	2.359586	-1.092369
O	-1.887125	1.414815	-2.721079
N	-1.211442	-1.096957	-1.862129
H	-1.47282	-1.001098	-2.835051
H	-2.04156	-0.990277	-1.241902
F	-2.466023	0.0	0.0
