14

C	0.0	0.0	0.0
C	-0.456306	-0.087529	-1.472695
Cl	1.798812	0.0	0.0
H	0.421241	-0.022259	-2.126036
H	-0.329961	0.932964	0.439194
C	-0.435913	-1.124836	0.821078
N	-0.567037	-2.037022	1.549536
N	-1.178694	1.238007	-1.819058
O	-0.784536	2.27083	-1.284769
O	-1.998136	1.191137	-2.729564
N	-1.208403	-1.242142	-1.765324
H	-1.463019	-1.232468	-2.744374
H	-2.042013	-1.098443	-1.160466
F	-2.463758	0.0	0.0
