14

C	0.0	0.0	0.0
C	-0.463247	-0.171483	-1.463188
Cl	1.788853	0.0	0.0
H	0.407811	-0.117386	-2.125231
H	-0.333471	0.956222	0.382437
C	-0.441115	-1.070558	0.888998
N	-0.583847	-1.936248	1.670298
N	-1.215673	1.118462	-1.871517
O	-0.807364	2.187934	-1.428926
O	-2.062265	1.003739	-2.749793
N	-1.195625	-1.352613	-1.687467
H	-1.470022	-1.393929	-2.661528
H	-2.028775	-1.188939	-1.088471
F	-2.456912	0.0	0.0
