13

C	-0.384486	-0.201659	-1.46573
C	0.0	0.0	0.0
Br	-0.677852	1.612628	-2.245066
H	1.088733	0.0	0.0
H	-1.356577	-0.683024	-1.57752
H	-0.392438	0.887006	0.488706
N	0.595355	-0.905003	-2.235409
H	0.456509	-1.890639	-2.043357
H	1.515396	-0.65615	-1.863338
N	-0.418097	-1.152881	0.789345
O	-0.575885	-0.99698	2.00414
O	-0.51532	-2.251204	0.219876
H	2.686501	0.0	0.0
