13

C	-0.281271	0.000669	-1.478253
C	0.0	0.0	0.0
Br	-2.213503	0.267951	-1.862319
H	1.093506	0.0	0.0
H	-0.055438	-0.979899	-1.892811
H	-0.372139	0.885786	0.513409
N	0.487478	1.00809	-2.171521
H	0.277828	1.91062	-1.755198
H	1.46187	0.80536	-1.914042
N	-0.495179	-1.17253	0.709265
O	-0.857486	-1.02845	1.882204
O	-0.45533	-2.261522	0.125632
H	2.680653	0.0	0.0
