13

C	-0.510464	0.030091	-1.415776
C	0.0	0.0	0.0
Br	0.098562	-1.715832	-2.264838
H	1.088807	0.0	0.0
H	0.01956	0.779935	-1.998973
H	-0.388123	-0.841234	0.573766
N	-1.911747	0.204824	-1.512384
H	-2.40008	-0.528995	-1.014467
H	-2.220152	0.21127	-2.475982
N	-0.396333	1.226026	0.688369
O	-0.760076	1.141677	1.868939
O	-0.243341	2.292449	0.083491
H	2.658163	0.0	0.0
