13

C	-0.383613	-0.121073	-1.458778
C	0.0	0.0	0.0
Br	-0.122367	1.717376	-2.362099
H	1.088776	0.0	0.0
H	-1.441914	-0.2751	-1.652808
H	-0.34432	-0.902769	0.513962
N	0.43528	-1.125555	-1.991321
H	1.410132	-0.968236	-1.716478
H	0.346551	-1.212275	-2.99529
N	-0.647817	1.12724	0.700386
O	-0.004038	1.734991	1.550891
O	-1.83278	1.345608	0.431093
H	2.853547	0.0	0.0
