13

C	-0.532811	0.036996	-1.415849
C	0.0	0.0	0.0
Br	-0.314299	-1.805004	-2.249413
H	1.086952	0.0	0.0
H	0.163743	0.625195	-2.013622
H	-0.353202	0.913962	0.488771
N	-1.854866	0.529667	-1.522947
H	-2.46443	0.012458	-0.901929
H	-2.19505	0.468634	-2.473466
N	-0.607213	-1.10914	0.776503
O	0.109308	-1.993121	1.226691
O	-1.838095	-1.067899	0.929682
H	2.862037	0.0	0.0
