15

C	0.0	0.0	0.0
C	-0.574307	0.033824	-1.406739
Br	1.946974	0.0	0.0
H	-1.621659	0.351897	-1.263129
H	-0.356363	-0.859695	0.562867
N	-0.389606	1.214533	0.806873
O	-0.575086	2.258269	0.194722
O	-0.434228	1.058578	2.021345
C	-0.602188	-1.375975	-1.999921
H	-1.004684	-1.340715	-3.014117
H	-1.273054	-1.987622	-1.39303
H	0.396274	-1.820713	-2.032553
C	0.107694	0.967188	-2.297039
N	0.635196	1.658889	-3.086968
Br	-3.587122	0.0	0.0
