12
Coordinates from ORCA-job run
  C   -0.32835653215300      0.40143270412528      0.27969142053354
  C   0.84157555917493     -0.57731112038238      0.45661086325301
  Br  -0.69873071118240      1.11112958715304      2.15052070904418
  H   0.52197169081901     -1.38842302976093      1.11785450545313
  H   1.67676226047056     -0.06821001876525      0.94146092381382
  C   0.07217129648799      1.57266799355903     -0.49850992023205
  N   0.39736119541426      2.50505384083610     -1.13559840359806
  N   -1.43065334633625     -0.23173399389702     -0.32240885892164
  H   -2.19887069617615      0.39889588048084     -0.51027881148508
  H   -1.75281945046115     -1.03243362826717      0.20674826847561
  C   1.26851184367551     -1.12433706751388     -0.83059867811347
  N   1.63007689026668     -1.56673114756766     -1.85549201822300
