12
Coordinates from ORCA-job run
  C   -0.33167477191499      0.47312804024305      0.39367120678915
  C   0.82569661247385     -0.55234476583940      0.46299137461599
  Br  -0.61107553323961      1.09538756675141      2.24159129225383
  H   1.73713524715297     -0.08191405727255      0.84046325879198
  H   0.54251202594441     -1.34820399223353      1.15774250907784
  C   0.08679335111508      1.62626314362038     -0.40761656438938
  N   0.45922751129961      2.53112737293817     -1.05811045195907
  N   -1.58103859746771     -0.02052806982186     -0.10771402544979
  H   -1.87370561526517     -0.85085381849888      0.39359936361421
  H   -1.52016963339435     -0.21608367519013     -1.10117207507687
  C   1.05848770305472     -1.11636597161893     -0.86512476141001
  N   1.20781170024119     -1.53861177307772     -1.95032112685788
