12
Coordinates from ORCA-job run
  C   -0.31305595880049      0.37157569059263      0.43734757372722
  C   0.88206686308308     -0.59332162767321      0.47224114597921
  Br  -0.63648702009019      0.97174857608509      2.27572186192038
  H   1.76469264149599     -0.08539220454630      0.86687422862372
  H   0.62055791839079     -1.42064816830411      1.13622219210713
  C   0.02571832896800      1.57236671170131     -0.34393264419407
  N   0.28464627617776      2.50053498488471     -1.01838273174952
  N   -1.48551242805830     -0.33040439644949     -0.01565643689021
  H   -2.29278328916647      0.28256887636728     -0.01406715222339
  H   -1.33862242077318     -0.67037530279245     -0.96219679216375
  C   1.15549593255473     -1.10287590655654     -0.87074136996523
  N   1.33228315621827     -1.49377723330892     -1.96342987517149
