12
Coordinates from ORCA-job run
  C   -0.24418571319044      0.47105458144085      0.12785311506848
  C   0.97745837141108     -0.29776179332970     -0.40124993945915
  Br  0.16914453570158      0.97742808497564      2.04667804233912
  H   0.83600693461420     -0.44197557776362     -1.47703234932356
  H   1.88583570290853      0.28444582147244     -0.23780554289538
  C   -0.36174701378637      1.74376580662376     -0.58342639500685
  N   -0.44768299852066      2.75064920737362     -1.18306630345976
  N   -1.42231296624549     -0.28832201905799     -0.02916836972445
  H   -2.25143488954185      0.21990705877669      0.25076773675512
  H   -1.37256704727137     -1.16975093252719      0.46932723564352
  C   1.09065705545171     -1.60009166580608      0.24787009292569
  N   1.14182802846909     -2.64934857217840      0.77125267713722
