12
Coordinates from ORCA-job run
  C   -0.33212568701359      0.27337400107957      0.30728959161125
  C   0.52265944998875     -0.93047942967561     -0.11057771548530
  Br  0.10032360929044      0.75657718610584      2.15190741084741
  H   0.29318664613510     -1.74912756279957      0.57540429458547
  H   0.21771833373293     -1.23466976152346     -1.11876072717758
  C   -0.01872153565445      1.44268089625447     -0.52928532055150
  N   0.17842518524810      2.34922439264503     -1.25246753181958
  N   -1.72002706923774     -0.12850442139720      0.26938812015036
  H   -1.99268151807993     -0.31072274503878     -0.69240265033930
  H   -2.31169845254386      0.61144739511356      0.63066999300877
  C   1.95392721400049     -0.64839857539649     -0.11154173714111
  N   3.10701382413379     -0.43140137536738     -0.11962372768888
