12
Coordinates from ORCA-job run
  C   -0.25016442322766      0.52253458742200      0.25162773042998
  C   0.93918121434939     -0.26152359380217     -0.35924716428975
  Br  0.20931258718170      0.92714450022865      2.12068909210254
  H   0.75580759545090     -0.37161341257637     -1.43411315635413
  H   1.87292214908627      0.29060730720821     -0.22824957316436
  C   -0.36445144099753      1.79383895142985     -0.46800396685000
  N   -0.43326899140376      2.78121945250858     -1.10120887902216
  N   -1.52184847889565     -0.14180098835818      0.24221985018390
  H   -1.46529203759120     -1.04029398978599      0.70865972447819
  H   -1.86244259354246     -0.26005180436037     -0.70548742477485
  C   1.04233638443320     -1.58587051605158      0.24364765578379
  N   1.07590803515679     -2.65419049386263      0.72846611147680
