12
Coordinates from ORCA-job run
  C   -0.32244979079487      0.40514283260399      0.28193975145985
  C   0.77794166578724     -0.64861650011653      0.47188022233095
  Br  -0.77010182660049      1.03272748513366      2.16535789461487
  H   0.37283068427020     -1.47429236639368      1.06476814670832
  H   1.60772991276414     -0.21690865382291      1.03473795526246
  C   0.19066808888823      1.59142934705293     -0.40171688282826
  N   0.60735589694587      2.53603621084804     -0.96299956260658
  N   -1.41779630564115     -0.12838733894717     -0.42072481911249
  H   -1.81584078333652     -0.93723672643842      0.03976762873661
  H   -2.13676644862000      0.55549545884114     -0.61745314202566
  C   1.25424121132251     -1.15102572738381     -0.81629350254919
  N   1.65118769501484     -1.56436402137723     -1.84026368999084
