12
Coordinates from ORCA-job run
  C   -0.26896991660817      0.39661686827394      0.27518802044628
  C   1.00978991532682     -0.29855374637042     -0.21493358368172
  Br  -0.25204973643129      0.47988818945281      2.23121691265268
  H   1.88556959031985      0.25754013000005      0.12770325416035
  H   1.01362199789367     -0.27672233651433     -1.31139269318841
  C   -0.25365081446700      1.78848249797379     -0.20606781225366
  N   -0.25367392114665      2.87295193021494     -0.66158071758291
  N   -1.42124766891341     -0.36497280282107     -0.12722705109360
  H   -2.27611152328564      0.05831743422816      0.21424662497467
  H   -1.46446296576437     -0.42579135453435     -1.13978359459550
  C   1.09023000523873     -1.68405351339976      0.23773510554455
  N   1.19095503783744     -2.80370329650376      0.57289553461726
