12
Coordinates from ORCA-job run
  C   -0.31747120057272      0.46002546327983      0.42225334444290
  C   0.76209819091841     -0.64930692236739      0.44893981915380
  Br  -0.65571446138448      0.92823854218027      2.30485539138311
  H   0.38833593480867     -1.48322753704630      1.04989381736939
  H   1.68123763433196     -0.28254982108702      0.91281781976202
  C   0.22227508725225      1.64745210773848     -0.24509697973272
  N   0.68268298807014      2.56968282985060     -0.80918549009795
  N   -1.56843396642979      0.10802477421836     -0.18423857788916
  H   -1.94735827392009     -0.73735189930961      0.22600460099714
  H   -1.46346480076378     -0.00794657680738     -1.18655687510010
  C   1.02694895898377     -1.10527319490608     -0.91408636187243
  N   1.19086390870564     -1.44876776574375     -2.02460050841600
