12
Coordinates from ORCA-job run
  C   -0.35792742517828      0.36177637372684      0.29814455640462
  C   0.71627194580842     -0.72345864963324      0.46049326224962
  Br  -1.04883654632842      0.69330556413250      2.18323946136142
  H   1.46404751236529     -0.39476089889958      1.18473869819109
  H   0.24404981656614     -1.62544432724386      0.86144485029951
  C   0.23073689328474      1.63328468743793     -0.11952155880270
  N   0.70669448495452      2.64932958391988     -0.46886410457624
  N   -1.34977163912468     -0.04089977651481     -0.61429217409968
  H   -1.79894102184779     -0.90569370264125     -0.34009024204829
  H   -2.04192510857654      0.67514789937173     -0.79208869810246
  C   1.35632481379625     -1.02759081452534     -0.81866565522484
  N   1.87827627428037     -1.29299593913081     -1.83553839565207
