12
Coordinates from ORCA-job run
  C   -0.29716391494359      0.33859536671681      0.47332069601973
  C   0.83045670646294     -0.70309877911603      0.41265185397806
  Br  -0.62135901606046      0.74319432902290      2.36417801068327
  H   1.73569798212777     -0.30620486317898      0.87716267330069
  H   0.49968948156131     -1.58220075038504      0.97079741269573
  C   0.13693232515090      1.59597813939077     -0.15750936227613
  N   0.46425389887501      2.57865028310958     -0.71502489895179
  N   -1.50282871413015     -0.22464210214778     -0.07573960009543
  H   -1.35718277451966     -0.46362888555070     -1.05285695137227
  H   -2.26746416010723      0.43805861279247     -0.01579042844978
  C   1.10052133723800     -1.07072335386160     -0.97662397611229
  N   1.27744684834513     -1.34397799679240     -2.10456542941979
