12
Coordinates from ORCA-job run
  C   -0.26593174848930      0.45986300247374      0.12697589693571
  C   1.05159652461203     -0.29221704283383     -0.12043786183419
  Br  -0.47737735924823      0.61980722479409      2.13740931616012
  H   1.25813931435886     -0.25397326134303     -1.19467681176387
  H   1.86709208380585      0.19646492902907      0.41529445137328
  C   -0.13796048584089      1.83606229946792     -0.35182733846195
  N   -0.02986411903905      2.93040718198610     -0.76581280664836
  N   -1.34159106546867     -0.18423597758260     -0.51824740236581
  H   -2.21139382496501      0.32454257837047     -0.42499814676990
  H   -1.46202101278862     -1.13683697583656     -0.19272044176269
  C   0.93899457038990     -1.68667384453408      0.29593721451671
  N   0.81031712267311     -2.81421011399129      0.59510393062092
