12
Coordinates from ORCA-job run
  C   -0.33937867486900      0.39398118465151      0.28831592486577
  C   0.44181365300695     -0.87577337242814     -0.11939545458969
  Br  0.13941434854449      0.81420095305988      2.14659493117149
  H   0.13373193378994     -1.14259484155792     -1.13665189040267
  H   0.14633579050350     -1.68885961079143      0.55011833743779
  C   0.07227013356320      1.51812258166061     -0.55541283055451
  N   0.39282627524232      2.38180692420160     -1.28494606900754
  N   -1.77038802409407      0.26088134555664      0.22186942201753
  H   -2.08627468722287     -0.52906451661415      0.77222875749312
  H   -2.07937741425358      0.16358220225220     -0.73914883236750
  C   1.89138508777132     -0.71271927912765     -0.08301955793493
  N   3.05764157801782     -0.58356357086312     -0.05855273812884
