12
Coordinates from ORCA-job run
  C   -0.36729317336864      0.31683692472605      0.13309178549311
  C   0.52307131294290     -0.91564106655158     -0.07877766207349
  Br  -0.02370397729054      0.98524732019678      2.00544208571086
  H   0.22735607196916     -1.68803482510787      0.63749308826292
  H   0.32208821187115     -1.28815342659574     -1.08811226162864
  C   0.02754121836617      1.40897015462553     -0.75542930847216
  N   0.33414711492350      2.26930724783109     -1.49483676030884
  N   -1.71906154700272     -0.03651130278715     -0.10593432080770
  H   -2.03181986283961     -0.75059271167999      0.54142033789188
  H   -2.33680691246734      0.76348981140306     -0.04494308880712
  C   1.94657336330552     -0.63574147009041      0.06915985904358
  N   3.09590823516089     -0.42817517681158      0.18142441461420
