12
Coordinates from ORCA-job run
  C   -0.35418193664391      0.41125559501931      0.24262457109343
  C   0.47685203415372     -0.86536940706827     -0.01774544320521
  Br  0.11037903046957      1.06591854780603      2.03569796245439
  H   0.17938230484136     -1.26175167913750     -0.99519348743263
  H   0.21456511695860     -1.60547164128930      0.74395912192115
  C   0.00993924966251      1.44399311433901     -0.72995144979153
  N   0.29094372321298      2.22928204186596     -1.55782165021998
  N   -1.77866459732754      0.21404059704686      0.20104907042610
  H   -2.06083007714826     -0.52158455311546      0.83818268020544
  H   -2.08565965357726     -0.00259199920991     -0.74095345637690
  C   1.91897900791745     -0.64231781686079     -0.00886489413097
  N   3.07929579748078     -0.46640279939594     -0.01398302494329
