12
Coordinates from ORCA-job run
  C   -0.16265517502741      0.48559671811641      0.20414193335713
  C   0.86008178646979     -0.43102093873656     -0.48264780873350
  Br  0.62647001289208      1.23167208251772      1.83303084275733
  H   1.75950110388756      0.13886983977351     -0.72764260353269
  H   0.42625569124256     -0.78411696635119     -1.42593620869655
  C   -0.44098523236944      1.62367816308880     -0.68893711061395
  N   -0.71724506373242      2.48617348172241     -1.43964970286723
  N   -1.32312681624964     -0.27655068587018      0.58146548195209
  H   -1.76358381666399     -0.67375529678555     -0.24269536634589
  H   -1.99745766718717      0.30279518386580      1.06760357728141
  C   1.21055925126464     -1.58128617688745      0.34538650118880
  N   1.52118592547343     -2.52105540445372      0.97488046425305
