12
Coordinates from ORCA-job run
  C   -0.35275080298684      0.32016708021283      0.15939252172551
  C   0.49619743898381     -0.92741767679500     -0.12259585189945
  Br  0.07975532788020      0.92001393710690      2.03688747993032
  H   0.21184010989569     -1.71095304774675      0.58618352680250
  H   0.24280210168406     -1.26783882317634     -1.13150277442964
  C   0.03616311987029      1.43057746327087     -0.70880395582731
  N   0.32900681763400      2.31351827340550     -1.42688683088575
  N   -1.72124432361353      0.00901676716512     -0.03841716951608
  H   -2.02978275146537     -0.71565528349459      0.59908310180522
  H   -2.31469820625415      0.82257898620348      0.06699020280701
  C   1.93142549667513     -0.68547246170410     -0.03149147317909
  N   3.09028567169673     -0.50753521444793      0.01116122266676
