12
Coordinates from ORCA-job run
  C   -0.35493092509345      0.40316118683504      0.25421338896616
  C   0.46814916022668     -0.86974951674951     -0.04711862062884
  Br  0.08150277774382      0.97212249787416      2.08328257241161
  H   0.18545804806805     -1.63938889013988      0.67703111536092
  H   0.18382634812827     -1.22034010949667     -1.04570572365898
  C   0.03879158611178      1.47439556714375     -0.66370386342086
  N   0.34517119395473      2.29460222821532     -1.44744874238317
  N   -1.78028697632169      0.22388359469213      0.17702350532378
  H   -2.07075821091304      0.04971191830553     -0.77888669053989
  H   -2.08291252492848     -0.53378465157662      0.77788763227730
  C   1.91182801183331     -0.66119033749192     -0.00411765714712
  N   3.07316151119000     -0.49342348761135      0.01754308343909
