12
Coordinates from ORCA-job run
  C   -0.19906449094291      0.50625174153698      0.04344064434299
  C   0.89197513227599     -0.46019799380958     -0.44540703438223
  Br  0.51880612632816      1.40269307241489      1.71327065857214
  H   1.84040225895899      0.06904406943447     -0.55104301439147
  H   0.58387339422332     -0.83767639317158     -1.42554822635318
  C   -0.36066081869130      1.58761434990132     -0.92820773630755
  N   -0.48745544880793      2.43452221473249     -1.73292768398499
  N   -1.42265719160798     -0.17058893691886      0.23032043089337
  H   -2.17487051964923      0.45457557446663      0.49032818335627
  H   -1.34101827926087     -0.91522659733282      0.91358610273174
  C   1.03992278291026     -1.58243231599682      0.47596851108578
  N   1.11074705426349     -2.48957878525712      1.21721916443714
