12
Coordinates from ORCA-job run
  C   -0.31627693766481      0.35634089086547      0.44635750378645
  C   0.86134251743547     -0.63059628106157      0.46379902611009
  Br  -0.67813535188555      0.87015664865571      2.30368066463315
  H   0.56617353359945     -1.48598072222166      1.07618068206967
  H   1.74033258785064     -0.15967706722605      0.90895558022471
  C   0.06227765922102      1.58817321375209     -0.26501469827432
  N   0.34960093271278      2.54673548673997     -0.88311323387814
  N   -1.48768923452046     -0.30146031302108     -0.07076006457041
  H   -2.28473917754340      0.32452106957578     -0.05919939820824
  H   -1.32155054830478     -0.59861598000767     -1.02837193876985
  C   1.16182527605277     -1.07768762768574     -0.89550521264153
  N   1.34683874304688     -1.43290931836525     -1.99900891048155
