12
Coordinates from ORCA-job run
  C   -0.36623729458599      0.31807293652411      0.13599585760643
  C   0.51584283687034     -0.91789420811424     -0.09238698679475
  Br  -0.02998959622858      0.94954615256640      2.02223286597389
  H   0.20873848271287     -1.69972154857453      0.60883743712536
  H   0.31721260307143     -1.27064444691675     -1.10915293925413
  C   0.04431011806845      1.42259065361227     -0.72970378782519
  N   0.36969317926139      2.29357480457502     -1.44831709869077
  N   -1.71883673208025     -0.02051223713406     -0.11867488716850
  H   -2.33094912611391      0.78299100310667     -0.04743320231142
  H   -2.04162755826668     -0.74368127961056      0.51348062788569
  C   1.94044637261271     -0.65391643744392      0.07125966555798
  N   3.09139671467825     -0.46240539259040      0.19486244789545
