12
Coordinates from ORCA-job run
  C   -0.33373002397225      0.27294305102827      0.30317615349393
  C   0.52125594285114     -0.93369879847262     -0.10648272435905
  Br  0.07048253192559      0.74407241948696      2.15750215640408
  H   0.27593382108468     -1.75411805296822      0.57178795904323
  H   0.23036478238050     -1.23136138263760     -1.12076779636778
  C   -0.00135558937621      1.44557736624186     -0.52126107598474
  N   0.19475521530904      2.36009863386441     -1.23460060906651
  N   -1.72283612414339     -0.12070170143995      0.23999120522706
  H   -1.98034722998014     -0.29856389059686     -0.72671226545714
  H   -2.31664790831239      0.62079460701748      0.59441983336278
  C   1.95356928078139     -0.65853534501038     -0.08367741234805
  N   3.10755530145200     -0.44650690651332     -0.07437542394784
