12
Coordinates from ORCA-job run
  C   -0.34528017207191      0.40448732260232      0.26560793914194
  C   0.45796292915307     -0.87413847782469     -0.06433495137438
  Br  0.13555368828925      0.95206819493763      2.09012120873773
  H   0.14826544627633     -1.21292707801327     -1.05940373812617
  H   0.18289968656133     -1.64697130864841      0.65933570574126
  C   0.04091000969253      1.47984604187544     -0.65079478498763
  N   0.34024758745193      2.30290785622405     -1.43431583072285
  N   -1.77353939498057      0.24101272738350      0.21667961204707
  H   -2.08666784635561      0.08154221574514     -0.73457032080980
  H   -2.07210089523092     -0.51961667696658      0.81575638879324
  C   1.90419406373567     -0.68059467934470     -0.05084757203154
  N   3.06755489747890     -0.52561613797041     -0.05323365640886
