13

C	0.0	0.0	0.0
C	-0.512687	-0.069541	-1.434824
Br	1.978536	0.0	0.0
H	-1.615958	-0.125101	-1.252948
H	-0.275932	0.997411	0.342556
H	-0.224209	0.801397	-2.020832
N	-0.525317	-0.945191	0.929182
H	-1.546867	-0.72042	0.83802
H	-0.390914	-1.869643	0.534577
N	-0.047744	-1.241123	-2.200434
O	-0.080144	-2.348212	-1.659053
O	0.326478	-1.059228	-3.361912
F	-2.789869	0.0	0.0
