13

C	0.0	0.0	0.0
C	-0.318751	-0.058999	-1.516453
Cl	1.788181	0.0	0.0
H	0.210329	0.789304	-1.968822
H	-0.313811	-0.917374	0.499727
H	0.154241	-0.96137	-1.920105
N	-0.549085	1.110436	0.716444
H	-1.528164	0.904666	0.906354
H	-0.517941	1.940619	0.135993
N	-1.69367	-0.018565	-1.941899
H	-2.15184	0.826836	-1.626692
H	-2.248188	-0.746078	-1.506286
Cl	-4.201005	0.0	0.0
