13

C	0.0	0.0	0.0
C	-0.50438	-0.222019	-1.410041
Cl	1.872911	0.0	0.0
H	-0.078484	-1.148575	-1.813843
H	-0.235311	-0.852306	0.63581
H	-1.588296	-0.332153	-1.290874
N	-0.516271	1.179836	0.509138
H	-0.440878	1.945953	-0.141428
H	-0.276301	1.400783	1.459554
N	-0.226903	0.960488	-2.226285
H	0.666721	0.865357	-2.689837
H	-0.948467	1.066745	-2.925469
Cl	-4.153649	0.0	0.0
