13

C	0.0	0.0	0.0
C	-0.334072	0.350538	-1.469031
Cl	1.78902	0.0	0.0
H	0.244999	-0.33923	-2.091184
H	-0.27416	-1.041158	0.210026
H	0.079563	1.351068	-1.633711
N	-0.558657	0.95922	0.907034
H	-1.558941	0.992913	0.703326
H	-0.478423	0.618838	1.858494
N	-1.704003	0.328068	-1.915435
H	-2.154925	-0.551062	-1.695778
H	-2.280121	1.00882	-1.438239
Cl	-4.215942	0.0	0.0
