13

C	0.0	0.0	0.0
C	-0.500623	-0.351322	-1.401234
Cl	1.801862	0.0	0.0
H	0.136517	-1.125333	-1.832818
H	-0.265036	-0.810766	0.681644
H	-1.511583	-0.742934	-1.272561
N	-0.496154	1.234482	0.532629
H	-0.437683	1.908879	-0.224113
H	-1.487275	1.078013	0.721453
N	-0.504933	0.846606	-2.249459
H	-1.465792	1.161891	-2.339055
H	-0.170198	0.621862	-3.175523
Cl	-3.710926	0.0	0.0
