13

C	0.0	0.0	0.0
C	-0.30461	-0.453243	-1.455408
Cl	1.804031	0.0	0.0
H	0.247161	0.23067	-2.111374
H	-0.309291	-0.763926	0.715135
H	0.15453	-1.438712	-1.586465
N	-0.546527	1.254574	0.419611
H	-1.54752	1.110909	0.55387
H	-0.425794	1.941518	-0.318102
N	-1.672061	-0.509991	-1.906986
H	-2.259178	-1.053548	-1.286989
H	-2.103367	0.404658	-1.879292
Cl	-4.153173	0.0	0.0
