13

C	0.0	0.0	0.0
C	-0.505569	-0.15586	-1.425803
Cl	1.85527	0.0	0.0
H	-1.575661	-0.362061	-1.316812
H	-0.260259	-0.879623	0.586924
H	-0.011387	-1.014799	-1.887982
N	-0.506288	1.150549	0.616357
H	-0.350537	1.189069	1.610382
H	-0.216052	2.003192	0.164464
N	-0.350481	1.011309	-2.280426
H	0.582238	1.398343	-2.197947
H	-1.033169	1.708746	-2.01262
Cl	-3.969563	0.0	0.0
