17
Coordinates from ORCA-job run
  C   -0.46879114587865      0.30632256213835     -0.41943920823104
  C   0.70025155950606     -0.36582556657231      0.30133594713206
  F   -0.04426447303819      0.93614668651179     -1.53397973733484
  H   0.29841308062673     -0.91791895012250      1.15825922675298
  N   -1.34086562801399     -0.87332732262331     -0.88471986704975
  O   -1.58859809562577     -0.96399181381849     -2.07884802076880
  O   -1.72911910137763     -1.62429725707643      0.00604046895113
  C   -1.36313636104846      1.19941307321690      0.40349841623292
  H   -1.72705697351949      0.66905261206744      1.28320942993180
  H   -0.81460064013589      2.08990611844625      0.69857695673744
  H   -2.21570040631484      1.49388676662168     -0.21189025368863
  N   1.65085841818106      0.63755694741768      0.92000176570636
  O   2.53599360951953      0.12111621113691      1.59557070716337
  O   1.51120043559531      1.83638275350784      0.70811014030347
  N   1.50541949269983     -1.12708972588152     -0.61352003900107
  H   2.14276792579934     -1.72073121783996     -0.09910809003987
  H   0.94622830302505     -1.69760187713033     -1.23309784279751
