17
Coordinates from ORCA-job run
  C   -0.58491664976998      0.57777048465612     -0.18082130385568
  C   0.91728939619848      0.34355212037419      0.04512927511144
  F   -0.78452492463925      1.92021118714591     -0.06917083820809
  H   1.45598978323765      1.02627559283607     -0.61337056842960
  N   -0.87289212400250      0.23073858758382     -1.63866320007920
  O   -1.35376700233066     -0.87708695555346     -1.85769334624684
  O   -0.55858411821705      1.07397050165106     -2.46855677795021
  C   -1.51303054474533     -0.15719548017871      0.74281204970620
  H   -1.34060313469787     -1.23064762587743      0.71176929596024
  H   -1.35178896064078      0.22228173909222      1.75205946669376
  H   -2.54439667541862      0.04563551141075      0.45338055102329
  N   1.26455330162264     -1.05796190918168     -0.46506344459253
  O   1.62829419679231     -1.15097453749651     -1.63325694967095
  O   1.14656254902250     -1.98044041168113      0.33903385510369
  N   1.25481132387262      0.54757719847851      1.40431894106352
  H   2.24451466665297      0.72147648596341      1.51424645484844
  H   0.99348891706285     -0.25418248922313      1.96484653952251
