17
Coordinates from ORCA-job run
  C   -0.45359518770004      0.51469851223087     -0.23679477546975
  C   0.90401621339513      0.07638675893122      0.33800217859999
  F   -0.25528915759419      1.70336197442881     -0.87151628788633
  H   1.22070902814157      0.87558305864563      1.01008269249971
  N   -0.95931488032943     -0.46709226359615     -1.28487954694494
  O   -1.12134197067291     -0.06353324352865     -2.42343457527327
  O   -1.20033858837021     -1.59586999448129     -0.86107108179105
  C   -1.52045277379806      0.66317252574827      0.81711032875205
  H   -1.71297655304260     -0.28744392485212      1.31019544365838
  H   -1.19697774449388      1.40387748481588      1.55079684353112
  H   -2.43998581660395      1.01702933125186      0.34723445807755
  N   1.90765105919349      0.12221917117648     -0.79543682368744
  O   2.82898923920414      0.92529076915683     -0.70561520285250
  O   1.71915709889750     -0.68425386085936     -1.70124847537821
  N   1.00310183172862     -1.18727497379746      0.97603972597751
  H   0.40558054232267     -1.88555325631593      0.55737929678015
  H   0.87006765972213     -1.13059806895488      1.97315580140700
