17
Coordinates from ORCA-job run
  C   -0.51468564401695      0.22236567047742     -0.36406703022429
  C   0.67261559058759     -0.51486340200162      0.25528099926477
  F   -0.08378582440746      0.85828756084194     -1.48956300575847
  H   0.33037037262638     -1.10205197208977      1.10591169167727
  N   -1.47058945205660     -0.88138173844614     -0.80565066652691
  O   -1.88404411458773     -1.59366598998614      0.10259295131737
  O   -1.75974473615911     -0.94738051867980     -1.98895945636301
  C   -1.27170204739680      1.18370631485043      0.51199993702509
  H   -0.64104842667046      2.03946608793005      0.75007672839423
  H   -2.14780623531790      1.53564059009775     -0.03613174880846
  H   -1.58670903739377      0.70010112254619      1.43486104261096
  N   1.57729336450631      0.56113490592109      0.86941454560332
  O   1.31074206047282      0.90799504598935      2.01801684484298
  O   2.48097317778832      1.00149446787477      0.16583237247834
  N   1.29577203702543     -1.31526173544987     -0.72369380711824
  H   1.67670349898690     -0.75201647249299     -1.47230433669305
  H   2.01664541601303     -1.90556993738265     -0.33361706172193
