17
Coordinates from ORCA-job run
  C   -0.55213419759057      0.53570678446975     -0.09560719485030
  C   0.91869728070306      0.19291469671249      0.18426245459713
  F   -0.74276594484730      1.77139336416094      0.46616480235773
  H   1.54249861366657      0.91895177129660     -0.35083504095884
  N   -0.69250548606528      0.71420766103942     -1.60008084322441
  O   -0.83640333098635     -0.32306903174339     -2.24001944231735
  O   -0.61861200493692      1.85190219940841     -2.04348446553023
  C   -1.58734331611908     -0.42138614765871      0.42003111398825
  H   -1.43673066009850     -0.55789813055461      1.48969251714798
  H   -2.57432749187956      0.00797121248508      0.23675596864205
  H   -1.51371428673207     -1.38510468195118     -0.07510784748069
  N   1.27444324407384     -1.13048712269559     -0.45358454232355
  O   1.92724674556497     -1.05615629105219     -1.49314535006201
  O   0.89729699247547     -2.15619788632055      0.09946568672237
  N   1.10631371461118      0.10581310804213      1.60130187422138
  H   2.08290222900420     -0.04233579850075      1.82453043032719
  H   0.80513789915634      0.97177429286215      2.03065987874328
