17
Coordinates from ORCA-job run
  C   -0.50330475767412      0.25815463359505     -0.26592589073846
  C   0.79530855045458     -0.44633536585365      0.15897974859532
  F   -0.22434705421497      1.09428623856788     -1.30272840806115
  H   0.56404137434292     -1.19165080964182      0.91728910478744
  N   -1.37437034576723     -0.86236360711401     -0.82471039778648
  O   -1.66782290142101     -1.73983038183169     -0.01761117961858
  O   -1.69929161811157     -0.80754688493433     -2.00162712911885
  C   -1.27732338158855      0.98906236086466      0.79724983902050
  H   -1.48236850315547      0.33533886849240      1.64330333851085
  H   -2.21703240605182      1.34465935404307      0.37008686653544
  H   -0.70152827936414      1.84912292575700      1.13849797264391
  N   1.62162772030954      0.60666852728063      0.86642218880384
  O   1.47235881260743      0.68903833191610      2.08451209351001
  O   2.33120215859296      1.31830398987665      0.16644988982676
  N   1.54632342772682     -1.00918987067106     -0.90345170066209
  H   1.30435315609137     -1.97193920516480     -1.08089965392890
  H   1.51117404722324     -0.45477910518209     -1.74683668231958
