17
Coordinates from ORCA-job run
  C   -0.45966189798945      0.18986435705121     -0.37810559335232
  C   0.75981410701858     -0.39527370753330      0.35207405233800
  F   -0.03379987113456      0.78793197732132     -1.52394871574597
  H   0.41880431982130     -0.96475337470163      1.21422624023605
  N   -1.27338183929131     -1.03126502132481     -0.79340901923230
  O   -1.68121167840506     -1.72092117372450      0.13692951361237
  O   -1.44853923683973     -1.22873820068136     -1.98673264523450
  C   -1.34971614409068      1.12442709149873      0.39542477500161
  H   -1.67033835172675      0.66768183992972      1.33018965208627
  H   -2.22211724087356      1.36889919152949     -0.21375634048355
  H   -0.80690308391042      2.04431673181133      0.61222728889483
  N   1.50610851958121      0.79184523700553      0.92221581917697
  O   1.20284416467122      1.12791861316265      2.06595383215467
  O   2.31152000522678      1.34773988839708      0.18589403409104
  N   1.63181460374492     -1.16323296874405     -0.46024067877188
  H   1.39881909215150     -2.14438152525836     -0.45817032054638
  H   1.71394453204601     -0.80205895573904     -1.39977189422490
