17
Coordinates from ORCA-job run
  C   -0.51849343926168      0.09915466243207     -0.36179388893454
  C   0.74149134725139     -0.50557592301310      0.31326327169999
  F   -0.26218929341378      0.27608432588909     -1.69762723274676
  H   0.44071776176616     -1.04378580840831      1.21183310764205
  N   -1.59908169256179     -0.99104184011837     -0.32554609853929
  O   -1.21658588363906     -2.14437702875855     -0.51390310125003
  O   -2.76280355379980     -0.64317992030092     -0.16128747694556
  C   -1.04683992230989      1.37353544050922      0.22763685069442
  H   -0.30215703466622      2.15722168723807      0.08698279919517
  H   -1.96369300886939      1.65705898884823     -0.28462693334441
  H   -1.25149631668489      1.25901719796345      1.29230193424823
  N   1.55483839321976      0.66319661589930      0.80311966917970
  O   1.44071161907540      0.97201303303622      1.98614038767909
  O   2.23321009118471      1.24213675850838     -0.03978543399703
  N   1.59277313227881     -1.31617788845120     -0.49220092878705
  H   1.13846418379835     -2.20128568010125     -0.66986391927575
  H   1.78113361663193     -0.85599462117232     -1.37364300651822
