17
Coordinates from ORCA-job run
  C   -0.43334582150980      0.59905517380170     -0.21593762528019
  C   0.90342259390328      0.10203745177903      0.38024291873394
  F   -0.32855725264995      1.90573769975175     -0.57448460173828
  H   1.31048651918419      0.96035366506178      0.92348587094577
  N   -0.76629738147855     -0.20201076407080     -1.45940287073995
  O   -0.57604128058621     -1.41273089677598     -1.34360345542272
  O   -1.23668757790385      0.38021413256309     -2.42079714575289
  C   -1.59900525824648      0.45758960614853      0.73426821405622
  H   -1.79283475634949     -0.58522260545693      0.97670506598479
  H   -2.48066752423898      0.89313165910488      0.26036451051223
  H   -1.38624532783579      1.01307372529794      1.64968752603380
  N   1.90458892869731     -0.11192478845289     -0.77460392760077
  O   1.78529307318143      0.66017682269984     -1.72161848248703
  O   2.74588453415347     -0.98572092012695     -0.65093734055385
  N   0.89450924253388     -1.03273648558395      1.21356864833193
  H   0.69333873531724     -0.83775970190951      2.17979669828328
  H   0.36215855382831     -1.80426377383153      0.84326599669373
