17
Coordinates from ORCA-job run
  C   -0.51125019552359      0.19519712490307     -0.38328460295891
  C   0.66167978037174     -0.49900324866889      0.30830427994642
  F   -0.07117213224128      0.69392536134468     -1.57269692869286
  H   0.31132249716097     -0.97998468235900      1.22019637113239
  N   -1.49523991418844     -0.92658912089786     -0.69978129443141
  O   -1.79382298153063     -1.11287482771320     -1.86768255864138
  O   -1.91967023179622     -1.52668113292302      0.28170844049115
  C   -1.24241395650345      1.26379492984721      0.38384696392565
  H   -1.56815603474988      0.88887952514371      1.35238853707672
  H   -2.11010418225719      1.57673479654175     -0.20013831333442
  H   -0.59065227925167      2.12418811465811      0.53061352305573
  N   1.59915657780912      0.61418383507617      0.79537335227306
  O   2.51728350205490      0.93948440283177      0.04931023194865
  O   1.34214868729360      1.10283896703951      1.89330052379270
  N   1.25666965980468     -1.41912110704497     -0.57870178977942
  H   1.65102180574871     -0.95229013792217     -1.38452485981026
  H   1.96219939779861     -1.98368279985688     -0.12723187599381
