17
Coordinates from ORCA-job run
  C   -0.47388838219088      0.18811857243975     -0.43154839596197
  C   0.64936813660235     -0.47959860805319      0.36167736858989
  F   0.07154658646268      0.77121830023238     -1.53598532542748
  H   0.22395175257584     -1.02397583163983      1.20323170833663
  N   -1.34784408615100     -0.96504079771987     -0.91392746464657
  O   -1.49558108210332     -1.10691433153920     -2.11637837272320
  O   -1.84877212569354     -1.63598354065613     -0.01812487843811
  C   -1.34910723147334      1.17535411209499      0.29258403767949
  H   -0.76977083254185      2.06072195701309      0.55170775276613
  H   -1.75926345670924      0.73483033054389      1.19944906703469
  H   -2.16237022047691      1.47098434677974     -0.37300886667864
  N   1.45803419762737      0.65490205054748      1.00494128446307
  O   2.43271402311872      1.06921646493786      0.38559005603436
  O   1.04971749948657      1.06990197013056      2.08732146967332
  N   1.39451018706454     -1.32033670822109     -0.48976878392405
  H   1.84898837005048     -0.79284557646400     -1.22326535016750
  H   2.07676666435151     -1.86855271042642      0.01450469338994
