17
Coordinates from ORCA-job run
  C   -0.45921814102597      0.50584252290185     -0.24435332970390
  C   0.90204946080218      0.09226813487302      0.34057854500384
  F   -0.27433187314194      1.68878474453018     -0.89383073022054
  H   1.20633764895580      0.90380722549921      1.00350311447540
  N   -0.94677009416954     -0.49637233687211     -1.28152506082541
  O   -1.17958165196945     -1.62114437815260     -0.84280257524855
  O   -1.10345463700792     -0.11140505611791     -2.42723170544982
  C   -1.53172657059865      0.65415296970461      0.80365244337385
  H   -1.71255268104218     -0.29161042302513      1.31029838151309
  H   -1.22132023518282      1.41039572969530      1.52705246088182
  H   -2.45472530808354      0.98763888324818      0.32569988829048
  N   1.90759665809646      0.13664247043649     -0.79106024884208
  O   1.73927706685266     -0.69256856974643     -1.68003099841999
  O   2.80944861553225      0.96313874566628     -0.71736993422907
  N   1.01456947135616     -1.16185670607006      0.99465831420203
  H   0.42760656311870     -1.87320952242712      0.58317710648938
  H   0.87779570750780     -1.09450443414377      1.99058432870947
