17
Coordinates from ORCA-job run
  C   -0.51597005962303      0.53671069119272     -0.12488324230187
  C   0.97837916145975      0.25308944349759      0.14304622556390
  F   -0.72408563002472      1.80684689104920      0.34904921661175
  H   1.54701089262766      0.99773386978652     -0.41610786408074
  N   -0.68690824101185      0.61754400697573     -1.63567440468651
  O   -0.24320705098836      1.62537569704066     -2.17217482656370
  O   -1.20642917121392     -0.34607372586221     -2.19056929273933
  C   -1.51702461439811     -0.39970883860287      0.48519113047606
  H   -2.52200120077100     -0.06091213320299      0.23116991693929
  H   -1.40818232236636     -0.37366166689818      1.56994717709842
  H   -1.38514276963778     -1.41807953984243      0.12974250172572
  N   1.31011154156270     -1.07963194566238     -0.46392375770304
  O   1.71240872387026     -1.07742398733850     -1.62375278755226
  O   1.11764161407030     -2.06580976568356      0.24251475083168
  N   1.38314155577072      0.24825627247507      1.50956202246236
  H   0.87345177613600     -0.43330012303604      2.05509366392899
  H   1.28680579453775      1.17104485411168      1.91076956998928
