17
Coordinates from ORCA-job run
  C   -0.55999960646208      0.51674672664690     -0.09998956438929
  C   0.89946456873215      0.17711319458610      0.21995908914963
  F   -0.80106637040577      1.69543337768487      0.57904344979818
  H   1.53929009583150      0.90682774593027     -0.29172076252002
  N   -0.68638552197345      0.91433067565267     -1.56658695485401
  O   -1.63014239678219      0.46570715977014     -2.20422397219665
  O   0.15242180616337      1.71323478195095     -1.97134025339134
  C   -1.56977831049215     -0.51453594867085      0.29650704383504
  H   -2.57007842584845     -0.09954812513428      0.18072638456107
  H   -1.39085377231424     -0.77279890058406      1.34000540001127
  H   -1.48799662462124     -1.40135403886727     -0.32875252522956
  N   1.26585151405153     -1.14299354063897     -0.40336000055825
  O   0.79834091242855     -1.36379698946270     -1.51724173694813
  O   2.04619317874915     -1.86274218350248      0.20842076740933
  N   1.05350758861496      0.08009724887854      1.64467305451221
  H   0.98222044665034      1.00417030592679      2.05004760756863
  H   1.95901091767801     -0.31489149016664      1.86383297324189
