17
Coordinates from ORCA-job run
  C   -0.44835415836310      0.22962696604764     -0.36920507788732
  C   0.74702672501147     -0.43314396632672      0.33461562192080
  F   0.01277371719841      0.92719762901622     -1.44288271368479
  H   0.37890011234002     -1.07275522292076      1.13415790495159
  N   -1.25898145892757     -0.93995825402235     -0.91756619570424
  O   -1.40413689719807     -1.02383728066082     -2.12817294972031
  O   -1.69514474877116     -1.71005724629994     -0.06649350865541
  C   -1.35276651761689      1.09671771940283      0.46391367783990
  H   -2.20593168494875      1.40546077151674     -0.14333436896699
  H   -1.70276805281404      0.55782362310703      1.34272208721993
  H   -0.80949872683982      1.98681109875188      0.78068644041285
  N   1.49123822710228      0.68963319131694      1.02504160686378
  O   1.15845603048399      0.93181227132851      2.18419777137396
  O   2.32553685245227      1.29353676933151      0.36239674986079
  N   1.63112471433909     -1.13675336847440     -0.52130654913062
  H   1.38489006765737     -2.10982331742107     -0.61815148301593
  H   1.74763579889451     -0.69029138369323     -1.41961901367800
