17
Coordinates from ORCA-job run
  C   -0.49227243845251      0.18582453946051     -0.33456191693097
  C   0.76809224549214     -0.42265349107866      0.30054728888367
  F   -0.19434626907693      0.57399627136097     -1.60443797961495
  H   0.51452090231167     -0.82733755428771      1.27821535566329
  N   -1.46270732253592     -0.98578429138967     -0.44738309946625
  O   -1.83802863572325     -1.31795885012032     -1.56201062554717
  O   -1.77969472209859     -1.49928414266571      0.62185016892899
  C   -1.17260484533762      1.30591509012038      0.40468932650446
  H   -0.52570306856884      2.18300196854326      0.40942235432284
  H   -1.39071912039349      1.01481587921707      1.43084457758033
  H   -2.10052700617851      1.55866989452550     -0.11211574240849
  N   1.69422903868886      0.74258715012558      0.57362042871471
  O   1.59685506447344      1.26735392348765      1.68183073329954
  O   2.42741941866720      1.09615273350787     -0.34132811524975
  N   1.43607032149999     -1.38650964597576     -0.49728012016372
  H   1.40954724478330     -1.16498679140639     -1.48244758205126
  H   1.11086919244907     -2.32480268342458     -0.32045505246527
