17
Coordinates from ORCA-job run
  C   -0.51973151674441      0.55640451310382     -0.10198840682466
  C   0.91678469091971      0.11062275216513      0.18990967243830
  F   -0.64665458866544      1.77094267326770      0.54379588302139
  H   1.59736776667882      0.77066073853883     -0.36219348100840
  N   -0.65688107527927      0.91741599636782     -1.57731165363738
  O   -1.65259188397080      0.52773464877196     -2.17326864933968
  O   0.23112985366735      1.63209901117899     -2.03133590688985
  C   -1.59646398661891     -0.37766658722235      0.35490092109388
  H   -1.40705079945247     -0.61861399329419      1.40069932489082
  H   -1.60565257670681     -1.28622432862963     -0.24378531952533
  H   -2.56309661190348      0.11398342777623      0.25412298877799
  N   1.15922389399048     -1.25302706150414     -0.39885441616018
  O   0.64144169034095     -1.47135033416864     -1.49080349524620
  O   1.89952600576112     -2.01265335406301      0.21443833857400
  N   1.10402010053664      0.04511870362773      1.61269208859232
  H   1.98330927638392     -0.41072674220232      1.82034650826644
  H   1.11531976106261      0.98427993628604      1.98863560297655
