17
Coordinates from ORCA-job run
  C   -0.50635917408532      0.53675825654658     -0.23305151286620
  C   0.80559676179001      0.14084573644248      0.45174326068311
  F   -0.30792439099761      1.73891157880991     -0.83643354263378
  H   1.09673621227719      0.98392356817749      1.08145148627177
  N   -0.82272561222040     -0.46160640941052     -1.34542349212582
  O   -0.77692042843091     -0.06691222137599     -2.49952713907301
  O   -1.10982714089495     -1.59326733964360     -0.96388307951511
  C   -1.67935062511439      0.60711408130599      0.70616643135698
  H   -1.86538150904747     -0.36183082797401      1.16077820168083
  H   -2.55805147471779      0.93924991018238      0.14974996493864
  H   -1.45915776993650      1.33678502256188      1.48721909502057
  N   1.88915965744964      0.11918595142613     -0.63821859853203
  O   2.57297863230865      1.12892395718945     -0.76863449807171
  O   1.98202607237605     -0.92053840715554     -1.28696761782571
  N   0.70571683576067     -1.05163403795252      1.20004575092936
  H   0.48145353844668     -1.84353315689065      0.61154617503784
  H   1.55203041503646     -1.23237566223947      1.72243911472425
