17
Coordinates from ORCA-job run
  C   -0.50393933396714      0.56884070852347     -0.11750234598682
  C   0.90666624174803      0.09000309033141      0.24242033438909
  F   -0.64495561807472      1.77035245301801      0.54899483539715
  H   1.62759732394107      0.74911838688861     -0.25700757525076
  N   -0.55303535392754      0.96530116103717     -1.58899641346406
  O   -1.51731854399104      0.60271004292830     -2.25011042139536
  O   0.36839296367013      1.67807779228794     -1.97449039897030
  C   -1.61999096419294     -0.35536650902905      0.25755903344218
  H   -2.57134265224722      0.15527112452846      0.11459604367059
  H   -1.49335421645735     -0.62268876949362      1.30641324584960
  H   -1.61073476957610     -1.25015310626219     -0.36160478790685
  N   1.15604483204591     -1.26518558584689     -0.36309311801341
  O   1.83914196021249     -2.05655835012045      0.27586821927896
  O   0.70167319939999     -1.44554902333586     -1.48959228394843
  N   1.01384913484755     -0.00905015342210      1.67138812893345
  H   1.86568841837614     -0.49747547977084      1.91616200043948
  H   1.03361737819274      0.92135221773764      2.06799550353550
