17
Coordinates from ORCA-job run
  C   -0.49434396584780      0.56496144228432     -0.08279689828180
  C   0.97836901263917      0.20123395013271      0.20816816426809
  F   -0.68214112818637      1.78194413250805      0.52129308382154
  H   1.59103683992650      0.98565236446347     -0.23891895461077
  N   -0.59923137524449      0.81638785113992     -1.58058015924220
  O   -0.11196424205874      1.86508704516091     -1.98459814261338
  O   -1.11476982729683     -0.06736192267072     -2.25864001909865
  C   -1.54914189814510     -0.39610177100618      0.38095094634813
  H   -1.43257103327497     -1.37420276553880     -0.07785660659862
  H   -2.53132027504434      0.00304385571622      0.12530446562051
  H   -1.48688786780932     -0.49031102505240      1.46560192864004
  N   1.29692223821041     -1.06387712873165     -0.53535362037655
  O   1.03697848612837     -2.11671822199743      0.04157950581114
  O   1.75826435553200     -0.94381033435766     -1.66656901263874
  N   1.32492938524182      0.02625474101834      1.57912980910615
  H   0.77003344057809     -0.69186938564809      2.02428612903729
  H   1.24683785465160      0.90068717257900      2.07999938080781
