17
Coordinates from ORCA-job run
  C   -0.46476312576581      0.48925297398113     -0.26745518042315
  C   0.87958017963438      0.12550178035178      0.38570895916553
  F   -0.29149488352234      1.67983966615395     -0.90596362145355
  H   1.12038786852651      0.94722546027413      1.06201889593125
  N   -0.86145738034949     -0.52786451458812     -1.32867897280370
  O   -0.97341641285740     -0.14621581279109     -2.48071917946299
  O   -1.07393908975056     -1.66163848521254     -0.90311993912389
  C   -1.59382900786974      0.59486875000442      0.72487458147981
  H   -1.34749487843702      1.35825739761462      1.46525480660314
  H   -2.50223498353413      0.89828676878031      0.20111614352522
  H   -1.76715589097590     -0.35884232213948      1.21899565395492
  N   1.93910607828464      0.20723906434765     -0.69297554715818
  O   1.84577692644993     -0.62548460385025     -1.58968231064114
  O   2.80674150042949      1.06436059901138     -0.57282670969089
  N   1.00476236370409     -1.12422072639504      1.04620812046922
  H   0.46794941085988     -1.85650700485410      0.60411684637596
  H   0.81148132517348     -1.06305899068874      2.03312745325242
