16

C	-0.351467	-0.032873	-1.496435
C	0.0	0.0	0.0
Br	-2.313173	-0.353951	-1.708977
H	1.103984	0.0	0.0
C	-0.105468	1.264522	-2.128292
N	0.099679	2.312386	-2.619652
N	0.360014	-1.070387	-2.195957
H	0.300954	-1.883445	-1.58017
H	1.345464	-0.79272	-2.193838
N	-0.384321	-1.263472	0.589533
H	-1.31002	-1.179477	0.993338
H	0.286711	-1.510839	1.304364
N	-0.596454	1.138436	0.691739
H	-0.294086	1.99686	0.237055
H	-0.173418	1.159962	1.615051
Br	3.510957	0.0	0.0
