16

C	-0.6062	-0.021193	-1.410785
C	0.0	0.0	0.0
Br	0.233516	1.507746	-2.477699
H	1.09627	0.0	0.0
C	-0.249317	-1.2254	-2.158073
N	0.006345	-2.160479	-2.821206
N	-2.011565	0.106495	-1.315265
H	-2.452432	0.19794	-2.220601
H	-2.211881	0.900048	-0.715242
N	-0.431751	-1.21053	0.652041
H	0.227346	-1.468199	1.374114
H	-1.368923	-1.116612	1.021419
N	-0.515117	1.217142	0.667747
H	0.037722	2.001283	0.329807
H	-0.273593	1.114743	1.648004
Br	3.55157	0.0	0.0
