16

C	-0.453865	0.008984	-1.446338
C	0.0	0.0	0.0
Br	-2.731108	0.02529	-1.236259
H	1.095682	0.0	0.0
C	-0.313783	1.260774	-2.163651
N	-0.159918	2.236455	-2.800219
N	-0.059219	-1.082363	-2.13086
H	-0.308216	-1.169054	-3.101843
H	-0.044977	-1.917761	-1.560652
N	-0.351049	-1.310722	0.54681
H	0.304999	-1.533996	1.285174
H	-1.29594	-1.298488	0.913296
N	-0.430017	1.200228	0.66771
H	-1.389921	1.12954	0.982176
H	0.188548	1.39206	1.445494
Br	3.465089	0.0	0.0
