16

C	-0.29702	-0.074015	-1.498228
C	0.0	0.0	0.0
Br	-2.232262	-0.439487	-1.838484
H	1.105595	0.0	0.0
C	-0.065963	1.228074	-2.140264
N	0.165742	2.211917	-2.741302
N	0.47241	-1.154404	-2.05568
H	1.441107	-1.036796	-1.744886
H	0.443242	-1.133012	-3.06775
N	-0.50122	-1.204703	0.666533
H	0.150828	-1.405104	1.419807
H	-0.421539	-1.980212	0.014413
N	-0.511542	1.213392	0.583066
H	-1.356314	0.984479	1.093151
H	0.173746	1.597048	1.220612
Br	3.503513	0.0	0.0
