16

C	-0.541097	0.012969	-1.450603
C	0.0	0.0	0.0
Br	0.128057	1.582886	-2.415005
H	1.098023	0.0	0.0
C	-0.075347	-1.16321	-2.198075
N	0.194639	-2.143464	-2.788286
N	-1.985527	0.093666	-1.387962
H	-2.264672	-0.675157	-0.780138
H	-2.387788	-0.033005	-2.309283
N	-0.554481	-1.231654	0.591543
H	-0.615623	-1.042872	1.585272
H	0.127954	-1.974455	0.469598
N	-0.462556	1.136971	0.761653
H	-1.312446	1.508616	0.354757
H	0.254981	1.847873	0.743182
Br	3.562614	0.0	0.0
