16

C	-0.351811	0.05438	-1.502115
C	0.0	0.0	0.0
Br	0.055704	-1.745945	-2.319186
H	1.102342	0.0	0.0
C	-1.784214	0.242355	-1.742901
N	-2.932213	0.395009	-1.94349
N	0.413981	1.09992	-2.082657
H	0.306843	1.138495	-3.087956
H	1.397	0.961787	-1.841697
N	-0.541329	-1.149305	0.671108
H	-1.316289	-0.853075	1.250248
H	0.171892	-1.589028	1.235144
N	-0.5298	1.237013	0.594065
H	-0.260334	2.011214	-0.00552
H	-0.026353	1.367535	1.467205
Br	3.54708	0.0	0.0
