16

C	-0.324029	-0.016359	-1.502763
C	0.0	0.0	0.0
Br	-2.291765	-0.253276	-1.759507
H	1.103721	0.0	0.0
C	-0.005664	1.269199	-2.128283
N	0.262531	2.306962	-2.609701
N	0.348914	-1.084432	-2.190287
H	1.345692	-0.857652	-2.186925
H	0.236304	-1.894815	-1.583183
N	-0.399442	-1.269135	0.567581
H	-1.320131	-1.170505	0.979802
H	0.267573	-1.539879	1.279343
N	-0.60033	1.131261	0.698861
H	-0.109446	1.213194	1.584756
H	-0.395398	1.98868	0.193073
Br	3.536727	0.0	0.0
