18

C	0.0	0.0	0.0
C	-0.449412	-0.099933	-1.478886
F	1.393417	0.0	0.0
H	-1.541793	-0.226306	-1.425685
C	-0.460044	1.322593	0.572764
H	-1.553524	1.363928	0.482298
H	-0.177634	1.33981	1.627652
H	0.017378	2.159952	0.058343
N	-0.500518	-1.04893	0.831037
H	-1.526332	-0.889606	0.833499
H	-0.364769	-1.942716	0.365915
N	0.136427	-1.360532	-2.04923
O	-0.45034	-2.421669	-1.817732
O	1.196253	-1.276785	-2.664739
N	-0.083687	0.98007	-2.351288
H	0.851508	1.298318	-2.133689
H	-0.737991	1.735664	-2.200595
H	-3.124457	0.0	0.0
