18

C	0.0	0.0	0.0
C	-0.469433	-0.167441	-1.468996
F	1.391618	0.0	0.0
H	-1.53473	-0.428823	-1.386881
C	-0.46537	1.33565	0.535983
H	0.002535	2.160598	-0.004424
H	-0.176616	1.383996	1.587581
H	-1.558412	1.367142	0.450534
N	-0.481039	-1.030094	0.869542
H	-0.330711	-1.931231	0.425872
H	-1.504486	-0.88533	0.879001
N	0.272525	-1.340909	-2.040152
O	1.25138	-1.119062	-2.749095
O	-0.111599	-2.469329	-1.716412
N	-0.307443	0.941699	-2.366051
H	0.577468	1.406061	-2.204572
H	-1.065879	1.58768	-2.185989
H	-3.133861	0.0	0.0
