18

C	0.0	0.0	0.0
C	-0.445103	-0.11816	-1.478929
F	1.420451	0.0	0.0
H	-1.515129	-0.366706	-1.421915
C	-0.454758	1.321503	0.572103
H	-0.168763	1.338396	1.625524
H	-1.547439	1.361066	0.484334
H	0.019716	2.15821	0.056517
N	-0.478344	-1.054386	0.836022
H	-1.501221	-0.900894	0.856684
H	-0.340732	-1.93973	0.357856
N	0.293862	-1.281876	-2.077421
O	1.280977	-1.048415	-2.772674
O	-0.105471	-2.41688	-1.791834
N	-0.24675	1.018971	-2.332865
H	0.647464	1.450848	-2.14161
H	-0.989899	1.677792	-2.135692
H	-3.12122	0.0	0.0
