13

C	-0.329177	-0.042928	-1.49905
C	0.0	0.0	0.0
Cl	-0.047548	1.691739	-2.130054
H	1.094366	0.0	0.0
H	-0.379633	0.908985	0.465424
N	0.495623	-1.007655	-2.102669
H	1.462445	-0.891875	-1.796088
H	0.427183	-1.01137	-3.11107
C	-1.746673	-0.29602	-1.788727
N	-2.882554	-0.498704	-2.010929
C	-0.51272	-1.177715	0.687848
N	-0.952285	-2.103699	1.260703
Cl	3.292822	0.0	0.0
