13

C	-0.538237	0.000136	-1.428864
C	0.0	0.0	0.0
Cl	0.025068	-1.45505	-2.303041
H	1.092524	0.0	0.0
H	-0.311791	0.936847	0.47886
N	-1.987089	-0.027929	-1.427675
H	-2.33092	0.770632	-0.904345
H	-2.334595	0.034951	-2.378352
C	-0.014046	1.174902	-2.154264
N	0.25259	2.154318	-2.746748
C	-0.532116	-1.119061	0.767394
N	-0.951942	-2.004126	1.41356
Cl	3.291323	0.0	0.0
