13

C	-0.329238	-0.396145	-1.447754
C	0.0	0.0	0.0
Cl	-0.059404	1.144316	-2.46654
H	1.092637	0.0	0.0
H	-0.381592	0.992379	0.236953
N	0.496168	-1.473868	-1.815223
H	1.465066	-1.298165	-1.545178
H	0.420604	-1.714004	-2.794519
C	-1.744209	-0.722615	-1.668933
N	-2.875239	-0.992552	-1.837864
C	-0.509945	-0.985162	0.944786
N	-0.940124	-1.759804	1.715447
Cl	3.293839	0.0	0.0
