13

C	-0.344579	0.023621	-1.50458
C	0.0	0.0	0.0
Cl	-0.312733	1.816724	-1.993087
H	1.092633	0.0	0.0
H	-0.397221	0.858685	0.539755
N	0.576312	-0.721648	-2.25909
H	1.496131	-0.797889	-1.833424
H	0.231388	-1.549743	-2.710365
C	-1.720537	-0.402637	-1.785603
N	-2.814597	-0.769583	-2.005894
C	-0.468373	-1.243906	0.600645
N	-0.908713	-2.225874	1.07126
Cl	3.296692	0.0	0.0
