13

C	-0.303733	0.09493	-1.507264
C	0.0	0.0	0.0
Cl	-2.06132	0.424643	-1.790184
H	1.095084	0.0	0.0
H	-0.390277	-0.914514	0.450957
N	0.465122	1.110346	-2.18682
H	0.241543	2.008577	-1.767958
H	1.449155	0.921265	-1.979561
C	-0.025379	-1.211609	-2.122576
N	0.175177	-2.261871	-2.607848
C	-0.480319	1.175903	0.70921
N	-0.864115	2.134354	1.268798
Cl	3.267837	0.0	0.0
