12
Coordinates from ORCA-job run
  C   1.28084292822205     -0.30270976896868     -0.15741098661472
  C   -0.12578326950243     -0.15307917456152      0.42813676560748
  Br  1.44294340298070     -1.93050288123123     -1.20546037515285
  H   -0.35345858770152     -1.05079191052452      1.01314493685614
  H   2.02940309643801     -0.36609542067111      0.63106254312956
  H   1.51656481231062      0.53146597105274     -0.81877865257521
  C   -1.20906740280109      0.05473685053887     -0.63245844508357
  H   -2.18369721918914      0.19020999981078     -0.16107476378045
  H   -1.25901505184117     -0.81104843293538     -1.29290075652770
  H   -0.98995850899540      0.94196480943180     -1.23092165825660
  C   -0.09472419527603      0.98535980899845      1.35347733060950
  N   -0.05305000464462      1.91149014905979      2.07418406178843
