12
Coordinates from ORCA-job run
  C   1.28367136244640     -0.22335299573496     -0.24483506080108
  C   -0.08599233575383     -0.15747566662052      0.43574727620661
  Br  1.47567517019966     -1.84472805149057     -1.29762338715491
  H   -0.21647101555819     -1.06311144723472      1.03827205010999
  H   2.08690299063949     -0.23436460483741      0.49063677454770
  H   1.42058795232566      0.61974361132301     -0.92262076797354
  C   -1.25073857522433     -0.02566706470752     -0.54794693080850
  H   -1.29110702257177     -0.89738021751680     -1.20103394358939
  H   -1.12998773605298      0.86934166790685     -1.16244570638181
  H   -2.19714790319549      0.05141664751681     -0.01068812905682
  C   -0.06398424163151      0.98692876419143      1.35379080803101
  N   -0.03240864562311      1.91864935720439      2.06774701687075
