12
Coordinates from ORCA-job run
  C   1.22037691812109     -0.55046150356091     -0.19551433406829
  C   -0.11211174353820     -0.17067047232756      0.44886524841712
  Br  1.86767651356950      0.79521890827114     -1.43543575247866
  H   -0.35726053914534     -0.99788838185438      1.12903320593654
  H   1.10493632233704     -1.47524376765188     -0.76182481546662
  H   1.99656242559575     -0.67823099383273      0.55830015113277
  C   -1.25626882286666     -0.01153484625969     -0.55479524104069
  H   -1.07144880086917      0.82869619490609     -1.22366175339767
  H   -1.35183166797499     -0.92085314112264     -1.15324680859036
  H   -2.19850120926905      0.16067579354414     -0.03226923681917
  C   0.02973167493913      1.02979765805288      1.27730351179073
  N   0.12913892910090      1.99149455183553      1.94324582458429
