12
Coordinates from ORCA-job run
  C   1.22032156619965     -0.56973701010467     -0.13083832317434
  C   -0.13647560408554     -0.16596753504883      0.44440098686345
  Br  1.94705575175448      0.75698849136145     -1.34676680411460
  H   -0.42685405326180     -0.98346390261979      1.11848058139491
  H   1.11905102283658     -1.49695695313156     -0.69578131075653
  H   1.95669241233295     -0.70312112175569      0.66093828369048
  C   -1.22724111960080      0.00147962790045     -0.61583892632156
  H   -2.19253585457806      0.18535538120940     -0.14167287090196
  H   -1.30256884255300     -0.90841940036164     -1.21612503994078
  H   -1.00021170896078      0.83764632077615     -1.27663010807057
  C   -0.01855153005498      1.04000767657801      1.26898432883573
  N   0.06131795997131      2.00618842519672      1.93084920249578
