12
Coordinates from ORCA-job run
  C   1.21905160735466     -0.56588456454552     -0.15666094856618
  C   -0.12175115280220     -0.15698643621024      0.45157960221892
  Br  1.89903877306340      0.73641541968542     -1.42457865270247
  H   -0.38632952699890     -0.96182355260865      1.15103270625350
  H   1.98054227737294     -0.67693907590051      0.61447847881667
  H   1.10594430262243     -1.50648042669933     -0.69664187181891
  C   -1.24582495048287     -0.01775258139966     -0.57743132984378
  H   -1.33440290808667     -0.94068325803144     -1.15584522597945
  H   -2.19696932153545      0.17102308339308     -0.07709885791596
  H   -1.04436715276266      0.80547877654337     -1.26249701206633
  C   0.01470551173524      1.06638760642016      1.24714609813068
  N   0.10936254052007      2.04624500935331      1.88651701347333
