15

C	-0.61597	-0.032525	-1.402434
C	0.0	0.0	0.0
Cl	-2.376374	0.1152	-1.317864
H	1.095122	0.0	0.0
N	-0.03475	1.100561	-2.317887
O	-0.791547	1.961691	-2.72111
O	1.151199	0.954601	-2.552943
C	-0.271179	-1.283029	-2.068223
N	-0.055076	-2.295234	-2.626059
C	-0.470586	-1.15192	0.753126
N	-0.832549	-2.109793	1.329554
N	-0.38037	1.269571	0.707263
O	-0.710131	1.196641	1.884789
O	-0.264998	2.294884	0.044332
Cl	3.074776	0.0	0.0
