15

C	-0.58067	-0.039564	-1.418955
C	0.0	0.0	0.0
Cl	-2.341733	0.121499	-1.386531
H	1.095114	0.0	0.0
N	0.034946	1.081548	-2.328781
O	1.219662	0.910107	-2.552866
O	-0.698531	1.96079	-2.736617
C	-0.223926	-1.298535	-2.062835
N	0.006513	-2.317073	-2.603432
C	-0.485845	-1.148628	0.746697
N	-0.859781	-2.104775	1.318467
N	-0.390647	1.273246	0.692311
O	-0.765621	1.205154	1.856602
O	-0.240785	2.296125	0.033063
Cl	3.077446	0.0	0.0
