15

C	-0.565858	-0.019296	-1.427259
C	0.0	0.0	0.0
Cl	-2.325208	0.158031	-1.417025
H	1.095037	0.0	0.0
N	0.075133	1.1071	-2.315572
O	-0.647922	1.983777	-2.747859
O	1.26755	0.939825	-2.498007
C	-0.208981	-1.273983	-2.079491
N	0.025918	-2.287458	-2.628353
C	-0.498866	-1.150806	0.732861
N	-0.886602	-2.107893	1.293848
N	-0.387315	1.270886	0.698277
O	-0.762916	1.197547	1.862131
O	-0.232992	2.296962	0.045353
Cl	3.082074	0.0	0.0
