15

C	-0.441721	0.017565	-1.458416
C	0.0	0.0	0.0
Cl	-0.170934	-1.588867	-2.159257
H	1.096444	0.0	0.0
N	-1.96023	0.287729	-1.589643
O	-2.645411	0.001686	-0.619657
O	-2.345852	0.709703	-2.66923
C	0.26072	1.007474	-2.264594
N	0.805538	1.81042	-2.927678
C	-0.479299	-1.14081	0.758506
N	-0.819811	-2.072971	1.386846
N	-0.407042	1.270201	0.685391
O	-0.313918	1.291388	1.90372
O	-0.75114	2.204797	-0.035731
Cl	3.053962	0.0	0.0
