15

C	-0.539048	-0.012648	-1.427152
C	0.0	0.0	0.0
Cl	-2.309124	-0.114008	-1.489396
H	1.101431	0.0	0.0
N	-0.068733	1.245404	-2.218332
O	-0.685327	1.487669	-3.243908
O	0.90865	1.815768	-1.773876
C	0.014425	-1.153962	-2.153225
N	0.43007	-2.081914	-2.746069
C	-0.437944	-1.200147	0.69723
N	-0.789892	-2.174569	1.251831
N	-0.46177	1.199221	0.774733
O	-1.022229	2.106555	0.164258
O	-0.215976	1.175483	1.972576
Cl	3.081044	0.0	0.0
