16

C	-0.187295	0.166362	-1.504819
C	0.0	0.0	0.0
Cl	-1.89526	0.637285	-2.014905
H	1.096	0.0	0.0
H	-0.425668	-0.947701	0.338014
C	0.805634	1.19293	-2.037338
H	1.771087	0.920054	-1.581605
H	0.841647	1.186731	-3.126967
H	0.51992	2.189209	-1.696014
C	0.047592	-1.127068	-2.158929
N	0.234532	-2.165862	-2.67403
C	-0.483184	1.17541	0.833611
H	0.083889	2.069932	0.596202
H	-1.542379	1.390299	0.712796
H	-0.297383	0.964342	1.885464
F	2.707109	0.0	0.0
