16

C	-0.257927	-0.053556	-1.510427
C	0.0	0.0	0.0
Cl	0.038226	1.579935	-2.25078
H	1.094697	0.0	0.0
H	-0.330737	-0.975176	0.384651
C	0.756641	-1.019956	-2.119848
H	0.516116	-2.036685	-1.791631
H	0.744775	-0.981745	-3.2113
H	1.729943	-0.735613	-1.690005
C	-1.642459	-0.393489	-1.851312
N	-2.750115	-0.713785	-2.084159
C	-0.667155	1.126749	0.763109
H	-1.752719	1.165269	0.605596
H	-0.486344	0.993901	1.833858
H	-0.241806	2.089913	0.477434
F	2.728721	0.0	0.0
