18

C	0.0	0.0	0.0
C	-0.496114	0.054093	-1.455764
Cl	1.798974	0.0	0.0
H	-1.593531	0.053696	-1.306446
C	-0.304364	1.281938	0.686984
N	-0.43718	2.303672	1.254786
N	-0.568858	-1.1428	0.638455
H	-1.604946	-0.962594	0.522307
H	-0.367501	-1.102316	1.633944
C	-0.083518	-1.197711	-2.22119
H	0.984782	-1.186885	-2.458697
H	-0.641855	-1.247727	-3.161191
H	-0.302595	-2.090783	-1.637325
C	-0.09562	1.324351	-2.193591
H	0.989946	1.41589	-2.290117
H	-0.477954	2.214481	-1.68962
H	-0.523338	1.303955	-3.200713
H	-3.018565	0.0	0.0
