18

C	0.0	0.0	0.0
C	-0.28952	-0.057318	-1.522771
Cl	1.854321	0.0	0.0
H	-1.381874	-0.026314	-1.524109
C	-0.849262	1.059749	0.618123
N	-0.777626	2.125849	1.172862
N	-0.332975	-1.274465	0.615226
H	0.367174	-1.951003	0.332202
H	-0.262765	-1.152136	1.616564
C	0.115777	-1.361827	-2.206255
H	1.202695	-1.516536	-2.168782
H	-0.394589	-2.222783	-1.759943
H	-0.175353	-1.31317	-3.257828
C	0.231677	1.161778	-2.273376
H	1.298413	1.072196	-2.477651
H	0.065002	2.077896	-1.69592
H	-0.287851	1.254454	-3.225487
H	-2.244042	0.0	0.0
