18

C	0.0	0.0	0.0
C	-0.478311	0.013872	-1.468358
Cl	1.801626	0.0	0.0
H	-1.573542	0.068906	-1.317932
C	-0.349964	1.291274	0.634597
N	-0.5224	2.334642	1.146208
N	-0.550717	-1.041193	0.813881
H	-1.583923	-0.848302	0.736134
H	-0.374568	-1.928472	0.353365
C	-0.142299	-1.279142	-2.200676
H	-0.600986	-2.149039	-1.724772
H	-0.540121	-1.228661	-3.218675
H	0.938343	-1.442308	-2.26817
C	-0.003153	1.227314	-2.258372
H	-0.243447	2.158534	-1.740061
H	-0.509831	1.249329	-3.228469
H	1.075645	1.20055	-2.439298
H	-3.017354	0.0	0.0
