18

C	0.0	0.0	0.0
C	-0.375843	0.132024	-1.542202
Cl	1.808003	0.0	0.0
H	0.567398	0.24416	-2.082652
C	-0.324531	1.250903	0.716911
N	-0.490676	2.255341	1.303055
N	-0.568728	-1.074869	0.751969
H	-1.596202	-0.855259	0.712768
H	-0.431147	-1.935641	0.233192
C	-1.228143	1.362579	-1.857428
H	-0.697028	2.28736	-1.616674
H	-1.449685	1.369402	-2.930199
H	-2.16011	1.302371	-1.291251
C	-1.063919	-1.129862	-2.051148
H	-0.467561	-2.033766	-1.886517
H	-1.216761	-1.034022	-3.131703
H	-2.03717	-1.21946	-1.559532
H	-3.12215	0.0	0.0
