18

C	0.0	0.0	0.0
C	-0.492793	0.010158	-1.461851
Cl	1.801632	0.0	0.0
H	-1.586199	0.084818	-1.29801
C	-0.343643	1.296787	0.629546
N	-0.501704	2.348761	1.128263
N	-0.55285	-1.033364	0.823745
H	-1.5854	-0.836147	0.746171
H	-0.384616	-1.922342	0.367321
C	-0.196079	-1.295992	-2.186108
H	-0.592236	-1.238565	-3.204489
H	-0.683864	-2.147378	-1.705535
H	0.87912	-1.493691	-2.251999
C	-0.005899	1.206759	-2.268694
H	1.068158	1.153567	-2.471378
H	-0.213478	2.147074	-1.75215
H	-0.532212	1.234325	-3.228076
H	-3.015334	0.0	0.0
