18

C	0.0	0.0	0.0
C	-0.488053	0.188137	-1.441309
Cl	1.854181	0.0	0.0
H	-1.581638	0.255277	-1.275962
C	-0.277945	1.236048	0.775584
N	-0.425822	2.23531	1.379354
N	-0.579545	-1.17386	0.546926
H	-0.397488	-1.20808	1.546115
H	-1.619525	-0.971077	0.425218
C	-0.190106	-1.036276	-2.296171
H	-0.659884	-0.916519	-3.278639
H	0.887476	-1.160691	-2.447031
H	-0.582377	-1.938494	-1.82792
C	0.010029	1.467283	-2.100621
H	-0.19968	2.347496	-1.488863
H	-0.504333	1.599751	-3.057728
H	1.085838	1.429486	-2.296448
H	-3.002587	0.0	0.0
