18

C	0.0	0.0	0.0
C	-0.248761	-0.005052	-1.575133
Cl	1.808092	0.0	0.0
H	0.566013	0.604727	-1.975858
C	-0.371548	1.319778	0.541598
N	-0.56747	2.398096	0.965692
N	-0.596088	-1.012176	0.796503
H	-1.629519	-0.790454	0.693295
H	-0.428531	-1.910564	0.354422
C	-1.528298	0.606753	-2.146058
H	-1.335209	0.779643	-3.216064
H	-1.778378	1.557449	-1.676431
H	-2.395042	-0.030141	-2.001059
C	-0.073014	-1.423821	-2.110255
H	-0.899567	-2.059082	-1.780684
H	-0.092041	-1.404411	-3.204591
H	0.874516	-1.87288	-1.799337
H	-3.052283	0.0	0.0
