18

C	0.0	0.0	0.0
C	-0.377513	0.387406	-1.483896
Cl	1.852618	0.0	0.0
H	0.573942	0.592308	-1.977226
C	-0.265953	1.122351	0.930317
N	-0.416937	1.990208	1.7101
N	-0.587194	-1.223335	0.41776
H	-1.621412	-1.005592	0.326684
H	-0.398556	-1.355601	1.408257
C	-1.22621	1.656327	-1.59785
H	-1.418036	1.852183	-2.659572
H	-2.174281	1.493283	-1.080423
H	-0.717419	2.528834	-1.179425
C	-1.04312	-0.770291	-2.22495
H	-2.050504	-0.915035	-1.825099
H	-1.11654	-0.500023	-3.284272
H	-0.472031	-1.695952	-2.134488
H	-3.075856	0.0	0.0
