16

C	0.0	0.0	0.0
C	-0.242402	0.348013	-1.515591
F	1.41034	0.0	0.0
H	0.592402	-0.182533	-1.988597
C	-0.440257	1.049271	0.991383
H	-1.528981	1.126017	0.953618
H	0.025813	2.014242	0.785389
H	-0.138424	0.717777	1.98922
N	-0.476099	-1.328204	0.210847
H	-1.496279	-1.28917	0.102458
H	-0.299746	-1.581114	1.17832
C	-0.028125	1.774653	-1.780178
N	0.195481	2.906499	-1.999201
C	-1.421473	-0.138114	-2.244605
N	-2.137972	-0.55822	-3.0762
Br	-3.741046	0.0	0.0
