16

C	0.0	0.0	0.0
C	-0.196723	-0.16867	-1.545519
F	1.413439	0.0	0.0
H	0.61852	0.419735	-1.99551
C	-0.577039	1.284408	0.501812
H	-0.261558	1.460233	1.529523
H	-1.672207	1.215556	0.459861
H	-0.237871	2.100126	-0.113233
N	-0.395009	-1.072046	0.803253
H	-0.039096	-1.975291	0.55258
H	-1.22027	-1.041866	1.420182
C	-1.408421	0.350525	-2.16355
N	-2.196139	0.897077	-2.850218
C	0.091652	-1.559422	-1.943024
N	0.406874	-2.662175	-2.189052
Br	-4.127429	0.0	0.0
