16

C	0.0	0.0	0.0
C	-0.499137	-0.069489	-1.459577
F	1.384536	0.0	0.0
H	-1.605846	-0.077121	-1.39279
C	-0.417559	1.301961	0.661866
H	-1.505374	1.377133	0.665937
H	-0.052114	1.287567	1.693177
H	0.023609	2.161922	0.152872
N	-0.451553	-1.201064	0.641894
H	-0.188806	-1.157016	1.620902
H	-1.473943	-1.197732	0.60319
C	-0.032216	-1.291504	-2.120796
N	0.346568	-2.24269	-2.694928
C	-0.070303	1.096006	-2.234431
N	0.263538	2.035372	-2.854485
Br	-3.736772	0.0	0.0
