16

C	0.0	0.0	0.0
C	-0.259825	0.245418	-1.532429
F	1.41015	0.0	0.0
H	0.614733	-0.245131	-1.976882
C	-0.435159	1.110433	0.925102
H	-1.523613	1.187964	0.894926
H	0.026736	2.060229	0.64923
H	-0.118993	0.84833	1.939178
N	-0.466506	-1.315322	0.299444
H	-1.489982	-1.282971	0.217523
H	-0.262068	-1.512533	1.27478
C	-0.16	1.663232	-1.890375
N	-0.010788	2.788621	-2.190526
C	-1.393569	-0.388716	-2.216765
N	-2.073525	-0.939183	-3.000932
Br	-3.715751	0.0	0.0
