16

C	0.0	0.0	0.0
C	-0.2682	-0.144851	-1.569792
F	1.4135	0.0	0.0
H	0.666319	0.202722	-2.026107
C	-0.437086	1.361641	0.482768
H	0.009611	2.139283	-0.141059
H	-0.087067	1.477003	1.509861
H	-1.524949	1.432323	0.449254
N	-0.484976	-1.023423	0.839335
H	-1.501515	-0.907598	0.899446
H	-0.294514	-1.939935	0.448335
C	-1.30918	0.692898	-2.173102
N	-1.94469	1.424919	-2.838756
C	-0.416031	-1.549326	-1.949083
N	-0.461388	-2.691581	-2.219302
Br	-3.701396	0.0	0.0
