13

C	-0.430425	0.012325	-1.493737
C	0.0	0.0	0.0
Cl	0.269224	-1.415988	-2.302495
H	1.097194	0.0	0.0
C	-1.891415	-0.044825	-1.622592
N	-3.062923	-0.091285	-1.71121
C	0.056136	1.230035	-2.149355
N	0.398659	2.200541	-2.716395
C	-0.499757	-1.200979	0.660742
N	-0.901323	-2.168131	1.193664
C	-0.496259	1.201965	0.662939
N	-0.895755	2.17702	1.183576
Cl	3.088513	0.0	0.0
