13

C	-0.405971	-0.000873	-1.492988
C	0.0	0.0	0.0
Cl	-2.201451	-0.00103	-1.666331
H	1.098472	0.0	0.0
C	0.106025	1.200092	-2.157649
N	0.477805	2.157466	-2.729027
C	0.106559	-1.201672	-2.1577
N	0.478526	-2.159123	-2.72969
C	-0.488562	-1.203999	0.66134
N	-0.874671	-2.177832	1.193331
C	-0.489063	1.204866	0.659332
N	-0.875476	2.17933	1.189955
Cl	3.069443	0.0	0.0
