13

C	-0.403569	-0.000629	-1.493584
C	0.0	0.0	0.0
Cl	-2.198912	-0.001798	-1.670012
H	1.098454	0.0	0.0
C	0.109707	1.200339	-2.157413
N	0.482093	2.157552	-2.728789
C	0.111038	-1.201419	-2.156658
N	0.484318	-2.158681	-2.727146
C	-0.489419	-1.204213	0.660381
N	-0.876861	-2.177954	1.191598
C	-0.48946	1.2047	0.659484
N	-0.877066	2.178949	1.189667
Cl	3.068297	0.0	0.0
