13

C	-0.431293	-0.006323	-1.4933
C	0.0	0.0	0.0
Cl	0.271723	1.422899	-2.297411
H	1.097213	0.0	0.0
C	0.050446	-1.22306	-2.154669
N	0.395758	-2.18859	-2.72964
C	-1.89226	0.056036	-1.620054
N	-3.063395	0.106097	-1.709774
C	-0.496625	-1.204703	0.657805
N	-0.899457	-2.180845	1.173859
C	-0.499711	1.197948	0.666378
N	-0.903175	2.162134	1.203131
Cl	3.086092	0.0	0.0
