13

C	-0.43075	0.014716	-1.493467
C	0.0	0.0	0.0
Cl	0.270297	-1.412715	-2.303739
H	1.097152	0.0	0.0
C	-1.891678	-0.044542	-1.621053
N	-3.063778	-0.094184	-1.699201
C	0.054839	1.233418	-2.147844
N	0.403485	2.205358	-2.709376
C	-0.499973	-1.201218	0.660746
N	-0.891799	-2.170825	1.196506
C	-0.4957	1.202193	0.663929
N	-0.886595	2.179286	1.187296
Cl	3.087893	0.0	0.0
