13

C	-0.403626	-0.000939	-1.493471
C	0.0	0.0	0.0
Cl	-2.199041	-0.00275	-1.669711
H	1.098462	0.0	0.0
C	0.109278	1.199919	-2.157855
N	0.484276	2.155562	-2.730365
C	0.111599	-1.201614	-2.156271
N	0.490544	-2.156087	-2.727467
C	-0.489315	-1.204264	0.660368
N	-0.877264	-2.178118	1.190993
C	-0.489546	1.20465	0.659558
N	-0.877731	2.178881	1.189384
Cl	3.067479	0.0	0.0
