12

C	0.0	0.0	0.0
C	-0.239932	-0.13451	-1.5091
F	1.35752	0.0	0.0
H	0.341332	-1.0243	-1.774039
H	-0.419337	-0.760512	0.649251
H	0.29713	0.717081	-1.934915
N	-0.375516	1.339248	0.572056
O	-0.515602	1.376408	1.790142
O	-0.366573	2.30127	-0.189053
C	-1.502223	-0.240356	-2.240342
N	-2.166633	-0.377434	-3.203752
Br	-3.29469	0.0	0.0
