12

C	0.0	0.0	0.0
C	-0.241411	-0.164958	-1.506423
F	1.357444	0.0	0.0
H	0.378672	0.617631	-1.952227
H	-0.423006	-0.743853	0.665356
H	0.252683	-1.114369	-1.73975
N	-0.370561	1.355558	0.539903
O	-0.386441	2.292846	-0.251615
O	-0.474211	1.432767	1.759579
C	-1.500867	-0.152086	-2.250034
N	-2.171098	-0.186894	-3.217433
Br	-3.298272	0.0	0.0
