16

C	-0.009063	-0.006051	0.011609
C	-0.614886	-0.024538	-1.390737
Cl	1.798399	-0.14539	0.025145
H	-1.745155	0.026511	-1.152681
C	-0.311511	1.280589	0.673433
N	-0.536893	2.225272	1.335838
N	-0.57835	-1.13371	0.687758
H	-1.608553	-0.975522	0.579369
H	-0.317921	-1.090111	1.666846
N	-0.303055	-1.306749	-2.085142
O	-1.166929	-2.176465	-2.066421
O	0.798728	-1.398008	-2.626784
N	-0.187314	1.070303	-2.290575
O	-0.560218	0.971649	-3.457885
O	0.441465	2.016293	-1.821765
F	-2.840218	-0.109807	-0.128907
