16

C	0.002263	-0.010371	0.011039
C	-0.59682	-0.025071	-1.3942
Cl	1.810214	-0.145627	0.032666
H	-1.728282	0.02322	-1.161159
C	-0.305838	1.273348	0.675845
N	-0.536663	2.216432	1.338635
N	-0.567548	-1.141773	0.680315
H	-0.312283	-1.100949	1.660877
H	-1.597602	-0.985555	0.567154
N	-0.279591	-1.304465	-2.091455
O	-1.142162	-2.175561	-2.080119
O	0.82499	-1.392014	-2.627976
N	-0.167117	1.07342	-2.288504
O	-0.534525	0.977827	-3.457813
O	0.457943	2.018939	-1.813831
F	-2.827652	-0.119526	-0.142636
