16

C	0.054656	-0.037265	-0.02233
C	-0.683405	0.057487	-1.373199
Cl	1.84266	-0.211609	-0.256834
H	-1.793235	0.065128	-1.025217
C	-0.138163	1.24409	0.679039
N	-0.246402	2.247305	1.279903
N	-0.440194	-1.085012	0.824592
H	-1.475966	-0.957007	0.757459
H	-0.208416	-1.962084	0.372145
N	-0.528229	-1.124586	-2.258699
O	0.009602	-2.143542	-1.828786
O	-1.034278	-1.013103	-3.371996
N	-0.283492	1.252845	-2.157397
O	0.660241	1.150144	-2.940914
O	-0.915432	2.284233	-1.930143
F	-2.814757	-0.331618	-0.030356
