12
Coordinates from ORCA-job run
  C   0.09692121759834      0.34167540092682      0.08506690154118
  C   1.19211569045290     -0.42445074837560     -0.15704021277569
  H   2.18754699385232      0.01051776313952     -0.14679899491355
  C   -1.30100458321880     -0.19861116708585      0.09481211861937
  H   -1.32033920729555     -1.26523962903381     -0.12239324162803
  H   -1.75684690609592     -0.02793267881866      1.07359242800050
  H   -1.91192791691767      0.31669989802390     -0.65332026071146
  N   0.20011563270619      1.67284499432376      0.43288959050433
  H   -0.59576010535497      2.24675056273975      0.20500828056576
  H   1.08258674430902      2.11837056804061      0.23470376072110
  C   1.09872675610157     -1.81807814293270     -0.41362058077877
  N   1.02786568386256     -2.97254682094772     -0.63289978914474
