12
Coordinates from ORCA-job run
  C   0.03742592029638      0.31991459872579     -0.17199750186300
  C   1.15103838575009     -0.44260524312372     -0.32375299454167
  H   2.02257691475541     -0.05544731040609     -0.84397600321801
  C   -1.20011775538993     -0.15800249499182      0.52505192693264
  H   -2.04922211717930     -0.12286070481869     -0.16245191851630
  H   -1.08550601134644     -1.17635335453094      0.89238914657171
  H   -1.43136074598397      0.49166536969877      1.37524961057285
  N   -0.06912397294338      1.57540830633273     -0.73450459367458
  H   -0.69965060164206      2.20932136140766     -0.27020597569431
  H   0.79515602159116      2.01053035043193     -1.01818235638043
  C   1.22815097682021     -1.77441872534591      0.16334153090640
  N   1.30063298527182     -2.87715215337971      0.56903912890469
