12
Coordinates from ORCA-job run
  C   -0.11601120504313      0.08232452476044     -0.01548236862072
  C   0.56430445004789     -1.07870626099776     -0.21144558276471
  H   0.03551980551153     -2.00051398382160     -0.41400179635953
  C   -1.61363358653534      0.12930203073274     -0.05175295470485
  H   -1.95003496341739      0.79906868432916     -0.84740398892444
  H   -2.03540397552800     -0.86026571825291     -0.22267199799691
  H   -2.00861493779836      0.51116881607032      0.89516321288710
  N   0.50204722565663      1.30082238478590      0.13534517860214
  H   1.49060953449648      1.28254015489189      0.34055616677849
  H   -0.00992375944318      1.99881429048652      0.64966080871836
  C   1.98378511547444     -1.10222021627044     -0.16018978186238
  N   3.15935629657843     -1.06233470671425     -0.09777689575255
