12
Coordinates from ORCA-job run
  C   -0.12141856083413      0.07551158952246      0.00455264275072
  C   0.55970372634350     -1.08647716815925     -0.18326397413961
  H   0.06055963514626     -2.04127196387826     -0.08516954718801
  C   -1.57374303045372      0.08215356368602      0.37438177947670
  H   -2.15492784435704      0.60256550353861     -0.39121698251134
  H   -1.72580006226155      0.60721806918254      1.32279033759102
  H   -1.95817071053253     -0.93140689751229      0.48008390899988
  N   0.43023453679213      1.31470301040054     -0.21386024705457
  H   1.43597606557039      1.35537406612672     -0.29255323476485
  H   0.02557103028339      2.08188188050297      0.29696137287422
  C   1.93923591781380     -1.06897072052299     -0.52156995100605
  N   3.08277929648951     -0.99228093288705     -0.79313610502814
