12
Coordinates from ORCA-job run
  C   -0.11993779353367      0.07629658209380      0.01613412440676
  C   0.58148540202577     -1.08541440606536      0.10487288838547
  H   0.07039605038761     -2.03859549864839      0.12985992814374
  C   -1.61596668992737      0.08422390782473     -0.07292788191524
  H   -2.01605387435081     -0.92879308441887     -0.07497177297413
  H   -1.94311669429515      0.58404942821289     -0.99024950165194
  H   -2.04065466160469      0.63024777190216      0.77340058614076
  N   0.46616514906249      1.31665961783400      0.09123653286527
  H   1.46874206642794      1.35162476661984     -0.02265779733334
  H   -0.02576750463438      2.07261150715666     -0.35571696163258
  C   2.00013525759856     -1.06945843856752      0.17613256072487
  N   3.17457329284369     -0.99445215394394      0.22488729484035
