12
Coordinates from ORCA-job run
  C   0.09416115241737      0.33100948132467      0.12169192599652
  C   1.18734720980418     -0.46487091178163     -0.00743944176083
  H   2.18345824582178     -0.07439348744041      0.18079788868139
  C   -1.30652714216012     -0.14750675828501     -0.11366054463552
  H   -1.77891796989855      0.43945379076018     -0.90792195921083
  H   -1.32838712880400     -1.19674584097548     -0.40332221836630
  H   -1.89977951867338     -0.01836072693461      0.79532166379344
  N   0.18811554268262      1.63185299900933      0.57217386993371
  H   1.10481898712946      2.05026042867717      0.53806041187985
  H   -0.54442652817516      2.25298207365613      0.26808958252041
  C   1.08741803610208     -1.83454087286989     -0.36908405590630
  N   1.01171911375372     -2.96914017514045     -0.67370712292554
