12
Coordinates from ORCA-job run
  C   -0.12112626963859      0.07551709463638      0.00768245341563
  C   0.58058587121655     -1.02663465573200     -0.36950675744531
  H   0.07348799682903     -1.95914367781036     -0.57876503962934
  C   -1.61072367760169      0.03980018319228      0.16836788743128
  H   -2.08008538595479      0.75148740056194     -0.51569901275462
  H   -2.00479351760926     -0.95541658472421     -0.03307301403360
  H   -1.89413627753774      0.32071999234245      1.18770257696730
  N   0.45442036538524      1.31162046495548      0.17837326656655
  H   1.46143908790213      1.33552598518021      0.24995430489320
  H   -0.01802776740714      1.94127796256057      0.80607914669392
  C   1.99360900009050     -0.97098351676458     -0.50618216892444
  N   3.16335057432576     -0.86477064839816     -0.59393364318058
