12
Coordinates from ORCA-job run
  C   0.09736563929378      0.35172251117677      0.02228396988982
  C   1.19298915496274     -0.44974206087819     -0.02768400686031
  H   2.19215023985778     -0.03294074927015      0.06075183270315
  C   -1.30515136919324     -0.16118270068891     -0.10445889353835
  H   -1.32680151406598     -1.24121057133110     -0.23937227850598
  H   -1.79648029023679      0.31224164165421     -0.95854795761430
  H   -1.88187647580451      0.08657929431299      0.79246005115954
  N   0.20074004676997      1.72524692242258      0.10744690522394
  H   1.09398677659238      2.08615404851628      0.40511974685374
  H   -0.57998662780027      2.19455173557742      0.53765956247015
  C   1.09437359710672     -1.85331664227155     -0.22089976119923
  N   1.01969082251742     -3.01810342922035     -0.37475917058217
