12
Coordinates from ORCA-job run
  C   0.09111811452997      0.34774900660983     -0.06413372814751
  C   1.15264464893119     -0.47495339863899     -0.26775323751100
  H   2.12850281722483     -0.06989960151371     -0.52047225399733
  C   -1.28167856420227     -0.14721909960936      0.27693054231263
  H   -1.31199810153716     -1.23373305161394      0.33791251569423
  H   -1.60420183866485      0.26166107356919      1.23980475230818
  H   -1.99424207586817      0.18487588745196     -0.48264326369099
  N   0.18088422371631      1.71253272159084     -0.24601347606027
  H   1.11187502150634      2.09906869044343     -0.26461139756778
  H   -0.46978443615798      2.26752719764440      0.28626524575631
  C   1.04135925868373     -1.88836112258596     -0.18508217813710
  N   0.95652093183806     -3.06024830334768     -0.11220352095938
