12
Coordinates from ORCA-job run
  C   -0.12386111445133      0.06965982167006      0.00076677094421
  C   0.60380579218652     -1.07883110473988     -0.03561010368834
  H   0.15510964048991     -2.02572705899773      0.23342610893682
  C   -1.55906508060621      0.07579873037005      0.43230040763505
  H   -1.88734138742391     -0.92053387773796      0.72484438275708
  H   -2.19537960356752      0.43237266679080     -0.38187201933129
  H   -1.70059929395586      0.74772567104557      1.28465693103849
  N   0.35930823525210      1.28011915255322     -0.43436213940248
  H   -0.06397251673407      2.10080960665327     -0.03323979680653
  H   1.35801612039193      1.35034217406211     -0.56454055833049
  C   1.96452309146531     -1.05786100190182     -0.44328925938220
  N   3.08945611695311     -0.97487477976769     -0.78208072437032
