12
Coordinates from ORCA-job run
  C   -0.12492615391301      0.06798301354601      0.01418441811903
  C   0.60454753136372     -1.06842826478857     -0.14734853223503
  H   0.19675176777758     -2.03018884611092      0.13406205203054
  C   -1.50545795568327      0.03766659530211      0.59671451521334
  H   -1.79516897278569     -0.97566263316102      0.87156486668646
  H   -2.22745116154383      0.42818936987771     -0.12519039739851
  H   -1.55788555088783      0.66416020950056      1.49289586104217
  N   0.29798423222295      1.30123714509697     -0.41998382625415
  H   -0.08419015743935      2.09920370813734      0.06061334661441
  H   1.27710821319035      1.38830363749798     -0.65114377279766
  C   1.91637652833989     -1.01268465328390     -0.68977285497450
  N   3.00031167935852     -0.89977928161428     -1.13659567604610
