12
Coordinates from ORCA-job run
  C   -0.11563200096097      0.06675978901936      0.05094177741838
  C   0.59853178771196     -1.06228238316482     -0.20414112350115
  H   0.10575496285917     -2.02290844644769     -0.27462936716105
  C   -1.60375002004850      0.03066847545666      0.22543449312990
  H   -1.99086160155047     -0.97951821258155      0.09862836215914
  H   -1.87527090443772      0.39049506723959      1.22131250569908
  H   -2.09237723313353      0.67964618775261     -0.50833821107367
  N   0.46655938822525      1.29421907326766      0.25613193762070
  H   -0.10345516645592      2.09915004542764      0.05465258529063
  H   1.43140539747638      1.39015696773099     -0.02561085989342
  C   2.00730837909011     -1.00135748221144     -0.37669716073216
  N   3.17078701122423     -0.88502908148902     -0.51868493895638
