12
Coordinates from ORCA-job run
  C   0.10094162527756      0.34855670348412      0.04084031395954
  C   1.18739422773819     -0.46140897105775     -0.05350233213785
  H   2.19089201922495     -0.05953484754686      0.05465630287999
  C   -1.30760428488391     -0.14100013536517     -0.10872779955794
  H   -1.79437670924117      0.37801891345361     -0.93856794183266
  H   -1.88038750437084      0.06987604571516      0.80014131303738
  H   -1.34199974370767     -1.21318420198471     -0.29452171736770
  N   0.22088926748381      1.71441100026957      0.19589732317107
  H   -0.55373905402339      2.17231522846475      0.64870842361502
  H   1.11917768287481      2.04958819502787      0.50781770897539
  C   1.07336141392200     -1.85177806081371     -0.31937203494614
  N   0.98545105970564     -3.00585986964688     -0.53436955979610
