12
Coordinates from ORCA-job run
  C   -0.12179780985346      0.07372603155003     -0.00232074205801
  C   0.58804706347443     -1.06870398363511     -0.20418796509548
  H   0.09154669834544     -2.02947999888013     -0.23403427946388
  C   -1.60574457242112      0.04871892219447      0.20615303788932
  H   -1.98778411812257     -0.97121922474033      0.19589865867658
  H   -2.10645866969680      0.62158492952335     -0.57878792603774
  H   -1.86583382551415      0.50281337875465      1.16768969162759
  N   0.43759877054166      1.32715308958016     -0.06341779979744
  H   1.44542334135977      1.37623807864789     -0.02671462405870
  H   -0.03028910537209      2.05162640361407      0.45582431221357
  C   1.99568858260780     -1.01919420422261     -0.38962565721015
  N   3.16060364465109     -0.91326342238643     -0.52747670668565
