12
Coordinates from ORCA-job run
  C   -0.12269478417735      0.07290296336234     -0.00375978927142
  C   0.61560631814881     -1.04808417328491     -0.22231704786450
  H   0.13624804785945     -2.01150265633819     -0.33386661937092
  C   -1.61606720692092      0.01834571679774      0.10967169270575
  H   -1.98095080547580     -1.00418393536269      0.02190699449116
  H   -1.94393122690023      0.41792636814715      1.07454656834592
  H   -2.07434151215466      0.62548136034344     -0.67535640047537
  N   0.41980414623715      1.33508514292621      0.03532162623514
  H   1.42264203370780      1.39222363113669      0.13850800233007
  H   -0.08756443122467      2.02197671268473      0.56870514333731
  C   2.03053832925376     -0.97187315573779     -0.32407781899892
  N   3.19971109164666     -0.84729797467473     -0.39128235146422
