12
Coordinates from ORCA-job run
  C   0.09762949700013      0.34932764031439     -0.04137473494517
  C   1.14387943078323     -0.47844609882743     -0.29665343190929
  H   2.12795533559613     -0.07578810197643     -0.51983056129735
  C   -1.28585496103790     -0.13997450258796      0.26240669077357
  H   -1.60670812786764      0.21539955615541      1.24697564233105
  H   -1.98768310060054      0.25120601312231     -0.47893386929603
  H   -1.33642644448197     -1.22753680239649      0.25740105473587
  N   0.21456809173730      1.72119403313739     -0.13096166843956
  H   1.15309600582583      2.08941983450358     -0.12259437354321
  H   -0.42631485974483      2.25215661774386      0.43657848800337
  C   1.00574815325683     -1.89181429211813     -0.30539231278992
  N   0.89911097953343     -3.06414389707049     -0.30762092362332
