12
Coordinates from ORCA-job run
  C   -0.12068391813242      0.07523650151676     -0.00799186226097
  C   0.63869179916046     -1.01063687583936     -0.31375647445325
  H   0.17761140203168     -1.93046025491089     -0.64809758439033
  C   -1.61593160948710      0.03821111419391     -0.10162036371694
  H   -1.96528258005765      0.77836864698817     -0.82617395739475
  H   -1.96722143607995     -0.94649224850037     -0.40711002843015
  H   -2.06856258536732      0.27918661913686      0.86537646592135
  N   0.41317468151680      1.29974980220064      0.31481265621416
  H   1.39353629746832      1.31640799655327      0.55617079496149
  H   -0.16050460455146      1.89956132186887      0.88469312967588
  C   2.05473862562668     -0.95250522414389     -0.21245937622285
  N   3.22243392787196     -0.84562739906397     -0.10184339990364
