12
Coordinates from ORCA-job run
  C   0.10029180107486      0.35109924912612      0.00270085081280
  C   1.18354606593565     -0.45932574774164     -0.11964365023417
  H   2.17727917827415     -0.04161169633714     -0.25469114718579
  C   -1.29414774744974     -0.16127848359879      0.20053725432049
  H   -1.70114603947143      0.22496483269810      1.13868920822447
  H   -1.32198622891633     -1.24931517168041      0.22533896370234
  H   -1.94278904094435      0.18200915803053     -0.61186052300552
  N   0.21806070734385      1.72516533238296      0.04330543135216
  H   -0.58996218299788      2.24224915705207     -0.26411876130243
  H   1.08819652182011      2.10831771453261     -0.29222082593517
  C   1.08041643427105     -1.87429606045120     -0.05756385054092
  N   1.00124053106006     -3.04797828401321     -0.01247295020827
