12
Coordinates from ORCA-job run
  C   0.05871592232534      0.25539365916254      0.25367752932756
  C   1.21381285389377     -0.38570964832395     -0.06218835133306
  H   2.15890621081859     -0.07216435320911      0.37170374646448
  C   -1.27740601000650     -0.12938714431666     -0.30524816932227
  H   -1.72332279853218      0.71715064595165     -0.83704567275756
  H   -1.19710799046652     -0.96552627133624     -0.99760878763811
  H   -1.95358478904429     -0.40622066118754      0.50789039081353
  N   0.01848772563247      1.26370773571533      1.19459134564222
  H   -0.72798192888374      1.93173144075518      1.08808411854408
  H   0.90195598435397      1.68711432911119      1.43252292282097
  C   1.24697663391956     -1.49143899440621     -0.95264968060305
  N   1.28254818598952     -2.40465073791618     -1.69472939195880
