12
Coordinates from ORCA-job run
  C   0.06041777077868      0.33944291036445     -0.12055717246061
  C   1.05700351183272     -0.49590558943284     -0.51327913904590
  H   1.92000675757748     -0.11619430290032     -1.05292115127090
  C   -1.15916488620135     -0.12242274276016      0.61790119579205
  H   -1.13457520105568     -1.19521232307827      0.80153395494210
  H   -2.05520389043919      0.11755128625049      0.03959149845158
  H   -1.23564258973417      0.39078632988634      1.58188800419015
  N   0.05607286873534      1.67780978183683     -0.45553167180435
  H   0.93579756106045      2.06461130154930     -0.76047248572564
  H   -0.45108399689353      2.28366843755314      0.16922523830647
  C   1.01625805289815     -1.89275435842108     -0.26028780628673
  N   0.99011404144110     -3.05038073084789     -0.04809046508822
