12
Coordinates from ORCA-job run
  C   -0.12541172840847      0.06718242828045      0.01399273447202
  C   0.62270184576122     -0.99393341667973     -0.39115912496564
  H   0.16877075635595     -1.96425319037215     -0.54188717908155
  C   -1.59296904579104     -0.06651889542532      0.28692820084376
  H   -2.16136560188071      0.58749731014634     -0.37925040049419
  H   -1.92798013292069     -1.09291694542390      0.14388599629224
  H   -1.82048535747041      0.22690387034345      1.31671182133868
  N   0.37343926302944      1.34341002315805      0.11616673410274
  H   -0.09536337949114      1.95646250737230      0.76260311334519
  H   1.37833745600846      1.43958631550848      0.10880039106816
  C   2.01469956369314     -0.84402046548941     -0.63149373319349
  N   3.16462636111424     -0.65739954141857     -0.80529855372792
