12
Coordinates from ORCA-job run
  C   0.08924077787865      0.34802212362439     -0.06387410419118
  C   1.07037624813660     -0.48811849511350     -0.49198150467342
  H   1.94414828908449     -0.10033239704803     -1.00799194805756
  C   -1.13511441583999     -0.12091178029777      0.66219193374981
  H   -1.13593888043360     -1.20209387352662      0.78985177812414
  H   -1.18454434841261      0.35208619513631      1.64664759706637
  H   -2.03677393324029      0.16212591960905      0.10941040075208
  N   0.19417886326927      1.71856043992780     -0.18699050216389
  H   -0.67791838656464      2.22100496334439     -0.23117623175222
  H   0.88039913405481      2.05503480003542     -0.84463302441214
  C   1.01636632977263     -1.89070915053694     -0.27670336266750
  N   0.97458032229469     -3.05466874515450     -0.10575103177450
