12
Coordinates from ORCA-job run
  C   0.09194369793799      0.34412171771725     -0.08034259960355
  C   1.11106959513947     -0.50755245008077     -0.36515520245520
  H   2.06707979001229     -0.13120815234047     -0.71812096829035
  C   -1.25290808578783     -0.11111782518573      0.39961654512160
  H   -2.02501130954041      0.21098951251202     -0.30398232458751
  H   -1.47989851366083      0.33556028312135      1.37291589451703
  H   -1.29698440800117     -1.19426066919537      0.50012779003311
  N   0.19314357763474      1.70236641315012     -0.30154943757436
  H   1.12621326089243      2.06633396032195     -0.41758229618052
  H   -0.39178224409624      2.28372552946413      0.27694332912174
  C   0.97865071767754     -1.91563789268279     -0.23696592982270
  N   0.87748392179200     -3.08332042680169     -0.12690480027928
