12
Coordinates from ORCA-job run
  C   0.09076778862267      0.35254924983513     -0.02296584996209
  C   1.12627659897613     -0.43603966050527     -0.41191964848410
  H   2.08677175209542     -0.00172281127718     -0.67438027609814
  C   -1.26059699404562     -0.18178106211663      0.34379298327828
  H   -1.30106662113106     -1.26590329297927      0.25396521802888
  H   -1.50780325896305      0.08874655182777      1.37538584286081
  H   -2.02100055264574      0.25641851173641     -0.30782339179693
  N   0.18342516121902      1.72900723380737     -0.02036259239672
  H   1.11470818577517      2.11407468528552     -0.05221986402593
  H   -0.42466761557763      2.20774481959579      0.62426121380253
  C   1.00450295801080     -1.84714276304991     -0.51414242322748
  N   0.91068259766389     -3.01795146215972     -0.59359121197910
