12
Coordinates from ORCA-job run
  C   0.07913370747263      0.33518704296511     -0.12157995001007
  C   1.10124455000499     -0.52316271930248     -0.37342940976017
  H   2.02664399725924     -0.16917203037168     -0.81906966510946
  C   -1.22570575775381     -0.09041485281296      0.48044759252069
  H   -1.24198165401518     -1.15908168434314      0.68770263719909
  H   -2.04386593231921      0.15031915439106     -0.20326146379428
  H   -1.40426880394543      0.44586936892940      1.41796317043795
  N   0.13474433109757      1.66408404079838     -0.48983213769947
  H   1.05144407921520      2.03046169628794     -0.69530477577436
  H   -0.42890562885526      2.29204318645027      0.06048442530842
  C   1.00964790403100     -1.91197577708077     -0.09103380086919
  N   0.94286920780825     -3.06315742591111      0.14591337755083
