12
Coordinates from ORCA-job run
  C   -0.11590767877356      0.08146953012233     -0.01735435883750
  C   0.61510534567219     -1.03223581871741     -0.29103381612026
  H   0.14168569199247     -1.91967640787544     -0.68952391942737
  C   -1.59802836035226      0.12000017873061     -0.23609449852721
  H   -1.85138559758280      0.89863575082182     -0.96022934941611
  H   -1.96650040966781     -0.83669658930475     -0.60398481046602
  H   -2.11922812054987      0.35114296089064      0.69839316537394
  N   0.44562559618861      1.26939619316645      0.38501592507085
  H   -0.14530734411028      1.88320763089794      0.92142383608595
  H   1.40150894720969      1.23083873704529      0.70821322333551
  C   2.01775288738397     -1.04720272901253     -0.06575738773403
  N   3.17467904258965     -0.99987943676496      0.14993199066226
