16

C	-0.27323	-0.095302	-1.485708
C	0.0	0.0	0.0
Br	-0.036628	1.642097	-2.348066
H	1.099233	0.0	0.0
H	-0.319347	-0.967336	0.418181
C	0.689974	-1.0898	-2.103057
H	0.644516	-1.084111	-3.190679
H	0.435079	-2.091899	-1.739516
H	1.677918	-0.816186	-1.707531
N	-1.712981	-0.486203	-1.805651
O	-1.980381	-0.83009	-2.955362
O	-2.529139	-0.454381	-0.88189
N	-0.577991	1.145553	0.67276
H	-1.4135	0.887412	1.179445
H	0.107006	1.501522	1.321413
F	2.711841	0.0	0.0
