16

C	-0.212142	-0.044722	-1.515068
C	0.0	0.0	0.0
Br	-0.042068	1.773087	-2.238575
H	1.093705	0.0	0.0
H	-0.46229	0.884035	0.43752
C	0.814235	-0.938437	-2.17248
H	1.775714	-0.649255	-1.719389
H	0.598151	-1.975116	-1.898994
H	0.807133	-0.857218	-3.258594
N	-1.635115	-0.45191	-1.884879
O	-2.54368	-0.039147	-1.165251
O	-1.800713	-1.179387	-2.863651
N	-0.420908	-1.212694	0.687127
H	0.284164	-1.926353	0.568072
H	-1.326078	-1.554315	0.391273
F	2.713322	0.0	0.0
