16

C	-0.309832	-0.140927	-1.476054
C	0.0	0.0	0.0
Br	-0.141279	1.605492	-2.355615
H	1.098769	0.0	0.0
H	-0.435087	0.912219	0.414279
C	0.634923	-1.125466	-2.121
H	0.546239	-1.145477	-3.20626
H	1.634637	-0.82857	-1.776973
H	0.408143	-2.112731	-1.713011
N	-1.769618	-0.528091	-1.696324
O	-2.597471	-0.070192	-0.910965
O	-2.041269	-1.263128	-2.644016
N	-0.441129	-1.234691	0.657642
H	0.307906	-1.54178	1.261568
H	-1.274299	-1.077048	1.206261
F	2.698044	0.0	0.0
