16

C	-0.277953	0.004024	-1.50369
C	0.0	0.0	0.0
Br	0.115851	1.754408	-2.252309
H	1.091907	0.0	0.0
H	-0.34943	-0.976428	0.359425
C	0.64094	-1.013976	-2.150366
H	0.367397	-2.011863	-1.802635
H	1.642887	-0.770257	-1.772536
H	0.589268	-0.979339	-3.240798
N	-1.743614	-0.31303	-1.759435
O	-2.547712	0.575544	-2.014006
O	-2.048286	-1.49708	-1.590777
N	-0.615404	1.105204	0.718295
H	-1.186716	0.764242	1.477488
H	0.126637	1.668156	1.115069
F	2.703034	0.0	0.0
