16

C	-0.670041	0.039292	-1.357123
C	0.0	0.0	0.0
Br	0.065478	-1.372263	-2.498524
H	1.097597	0.0	0.0
H	-0.340561	-0.925223	0.484774
C	-2.174859	-0.102461	-1.307814
H	-2.625055	-0.052741	-2.298073
H	-2.413908	-1.064375	-0.848834
H	-2.569098	0.708132	-0.692276
N	-0.313033	1.355315	-2.042827
O	-1.226156	1.971197	-2.597216
O	0.852948	1.714109	-1.997096
N	-0.443771	1.208121	0.726527
H	-0.965697	0.96244	1.557001
H	0.409764	1.6694	1.023721
F	2.643995	0.0	0.0
