16

C	0.0	0.0	0.0
C	-0.451633	-0.156817	-1.443984
Cl	1.789745	0.0	0.0
H	0.319436	0.231343	-2.109438
H	-0.329199	0.991669	0.29748
C	-0.443397	-1.042284	1.011093
H	-1.535285	-1.030509	0.958488
H	-0.080738	-0.733566	1.995558
H	-0.017392	-2.020677	0.780394
N	-1.65341	0.663496	-1.843637
O	-1.549588	1.852827	-1.572095
O	-2.408499	0.171476	-2.669406
N	-0.621772	-1.568135	-1.916034
O	-1.405868	-2.314534	-1.348044
O	0.078057	-1.873658	-2.889569
F	-2.622356	0.0	0.0
