16

C	0.0	0.0	0.0
C	-0.630478	-0.00385	-1.36806
Cl	1.780449	0.0	0.0
H	-1.753791	-0.134538	-1.078786
H	-0.332696	0.92536	0.462721
C	-0.45833	-1.189145	0.833267
H	-0.079879	-1.073557	1.85177
H	-0.070565	-2.122346	0.422211
H	-1.549651	-1.16144	0.813166
N	-0.045665	-1.060156	-2.233093
O	-0.467646	-2.203035	-2.059002
O	0.85561	-0.752439	-3.012631
N	-0.49706	1.285902	-2.09735
O	-0.962023	1.308064	-3.234808
O	-0.006467	2.252341	-1.516157
F	-2.813554	0.0	0.0
