16

C	0.0	0.0	0.0
C	-0.370575	0.130267	-1.477351
Cl	1.780832	0.0	0.0
H	0.00605	-0.725917	-2.033981
H	-0.364934	0.859534	0.551411
C	-0.416942	-1.320642	0.626552
H	-0.035483	-2.15366	0.028015
H	-1.507068	-1.301139	0.668314
H	0.033101	-1.389282	1.621241
N	0.293222	1.325857	-2.110621
O	0.58705	1.201851	-3.30091
O	0.43258	2.34251	-1.442844
N	-1.814812	0.287139	-1.96117
O	-2.234697	1.428324	-2.087416
O	-2.281414	-0.719982	-2.48013
F	-2.597541	0.0	0.0
