16

C	0.0	0.0	0.0
C	-0.687695	-0.101887	-1.337053
Cl	1.776156	0.0	0.0
H	-1.831997	-0.052775	-0.971182
H	-0.319764	0.96114	0.397427
C	-0.478038	-1.118102	0.91388
H	-1.569005	-1.078851	0.88994
H	-0.10176	-0.943612	1.92398
H	-0.09905	-2.084939	0.574437
N	-0.392789	-1.386025	-2.024475
O	0.759393	-1.580841	-2.411948
O	-1.317055	-2.192993	-2.128067
N	-0.358971	1.01287	-2.252592
O	-0.151466	2.110586	-1.736075
O	-0.396682	0.80333	-3.464892
F	-2.884021	0.0	0.0
