16

C	0.0	0.0	0.0
C	-0.456857	0.00295	-1.452659
Cl	1.781951	0.0	0.0
H	0.318269	0.450216	-2.074925
H	-0.334441	0.950039	0.408029
C	-0.439778	-1.15154	0.889304
H	-0.003938	-2.094857	0.552959
H	-0.080095	-0.951224	1.902786
H	-1.531316	-1.15007	0.841736
N	-1.649159	0.873368	-1.756471
O	-2.407104	0.486138	-2.634129
O	-1.541184	2.02157	-1.344902
N	-0.642505	-1.348679	-2.07202
O	0.050842	-1.555512	-3.075794
O	-1.429069	-2.145487	-1.582246
F	-2.622093	0.0	0.0
