16

C	0.0	0.0	0.0
C	-0.456132	-0.022501	-1.452525
Cl	1.789889	0.0	0.0
H	0.315525	0.421748	-2.081526
H	-0.328128	0.960314	0.387647
C	-0.445306	-1.129909	0.910865
H	-0.085909	-0.911459	1.920272
H	-0.01795	-2.082912	0.593203
H	-1.537563	-1.117375	0.859075
N	-1.655122	0.8383	-1.768612
O	-2.406614	0.437304	-2.645714
O	-1.550285	1.992299	-1.374068
N	-0.636178	-1.383528	-2.050098
O	0.056645	-1.604813	-3.05098
O	-1.421898	-2.17327	-1.547417
F	-2.635858	0.0	0.0
