11
Coordinates from ORCA-job run
  C   0.43450488700837      0.29506908779251     -0.02622101837318
  C   -0.43514614782102     -0.73308231933593     -0.22629644732991
  H   -0.08750032421705     -1.58696308695795     -0.79834927822555
  N   1.78024318863865      0.21813503104792     -0.56828055429411
  O   2.51860701929519      1.17183240399345     -0.33338549054880
  O   2.08500974813485     -0.78066134736480     -1.21564465290957
  C   0.07781228111544      1.45016715827584      0.71413436598949
  N   -0.34775262374533      2.34686145961577      1.34714335475898
  N   -1.70409579612225     -0.76135479547295      0.20785693100833
  H   -2.25651127975282     -1.59211858184925      0.10192058514901
  H   -2.06617095253404     -0.02788500974461      0.79712220477532
