11
Coordinates from ORCA-job run
  C   0.39645803680814      0.29990455397337     -0.17141116132792
  C   -0.28208198669234     -0.68686718731171      0.47605966030374
  H   0.29500209107691     -1.42405723589516      1.02432549158117
  N   1.84793293156932      0.33521067987167     -0.11446888803953
  O   2.42053836080490     -0.53431460365798      0.53794144263150
  O   2.39645648670227      1.24469422450319     -0.73234308551630
  C   -0.26692631169924      1.30294569534255     -0.92213648601546
  N   -0.94047833081873      2.06910458544757     -1.50958764511613
  N   -1.61803977111421     -0.80455686963957      0.51152416225425
  H   -2.20618379222795     -0.18979686482119     -0.02936242695964
  H   -2.04367771440907     -1.61126697781275      0.92945893620431
