11
Coordinates from ORCA-job run
  C   0.43144772040687      0.29874745314939     -0.02747963331197
  C   -0.47244739298468     -0.68147608992186     -0.30178249915588
  H   -0.21879820163727     -1.40615702150674     -1.06840912214983
  N   1.68979173917615      0.34439382131634     -0.75236011225322
  O   1.88793229249097     -0.50528986933580     -1.61726839239391
  O   2.46770724981815      1.24251742586264     -0.43923792636234
  C   0.19508388851384      1.28602890778278      0.96199847127995
  N   -0.12878989777222      2.04159548207992      1.80463669258033
  N   -1.67363625609148     -0.80379276437589      0.28357769543123
  H   -1.93713777758938     -0.20349793546489      1.04955875890186
  H   -2.24215336433094     -1.61106940958589      0.10576606743380
