11
Coordinates from ORCA-job run
  C   0.37284145780025      0.33500641829196     -0.15564092266279
  C   -0.22908820672105     -0.79939627466243      0.29564835752883
  H   0.39268055485448     -1.67427844091649      0.45399508748910
  N   1.80389601112022      0.34133878865230     -0.40930865765914
  O   2.43091038493110     -0.69424368350923     -0.19993338523187
  O   2.28079829422184      1.39690265009819     -0.81922933056445
  C   -0.35270229695449      1.52842277741689     -0.39908055146246
  N   -1.07135006170655      2.44682170215034     -0.56033846883843
  N   -1.53248309598618     -0.91046812617946      0.59658074465645
  H   -1.92424430296139     -1.81038508429983      0.80588976033827
  H   -2.17225873859824     -0.15872072704225      0.39141736640648
