11
Coordinates from ORCA-job run
  C   0.37384730683476      0.33910102996822     -0.14711344648818
  C   -0.22856538674370     -0.80520239423165      0.27825954293354
  H   0.40628943113411     -1.64251082933927      0.54791396840515
  N   1.82348332781533      0.40811570194415     -0.21828740376073
  O   2.46419953609625     -0.59551507416901      0.08449178463851
  O   2.30156706803723      1.48070426670381     -0.58015672729610
  C   -0.36815708805066      1.48990760633211     -0.51466390852432
  N   -1.10213863755152      2.36859609894847     -0.78844422894912
  N   -1.55486792657107     -0.99059252916359      0.36105905354729
  H   -1.92156419067408     -1.82333422170436      0.78380711231860
  H   -2.19409344032666     -0.22926965528887      0.19313425317536
