11
Coordinates from ORCA-job run
  C   0.38102545786426      0.32660876464411     -0.15853077920793
  C   -0.24077735272990     -0.76770179502802      0.36075651881466
  H   0.37915135795566     -1.59570386577257      0.68839698162796
  N   1.82979998319385      0.35267393685405     -0.26118479645532
  O   2.45408740819995     -0.62562521710052      0.14247637848702
  O   2.32422685496823      1.36534282533929     -0.75096111781197
  C   -0.34199159846455      1.45537244841868     -0.61960813891804
  N   -1.06226490185311      2.32035720941916     -0.96436961905823
  N   -1.56646212711838     -0.89511848563178      0.51696913923938
  H   -2.19994003544877     -0.17999965912327      0.19521624013569
  H   -1.95885504656725     -1.75620616201913      0.84983919314677
