11
Coordinates from ORCA-job run
  C   0.42564404312381      0.30364784815247     -0.05900506751900
  C   -0.41314767442368     -0.76517633484863     -0.14744151441345
  H   -0.04717012636522     -1.65761466740610     -0.64416604569023
  N   1.76461435580603      0.21866423631511     -0.61611840054174
  O   2.47260200293759      1.21503689071786     -0.49032283954711
  O   2.09387986404794     -0.82837363234186     -1.16858468089251
  C   0.04226348908410      1.51106893197949      0.57713814676684
  N   -0.40419090119415      2.44922008770833      1.13069659183622
  N   -1.67192091480035     -0.79281710600898      0.31410835113285
  H   -2.05448728933273     -0.01374552294316      0.82681914202824
  H   -2.20808684888335     -1.63991073132452      0.27687631683989
