11
Coordinates from ORCA-job run
  C   0.41446350126273      0.32017848821966     -0.04840358452695
  C   -0.37288432794558     -0.78635429233790     -0.14329282115093
  H   0.05759815051264     -1.67968053891800     -0.58363527276992
  N   1.78571006887842      0.27414842168863     -0.52645572723741
  O   2.44237825526659      1.30506749170396     -0.40077898103697
  O   2.19044692832902     -0.77745699269634     -1.01619912311147
  C   -0.05510643101031      1.53197220775940      0.51793938120317
  N   -0.57035958851983      2.46911870503871      1.00995782541745
  N   -1.65715939797791     -0.85031198030687      0.23982108600179
  H   -2.14247248637762     -1.72840609821449      0.23238904010408
  H   -2.09261467241816     -0.07727541193674      0.71865817710717
