11
Coordinates from ORCA-job run
  C   0.40951608541304      0.32710939206226     -0.05236841337515
  C   -0.32206946298427     -0.82054595368315     -0.00902869365411
  H   0.18853634528811     -1.75555389835578     -0.21498913200314
  N   1.82593099092877      0.26856582059713     -0.36875316371514
  O   2.42411745326019      1.34156918727746     -0.39527238378474
  O   2.32349357927020     -0.83389644526772     -0.58482477577999
  C   -0.16711455485071      1.59712931627340      0.20079280159971
  N   -0.77115451602293      2.58087919791241      0.43158343579915
  N   -1.62870369131883     -0.88706011744358      0.28343655982804
  H   -2.11392927305424     -1.76443047081253      0.25384816671406
  H   -2.16762295592931     -0.05276602855989      0.45557559837132
