11
Coordinates from ORCA-job run
  C   0.39205104602916      0.34185487100798     -0.08071995264770
  C   -0.26860036058490     -0.82711975058694      0.14584410697600
  H   0.31933045284774     -1.73572184594818      0.22136058180655
  N   1.83870190109120      0.33954593857969     -0.21173450329914
  O   2.42534014180540     -0.73530561084396     -0.10914765239950
  O   2.37000820986241      1.42801900853191     -0.41872330498905
  C   -0.28727651760427      1.58050183729950     -0.19818032382442
  N   -0.97308095115939      2.53431684068656     -0.27450598947637
  N   -1.59615024914620     -0.94206366444756      0.29270197263035
  H   -2.20213483089374     -0.14085268635265      0.21010635271177
  H   -2.01918884224741     -1.84217493792635      0.42299871251152
