11
Coordinates from ORCA-job run
  C   0.14487878432615      0.56362209774750     -0.21636710108681
  C   -0.90840610476902     -0.24688212403322      0.11954474029925
  H   -1.89850242123894      0.18109124499896     -0.01246781799388
  N   1.52068614758114      0.14396610963677     -0.09897036581466
  O   1.73217732921549     -1.00080031572148      0.32563700584294
  O   2.39401157050021      0.94023137307288     -0.42776636239836
  C   -0.07685753661964      1.88346276997423     -0.69516633913792
  N   -0.31438053204096      2.96762931962772     -1.08371721923552
  N   -0.87567043753843     -1.49426966528640      0.59339780817254
  H   -1.73173021986463     -1.98651993844671      0.77337663304081
  H   0.01279342044864     -1.95253087157022      0.72249901831162
