11
Coordinates from ORCA-job run
  C   0.22208318742189      0.57881757393990      0.03650854187842
  C   -0.89998066192269     -0.18284120982605      0.23764303089442
  H   -1.77730517680200      0.34946798575872      0.59492754492879
  N   1.46777141758621      0.02386254891217     -0.43529776600418
  O   1.49896192967500     -1.19430838462570     -0.66046130950319
  O   2.41669177128845      0.78696393495988     -0.58442868232717
  C   0.20528236734295      1.97753322859443      0.28936925112587
  N   0.13641730888092      3.12972313399692      0.51377532327867
  N   -1.05459710052013     -1.49537019337458      0.05130031394652
  H   -1.93995300928034     -1.92995287356069      0.23756315097274
  H   -0.27637203367027     -2.04389574477499     -0.27989939919089
