11
Coordinates from ORCA-job run
  C   0.39683588972333      0.30976877145924     -0.15037404510145
  C   -0.28777055182970     -0.78878907256194      0.27096793482841
  H   0.26076797526303     -1.71886012468225      0.37675108317254
  N   1.81564901829403      0.20646368591719     -0.44707421167786
  O   2.36663322717331      1.23145373806890     -0.84160213147239
  O   2.36044085828973     -0.88296497252803     -0.28647500085389
  C   -0.23232477484852      1.56761597219539     -0.32859750325226
  N   -0.87562215655821      2.54767522912152     -0.43527829530031
  N   -1.58874957224327     -0.80385033215616      0.60024738250311
  H   -2.16788740515029      0.00734885165919      0.44828753764949
  H   -2.04897250811344     -1.67486174649306      0.79114724950460
