11
Coordinates from ORCA-job run
  C   0.12091066523263      0.60155428918263     -0.09787643704318
  C   -0.64794577989948     -0.25929707381758      0.64188942174885
  H   -1.33082382207638      0.20236433684459      1.34964636347816
  N   1.07525699981750      0.14743039905613     -1.08029517770523
  O   1.18748971530463     -1.07613569519379     -1.24143822923903
  O   1.71520755741247      0.99491019936201     -1.69432882146016
  C   0.00843018987895      2.00777457963536      0.07656606240407
  N   -0.12449261838699      3.16136421765631      0.26192931687400
  N   -0.66780125078345     -1.59331241451475      0.60432877390944
  H   -1.28196205923972     -2.10493499949150      1.21128539939407
  H   -0.05526959726016     -2.08071783871940     -0.03070667236098
