11
Coordinates from ORCA-job run
  C   0.17395303749768      0.58183691615234     -0.13071392207560
  C   -0.78091636293796     -0.16166773570254      0.51326671591368
  H   -1.56707914617468      0.40112167818410      1.00887828897122
  N   1.28305567759752     -0.01481814595070     -0.83577857502492
  O   1.34927700926359     -1.25195831405041     -0.84982070563210
  O   2.09026492163958      0.73469824446469     -1.37587757887013
  C   0.10769188239858      2.00192176907196     -0.13735199824444
  N   0.00234733108542      3.17282010088464     -0.11575233960271
  N   -0.87916075507930     -1.49036881505634      0.59856892047993
  H   -1.61189182675748     -1.90536771298394      1.14479034557784
  H   -0.16654176853297     -2.06721798501381      0.17979084850724
