11
Coordinates from ORCA-job run
  C   0.15225374657881      0.59042957295521     -0.11920190777279
  C   -0.86879084210059     -0.21668868097652      0.31164326008018
  H   -1.79966068589115      0.28606024527283      0.55936959535554
  N   1.44994385837679      0.07778235763446     -0.48701575508919
  O   1.62385536160202     -1.14602845984207     -0.40061837666287
  O   2.29939970087149      0.87989357259090     -0.86132323261471
  C   -0.02875444334649      1.99645693572080     -0.22401564806984
  N   -0.23238815170732      3.15253942703773     -0.29237458645133
  N   -0.86794346445932     -1.54239719916612      0.46682146926001
  H   -1.69306357191039     -2.01145721822129      0.79341248445403
  H   -0.03385150801385     -2.06659055300592      0.25330269751098
