11
Coordinates from ORCA-job run
  C   0.38099560210811      0.31539521561306     -0.18036792488533
  C   -0.25136144462198     -0.78516563393088      0.31229348108690
  H   0.33653832845461     -1.68542617590806      0.45764455372188
  N   1.79822558645269      0.25396392229121     -0.49354388185137
  O   2.30322209617001      1.28070883506675     -0.94158349113805
  O   2.38791954683314     -0.80500051620136     -0.29236252812545
  C   -0.30166884880728      1.53651860029836     -0.40910914170498
  N   -0.98809264538423      2.48234682466717     -0.55082710909654
  N   -1.54753616039023     -0.83817691619481      0.65186104289259
  H   -2.15766170985771     -0.05057657045235      0.49861198601872
  H   -1.96058035095712     -1.70358758524910      0.94638301308165
