11
Coordinates from ORCA-job run
  C   0.40137573577922      0.33063356128041     -0.07699760854941
  C   -0.34579072483178     -0.80707499800672     -0.08338531415261
  H   0.11470647930761     -1.71414786084535     -0.46067622039568
  N   1.77129398738579      0.29788776554609     -0.56042976720317
  O   2.39101909953431      1.35796637406458     -0.51609938177240
  O   2.21080531383890     -0.77159602651109     -0.97563800351508
  C   -0.10770072874572      1.56322005428329      0.40417257068550
  N   -0.65520929565793      2.51510271759819      0.82824126665871
  N   -1.62729786422639     -0.88758889014744      0.30783052827901
  H   -2.07041684786366     -1.78427635065287      0.38925148042899
  H   -2.08178515452035     -0.10012634660910      0.74373044953615
