11
Coordinates from ORCA-job run
  C   0.16480641755621      0.58578268223623     -0.12403214331613
  C   -0.84563763849868     -0.18681685203058      0.38753947501426
  H   -1.72869939794262      0.34848024085319      0.72553747725833
  N   1.40122137820407      0.02762058439615     -0.61639131793645
  O   1.52972381121940     -1.20375903773020     -0.56631555546760
  O   2.24691468595857      0.80151580040346     -1.05328442346651
  C   0.03425849193244      1.99952422147454     -0.19376785517214
  N   -0.12588372905606      3.16394065997769     -0.22770384670484
  N   -0.88405718600185     -1.51378167348607      0.52668509032967
  H   -1.69675340060854     -1.95618840533341      0.91525782060487
  H   -0.09589343276294     -2.06631822076100      0.22747527885654
