11
Coordinates from ORCA-job run
  C   0.40628195699594      0.31623870331964     -0.10660385206480
  C   -0.33680304173868     -0.81346092181798      0.05163077942295
  H   0.14934328352318     -1.76818105107980     -0.11927940152485
  N   1.80362539654902      0.21318866643528     -0.49136980317297
  O   2.41595290662250      1.27154124772692     -0.61220220898022
  O   2.27177262253747     -0.90889079336662     -0.66778345757124
  C   -0.13584238983140      1.60986400703682      0.09898098748051
  N   -0.70972292728552      2.61757269551200      0.30152964311565
  N   -1.63712102069660     -0.83793579282149      0.37977461224901
  H   -2.13106341914750      0.01103629701061      0.60670874539420
  H   -2.09742336752841     -1.71097305795537      0.55961395565177
