11
Coordinates from ORCA-job run
  C   0.41628693055637      0.30594814298038     -0.10124904895903
  C   -0.32646114914648     -0.78154512382309      0.24487378310505
  H   0.20056707859533     -1.68158850321692      0.54383583447643
  N   1.86663323012934      0.23198001408891     -0.05853968523732
  O   2.37990038769554     -0.82876275387874      0.28930311238754
  O   2.47468383216134      1.25083390267358     -0.37816546515976
  C   -0.17934945990739      1.52827880758911     -0.50162200306664
  N   -0.80133525533696      2.47736533151794     -0.81496015097711
  N   -1.66619125395032     -0.83301043880808      0.22722654597778
  H   -2.14857818976409     -1.65035453566165      0.55197977695741
  H   -2.21515615103269     -0.01914484346144     -0.00168269950436
