11
Coordinates from ORCA-job run
  C   0.18157531557954      0.58782965810582     -0.08407052009774
  C   -0.72077022112880     -0.20005082166487      0.58175988612042
  H   -1.43770687311443      0.32407454138055      1.20797288215493
  N   1.19002509904478      0.04693711086058     -0.96392897463429
  O   1.22109100293111     -1.18343508906366     -1.10472496841083
  O   1.95058645084833      0.83404300382179     -1.51789525708023
  C   0.15359217332836      2.00206945505795      0.05591962086412
  N   0.08100741417338      3.16618091310307      0.20532365072939
  N   -0.81990634582587     -1.53189200597368      0.58028648829684
  H   -1.58159503888735     -1.97491896097590      1.06098352310974
  H   -0.21589897694906     -2.07083780465166     -0.02062633105235
