11
Coordinates from ORCA-job run
  C   0.13776679762215      0.60232056208757     -0.07069635234188
  C   -0.88477983693968     -0.30844315365909     -0.13847366492609
  H   -1.85163590196582      0.08333465044826     -0.44198641957370
  N   1.48302434125126      0.23812108959274      0.30366102699241
  O   2.33328503370975      1.12240678696253      0.32067658283699
  O   1.69427905145973     -0.94978132566371      0.58418431777849
  C   -0.08754180720746      1.96882958166368     -0.39128898501270
  N   -0.33162884167831      3.08489920113917     -0.66921256009938
  N   -0.85110627491082     -1.61495008516391      0.13522217352998
  H   0.02589611845951     -2.04640039380557      0.38168411012705
  H   -1.66755867980032     -2.17933691360168     -0.01477022931118
