11
Coordinates from ORCA-job run
  C   0.37147552219691      0.33373749231370     -0.16178542727188
  C   -0.22921802502091     -0.80335349313416      0.28386470274866
  H   0.37908249120730     -1.69779329074925      0.36866381695940
  N   1.78161341758417      0.31453472585864     -0.51317330495884
  O   2.25767843168172      1.37302414683793     -0.91644703928241
  O   2.39354760088654     -0.74299270480277     -0.38495357273739
  C   -0.33836367932366      1.55101601571365     -0.31742825117175
  N   -1.04372352141103      2.48938046032570     -0.40524523225447
  N   -1.51253917793393     -0.89621663101117      0.66799712734390
  H   -2.14520250566669     -0.12436062799451      0.52463018123198
  H   -1.91435055420044     -1.79697609335776      0.85387699939281
