11
Coordinates from ORCA-job run
  C   0.42739623326111      0.30395588826585     -0.03463759857843
  C   -0.37702648662243     -0.79286854612603     -0.08704367621280
  H   0.04247418616361     -1.71096091506550     -0.48511441306642
  N   1.79725940816511      0.21897366506951     -0.51150991934815
  O   2.46076244414085      1.25151033426037     -0.45246652593418
  O   2.19423370588065     -0.86388430180180     -0.93497272810471
  C   -0.03256572155050      1.55165890137572      0.45701092014756
  N   -0.54220500878063      2.52226133125572      0.88604083582134
  N   -1.64401956773987     -0.83914031334897      0.35470218351615
  H   -2.21167148236574     -1.64352606104482      0.15955312377645
  H   -2.11463771055216      0.00302001715995      0.64843779798317
