11
Coordinates from ORCA-job run
  C   0.40246494765321      0.32190999928269     -0.11117901697494
  C   -0.29437776533908     -0.80858889489003      0.19030796625965
  H   0.25724643481924     -1.73987893586683      0.26604091117133
  N   1.83739324298225      0.25017053785938     -0.32450897554058
  O   2.38289287028228     -0.84536610205365     -0.21401161599770
  O   2.40153775606173      1.30561074613989     -0.60303421162357
  C   -0.23070707864648      1.58385978795651     -0.23865006634771
  N   -0.88306638949449      2.56071894972444     -0.31564042127360
  N   -1.61540771636880     -0.85919088737647      0.41194779973664
  H   -2.06847169471747     -1.73424279781083      0.59950089647404
  H   -2.18950460723239     -0.03400240296510      0.33922673411643
