11
Coordinates from ORCA-job run
  C   0.16746973767506      0.59195742832681     -0.08546341228826
  C   -0.80883058467076     -0.20817162420915      0.44963597635982
  H   -1.64142289746401      0.30806047123695      0.91952333808311
  N   1.33762824194134      0.06180726345122     -0.74246355584788
  O   1.43626785746900     -1.17080599800623     -0.82196832557768
  O   2.16080316269667      0.85875086743963     -1.18109403428366
  C   0.06638987773592      2.00813683212894     -0.01331909251244
  N   -0.06542215365050      3.17333633435664      0.07398209263150
  N   -0.86665528700693     -1.54141938612157      0.47343799221889
  H   -0.13068976151313     -2.07742972767790      0.04067219615337
  H   -1.65553819321265     -2.00322246092534      0.88805682506323
