11
Coordinates from ORCA-job run
  C   0.11929013804472      0.60239774820591     -0.08116234178530
  C   -0.70725797352152     -0.27281942574492      0.57374688112919
  H   -1.45061831952967      0.17480745806437      1.22797062115009
  N   1.15881935917342      0.16739899774346     -0.98287560756236
  O   1.84185733432376      1.02767171354395     -1.52909028001901
  O   1.29964354154190     -1.05288425149390     -1.14319431682692
  C   -0.01372524805163      2.00612252362565      0.09921168048769
  N   -0.15212797979183      3.15929822437787      0.28551072844558
  N   -0.72945358873892     -1.60591651595701      0.49756310662553
  H   -1.34003896542014     -2.12738323067254      1.10073082629240
  H   -0.02538829803009     -2.07869324169285     -0.04741129793689
