11
Coordinates from ORCA-job run
  C   0.12098997641678      0.60411707962267     -0.08031455306033
  C   -0.67754842121373     -0.27587493485233      0.60333700120957
  H   -1.39960127423044      0.16750365376587      1.28343796415559
  N   1.12697890271879      0.17539316257601     -1.02196441952039
  O   1.26124804173199     -1.04431845580569     -1.19483133930118
  O   1.78562884089816      1.03909852537127     -1.59201945647985
  C   -0.01177155243592      2.00599574731223      0.11360437930635
  N   -0.16423723306347      3.15489525841142      0.31189954863166
  N   -0.68658777869037     -1.60899041724596      0.53838267062254
  H   -0.03409076569971     -2.08050504537636     -0.06827818153804
  H   -1.32400873643211     -2.13631457377912      1.10674638597407
