11
Coordinates from ORCA-job run
  C   0.11452306650590      0.60362862365463     -0.10320776795322
  C   -0.73028128772469     -0.25430598564623      0.55267827531992
  H   -1.48294376758684      0.20895443732474      1.18515447390521
  N   1.18462762231171      0.13658479226648     -0.95358642315194
  O   1.30166604178728     -1.08789181932050     -1.10315144316592
  O   1.90404318374690      0.97551122687354     -1.48709616069841
  C   0.01689008997541      2.00987274603438      0.07565208264458
  N   -0.10006447058223      3.16440046248544      0.26370572100234
  N   -0.77039664763774     -1.58776750435852      0.48935648938359
  H   -0.05534974089935     -2.07687899569302     -0.02617870978543
  H   -1.38171408989635     -2.09310798362094      1.10467346249929
