11
Coordinates from ORCA-job run
  C   0.39360274238280      0.33925838261969     -0.07950550398930
  C   -0.31967866036700     -0.82013714408279     -0.05789170706126
  H   0.17151957035438     -1.72438712630153     -0.40169897861712
  N   1.76727855370559      0.33289323366178     -0.55275267205083
  O   2.24234792554745     -0.73564926326073     -0.92978104348099
  O   2.35418085010028      1.41231856702146     -0.54015614652854
  C   -0.15688283905612      1.57123979866253      0.35507318508244
  N   -0.73521203387887      2.51960536797458      0.74484175525267
  N   -1.59833639365778     -0.92764972838975      0.33304544943580
  H   -2.03114595524564     -1.82964252909014      0.40774458020883
  H   -2.08867375988510     -0.13684955881510      0.72108108174829
