11
Coordinates from ORCA-job run
  C   0.43598343559029      0.28638868210585     -0.06262919054722
  C   -0.41562004063342     -0.77577762056481     -0.06687098386488
  H   -0.05052970710620     -1.71661201052596     -0.46528575258181
  N   1.78481787001218      0.13269895766386     -0.58063041622501
  O   2.11625146342237     -0.97064972756645     -1.00752872289326
  O   2.49792335703906      1.13293018941495     -0.55126783104270
  C   0.05211303748475      1.55795318570053      0.43264440915040
  N   -0.39558461489806      2.55501284070511      0.86989162763215
  N   -1.66950646737074     -0.75605093129772      0.40939409925583
  H   -2.08589546042484      0.10275493447961      0.73400025201585
  H   -2.26995287311539     -1.55064850011498      0.28828250910065
