14
Coordinates from ORCA-job run
  C   -0.74582524901039      0.78704198201341      0.00300447758688
  C   0.70248112705579      0.26739872515575      0.12034540364941
  F   -0.71236649426575      2.14160583651859     -0.24020067579943
  H   1.15629943701102      0.84111602133426      0.93702887003966
  C   -1.45509212645824      0.11763262282251     -1.09996090793457
  N   -2.00027178746484     -0.43811464281403     -1.97992658050606
  C   -1.46258667430889      0.55322527136607      1.26874617868671
  N   -2.00048065218978      0.36006236560472      2.29505336805069
  C   1.41466600323371      0.59007130207486     -1.11729490857044
  N   1.99550724956245      0.81671720665212     -2.11220141486210
  C   0.75993575892602     -1.23160855754236      0.42442436275704
  H   0.29466192067522     -1.80828527661701     -0.37686815141354
  H   0.25449592600337     -1.45168850666640      1.36639271561562
  H   1.80057556123031     -1.54517434990250      0.51145726270014
