14
Coordinates from ORCA-job run
  C   -0.93106647389795      0.13585077586635     -0.26575963511813
  C   0.57897285613184      0.23446927150746      0.04819770767479
  F   -1.14365372020911     -0.93698355263012     -1.10307011113447
  H   0.71598231082785      1.10116517214801      0.70610853905894
  C   -1.68875942538216     -0.07855548864369      0.97971259451088
  N   -2.26982756974887     -0.25038501791422      1.98607409964630
  C   -1.41502663866672      1.35912983748395     -0.92643865904053
  N   -1.79260282057531      2.34455172484114     -1.44290823681867
  C   1.29395627547245      0.48931147459116     -1.20430253261405
  N   1.87364389995271      0.66812781148260     -2.20934529779167
  C   1.09473712331153     -1.03519366929048      0.73213048237172
  H   0.59013875575620     -1.18730903243180      1.68768422113926
  H   0.92967576733276     -1.90414546560935      0.09546112218071
  H   2.16482965969478     -0.93903384140103      0.91845570593491
