14
Coordinates from ORCA-job run
  C   -0.73252722840699      0.80014360876646     -0.01848855667218
  C   0.70488814955989      0.25674843903885      0.12444287956270
  F   -0.67157465405559      2.14940019424479     -0.28348567507713
  H   1.15815702026631      0.83430025792932      0.93877405880022
  C   -1.44129673313675      0.12446091573199     -1.11783603001596
  N   -1.98594610152651     -0.44183539741378     -1.99124846243369
  C   -1.46657222177283      0.60066860357179      1.24314644271106
  N   -2.01563500690090      0.43664518620615      2.26860127002962
  C   1.43790650077841      0.55001518005419     -1.10844078472539
  N   2.03353857388471      0.75080239233456     -2.10021818742750
  C   0.73283384511545     -1.23842263311545      0.45017973669641
  H   0.26744195280429     -1.81842017771695     -0.34881233042244
  H   0.21261638645493     -1.43661280683899      1.38916722288411
  H   1.76716951693557     -1.56789376279295      0.55421841609016
