14
Coordinates from ORCA-job run
  C   -0.76531600506680      0.76835569233447     -0.02388505036603
  C   0.69193729223414      0.28551948382449      0.13301304416847
  F   -0.75886506986440      2.12021847364950     -0.28424445351041
  H   1.11210419149009      0.87885747018019      0.95370448549605
  C   -1.43293901200269      0.06799383340985     -1.13345503259587
  N   -1.94234122306686     -0.51494319625398     -2.01713208290847
  C   -1.50408321228028      0.53371360394085      1.22894493090070
  N   -2.05844180743708      0.34060270248830      2.24640431280049
  C   1.42575429457806      0.61256858289675     -1.09077617143232
  N   2.02496383818370      0.84390656482645     -2.07363978207668
  C   0.77875121182536     -1.20832088137374      0.45505689296442
  H   0.25198641412701     -1.43170915112013      1.38451874584279
  H   0.35213112833047     -1.80534470417942     -0.35294648573429
  H   1.82435795894927     -1.49341847462359      0.57543664645117
