14
Coordinates from ORCA-job run
  C   -0.75421612076018      0.77995498923063     -0.00176931375950
  C   0.69731681995515      0.27353960345080      0.13339449465546
  F   -0.73045336583993      2.13662757926877     -0.23331334637661
  H   1.13198727698886      0.84354361711578      0.96302082820473
  C   -1.44003656949464      0.11243536529394     -1.12049900764615
  N   -1.96729503583319     -0.44549675262421     -2.00981141873870
  C   -1.48728851308139      0.52858738938876      1.25116051835719
  N   -2.03932935650468      0.32128856679272      2.26711619322683
  C   1.42616837440133      0.61547134460574     -1.08915075768379
  N   2.02153474858630      0.85669964233990     -2.07197038367080
  C   0.76551587377547     -1.22785891369092      0.42367898523759
  H   0.32489718840416     -1.80186422883442     -0.39342979807533
  H   0.24228462095255     -1.46326695002772      1.35217022205685
  H   1.80791405845025     -1.52966125230976      0.53040278421219
