14
Coordinates from ORCA-job run
  C   -0.89816181020484      0.33105582975469      0.36482438744241
  C   0.63176879784701      0.14288289147721      0.25590740560083
  F   -1.30499254420713     -0.23338174144517      1.55691855556055
  H   1.05263544058882      0.66185454738767      1.12544690130959
  C   -1.25225524485215      1.75942990252243      0.38015932882615
  N   -1.51289986049640      2.90449855530226      0.41456595262114
  C   -1.59089286429330     -0.34959843936056     -0.74147973147222
  N   -2.12192079444183     -0.91030671341510     -1.62662312268889
  C   1.10848578765802      0.80532821467354     -0.95807521553331
  N   1.49551078388293      1.31589181284404     -1.94244642037035
  C   1.02051563746434     -1.33673505053209      0.28563412445798
  H   0.62994976487807     -1.80603261585588      1.18870161812166
  H   0.63266218908469     -1.85971316714289     -0.59024678219572
  H   2.10759471709176     -1.42617402621017      0.28671299832019
