14
Coordinates from ORCA-job run
  C   -0.92348352252149      0.24089221115089     -0.23738725660165
  C   0.60151726783239      0.15391727782559     -0.00028162256830
  F   -1.32540807537394     -0.85189105809716     -0.97211811569284
  H   0.88917214255987      1.04317078152301      0.57348030726877
  C   -1.62939451528720      0.22971583688466      1.05607159937310
  N   -2.15816002478826      0.21605412405759      2.10482944562262
  C   -1.26998694941173      1.46717859199984     -0.97479843352867
  N   -1.52077232773566      2.45692900746267     -1.55594338471336
  C   1.27672166453911      0.20768564548190     -1.29897749185035
  N   1.83567263629357      0.22736142154545     -2.33134225009133
  C   0.98066737452890     -1.11581166632783      0.76767453981836
  H   0.65272788383838     -2.00168880276315      0.22399266543112
  H   0.52668456648771     -1.11277757360100      1.76005153350349
  H   2.06404187903841     -1.16073579714247      0.88374846402905
