14
Coordinates from ORCA-job run
  C   -0.83354065065672      0.49712126742686     -0.15785740262573
  C   0.52221952516682     -0.06233218120128      0.33001329575245
  F   -0.73452703862589      0.80659250166319     -1.49588909192984
  H   0.41272552756290     -0.28513962281905      1.39828155388484
  C   -1.88405845729930     -0.52119099163225      0.01784648160111
  N   -2.69479326637118     -1.35715478681979      0.17073540294246
  C   -1.19872918186748      1.71213126461907      0.58885253361911
  N   -1.47592231063970      2.67127695382218      1.20792055056158
  C   1.53643031991216      0.98388915941990      0.18183918715435
  N   2.36816824537460      1.80189633866808      0.04959769152248
  C   0.91784700616783     -1.32844990057656     -0.43552236101528
  H   1.89265003358797     -1.67312860966934     -0.08889559081302
  H   0.18943666865757     -2.12273860676797     -0.26399482293532
  H   0.98209357903039     -1.12277278613305     -1.50392742771922
