14
Coordinates from ORCA-job run
  C   -0.73912739629644      0.68401920261105      0.19376646303381
  C   0.67613479307849      0.13618721530725     -0.09818781860590
  F   -0.71681853355702      1.24872536464965      1.45303250541850
  H   1.34272762564944      1.00504223355425     -0.04151055044900
  C   -1.10959956660917      1.72524983539795     -0.77804839589584
  N   -1.37481105775436      2.56943496822053     -1.55089503207092
  C   -1.73452268336889     -0.40033213586717      0.18047512410912
  N   -2.50600333344933     -1.28622252139756      0.18441879371357
  C   0.71169754578065     -0.39217310263543     -1.46181467625665
  N   0.74069403956813     -0.84421914259480     -2.54540898821389
  C   1.09486191077480     -0.91818085695707      0.92862491694075
  H   2.12606211513868     -1.21910892472741      0.73953130644427
  H   1.03015999670769     -0.50456424067747      1.93510527923973
  H   0.45954454433735     -1.80285789488378      0.85991107259247
