14
Coordinates from ORCA-job run
  C   -0.74007562550419      0.79204406967754     -0.01460785193722
  C   0.70040547540886      0.25992818862814      0.13927891799921
  F   -0.68877904816296      2.14630329682829     -0.25630014058879
  H   1.13748028576570      0.82818952430590      0.96883527746550
  C   -1.42647027475079      0.12978918588400     -1.13599644892277
  N   -1.95016463644048     -0.41102657695429     -2.03798194616791
  C   -1.49009615732395      0.56364704647468      1.23263660265610
  N   -2.05718336609453      0.36520970593672      2.24212772419573
  C   1.44818729658245      0.58032763646718     -1.07774117737641
  N   2.06123617849091      0.81879812301446     -2.05035739570733
  C   0.73752720511010     -1.24022078918978      0.44112158331341
  H   0.20122995474597     -1.45907706791856      1.36617953839700
  H   0.29376831224012     -1.81187780405196     -0.37598207491209
  H   1.77293439993271     -1.56103453910228      0.55978739158554
