14
Coordinates from ORCA-job run
  C   -0.74195125537047      0.79119561843338     -0.00949113616570
  C   0.70203564554994      0.26690467663339      0.13466452762959
  F   -0.69886268500072      2.14726250269651     -0.24550217137820
  H   1.14067759256040      0.83495662222690      0.96347726939691
  C   -1.43174383908896      0.12797450145667     -1.12835197307351
  N   -1.97002196162171     -0.45081846879274     -1.99764981818521
  C   -1.48647525217382      0.55325345302001      1.23933347751864
  N   -2.06259977972720      0.32869064339353      2.23821581279308
  C   1.44028885643981      0.59661627462968     -1.08602414234329
  N   2.04512109324983      0.85125897173913     -2.05970073525733
  C   0.75005648683580     -1.23385534591875      0.43157159481299
  H   1.78797872242939     -1.54851128151914      0.54472650567893
  H   0.30590309510374     -1.80610596331087     -0.38482496405419
  H   0.21959328081402     -1.45882220468770      1.35855575262728
