14
Coordinates from ORCA-job run
  C   -0.73791893536169      0.79703372825965      0.01572948083465
  C   0.70330842546982      0.25905119217187      0.13847756765111
  F   -0.68643734957270      2.15799473245643     -0.18599436059348
  H   1.14966937804020      0.80198016485300      0.97996149343976
  C   -1.43791375824694      0.16751106661180     -1.11607433234257
  N   -1.98135194636521     -0.37551286246683     -2.00498492861440
  C   -1.47569133015511      0.53223624484952      1.26303963649162
  N   -2.03419381465577      0.29652911234546      2.26932771466088
  C   1.43784618279205      0.61346921716690     -1.07717993284597
  N   2.03609981003506      0.86359539427018     -2.05607820852982
  C   0.74264699479114     -1.24944545500319      0.39536004478835
  H   0.29050076195025     -1.79657460595981     -0.43378588234608
  H   1.77906120084643     -1.57362626527962      0.49435359401956
  H   0.21537438043251     -1.49524166427537      1.31884811338638
