18

C	-0.446935	-0.037296	-1.47206
C	0.0	0.0	0.0
Br	0.193329	1.707385	-2.331697
H	1.094792	0.0	0.0
C	0.280417	-1.135358	-2.223603
H	1.356333	-1.023814	-2.078643
H	0.046954	-1.093682	-3.290758
H	-0.042425	-2.101171	-1.825088
N	-1.855469	-0.161564	-1.596569
H	-2.333633	0.616673	-1.160763
H	-2.125627	-0.199933	-2.571797
C	-0.439202	-1.253745	0.621594
N	-0.809012	-2.234798	1.152253
C	-0.506298	1.175418	0.836961
H	-0.098168	1.087116	1.845458
H	-0.154195	2.113648	0.41023
H	-1.598256	1.190964	0.914222
Cl	3.367026	0.0	0.0
