18

C	-0.280359	0.002844	-1.514766
C	0.0	0.0	0.0
Br	-2.251248	-0.065369	-1.830286
H	1.100112	0.0	0.0
C	0.26067	1.261765	-2.166189
H	0.137287	1.177592	-3.246586
H	1.325706	1.336166	-1.919175
H	-0.254901	2.155508	-1.815636
N	0.290355	-1.144054	-2.185321
H	-0.030513	-1.994863	-1.732582
H	1.299558	-1.088515	-2.0361
C	-0.458665	-1.249513	0.598435
N	-0.844003	-2.249578	1.081154
C	-0.494403	1.199829	0.802686
H	-0.033592	2.114515	0.428044
H	-0.190231	1.084958	1.845398
H	-1.58218	1.292832	0.757045
Cl	3.321181	0.0	0.0
