18

C	-0.365188	0.046581	-1.494877
C	0.0	0.0	0.0
Br	-0.015658	-1.839806	-2.259599
H	1.097007	0.0	0.0
C	-1.82941	0.302402	-1.794259
H	-2.095465	1.30384	-1.445413
H	-2.014659	0.245959	-2.869413
H	-2.458074	-0.439246	-1.298245
N	0.479066	1.001803	-2.095756
H	1.453378	0.842902	-1.835629
H	0.382886	1.015192	-3.102836
C	-0.554514	-1.151994	0.695186
N	-1.063793	-2.008762	1.317779
C	-0.43278	1.283789	0.727294
H	-1.516742	1.340443	0.856891
H	0.036572	1.299312	1.713049
H	-0.082114	2.148996	0.164801
Cl	3.337944	0.0	0.0
