18

C	-0.375087	0.031472	-1.505382
C	0.0	0.0	0.0
Br	-0.060921	-1.786267	-2.236595
H	1.09666	0.0	0.0
C	-1.829758	0.371258	-1.768791
H	-2.490962	-0.306312	-1.225927
H	-2.033277	0.29659	-2.837449
H	-2.034508	1.397347	-1.445817
N	0.489318	0.912914	-2.254095
H	1.455945	0.744042	-1.973016
H	0.262154	1.873091	-2.019422
C	-0.565425	-1.130141	0.722439
N	-1.09639	-1.990986	1.321729
C	-0.406715	1.296191	0.719647
H	-0.033293	2.164272	0.172573
H	-1.488271	1.383777	0.849339
H	0.06595	1.309525	1.703284
Cl	3.340472	0.0	0.0
