13
Coordinates from ORCA-job run
  C   -1.16615914729516      0.20889321100893      0.04235276905182
  C   0.29292588251753      0.31856872007666     -0.41957845425343
  F   -1.24473741400432      0.49620444634994      1.38840681968986
  H   0.31677702385395      0.06291578323324     -1.48597403451237
  H   -1.79567746996273      0.92880194441013     -0.48846448019917
  C   -1.67760925716373     -1.14958654144542     -0.19498707096698
  N   -2.06954724507316     -2.23471180602320     -0.40985857442087
  C   1.21651606571084     -0.62038963416786      0.36165931408567
  H   0.91331888523837     -1.65836809771518      0.21202660206178
  H   2.24479403078470     -0.50657468284982      0.01694121067674
  H   1.17842395230768     -0.38912737580737      1.42599388059683
  C   0.72092958769072      1.71364062060604     -0.28306574003366
  N   1.07104510539529      2.82773341232392     -0.16545224177622
