13
Coordinates from ORCA-job run
  C   -1.01106064877228     -0.23551981753704     -0.65176279374442
  C   0.41944205153837      0.27752368675580     -0.47082352065101
  F   -1.69835707891124      0.60181767760329     -1.50333117074524
  H   0.85318905900469      0.32690112323901     -1.47600303823785
  H   -0.98224516352994     -1.22911660872321     -1.11035395294037
  C   -1.71985363761029     -0.32096971150915      0.63322501172883
  N   -2.25989681761413     -0.41235089732594      1.67137890044231
  C   1.24359261589835     -0.66443631453615      0.41125444534222
  H   1.24884962414789     -1.67176822368535     -0.01205079554426
  H   0.83467021542138     -0.70814760108534      1.42194154528104
  H   2.27414399918506     -0.31387331415684      0.47322619857106
  C   0.39830548770264      1.63604918076217      0.07555101212294
  N   0.39922029353949      2.71589082019875      0.53574815837477
