13
Coordinates from ORCA-job run
  C   -1.01986332939169     -0.27666572747183     -0.62119684238212
  C   0.39450193117169      0.29122072038638     -0.48366637797205
  F   -1.76292493991682      0.53050416609080     -1.45497862849967
  H   0.79659856643218      0.35217599700258     -1.50127590962520
  H   -0.96625638182232     -1.27022036506648     -1.07768493786985
  C   -1.68808794259780     -0.38428697790784      0.68371912999563
  N   -2.19660956358589     -0.49296225914322      1.73599332486914
  C   1.27943075770585     -0.61446588236480      0.37744936635400
  H   1.31099694665115     -1.62288806946234     -0.04202034996517
  H   2.29708683110988     -0.22428283645041      0.40807620163511
  H   0.90190921518628     -0.66879906334386      1.39979847456729
  C   0.33824388259854      1.65027268094735      0.05899371131647
  N   0.31497402645894      2.73039761678369      0.51779283757643
