13
Coordinates from ORCA-job run
  C   -1.01004249506456     -0.29334725152286     -0.62909736829386
  C   0.40837268409458      0.26392827670827     -0.48790920147632
  F   -1.72549018920495      0.48234548196821     -1.51506502200257
  H   0.83177841353748      0.27490706147705     -1.49870279718212
  H   -0.95967716277018     -1.30791207560443     -1.03724902902402
  C   -1.70567999369783     -0.33161135727078      0.66537703454608
  N   -2.23455042176938     -0.38320877621144      1.71191843121905
  C   1.26406591657602     -0.61246040836010      0.43093820754944
  H   0.86612201181989     -0.61554937114652      1.44691668626913
  H   2.28614706168405     -0.23444997849631      0.46437075894808
  H   1.29005623862672     -1.63914472406223      0.05825182578582
  C   0.35665157566934      1.64684227893760     -0.00873277659238
  N   0.33224636049883      2.74766084358355      0.39798325025368
