13
Coordinates from ORCA-job run
  C   -0.99420777880523     -0.48640438115583     -0.08002468203714
  C   0.30893831362839      0.31630441938721     -0.19077132078649
  F   -1.00673787450871     -1.44017743481523     -1.07916679638544
  H   0.28966935220347      0.83624223339152     -1.15519404616814
  H   -1.03911331549217     -1.00667939175974      0.88175104022298
  C   -2.17475052633209      0.37572576646462     -0.22908143671845
  N   -3.11104060934815      1.07153875331893     -0.35840436450396
  C   1.53080578636509     -0.60269080171357     -0.11705341786963
  H   1.55773747985908     -1.13185524803994      0.83790094695982
  H   2.44664110642576     -0.01814176989075     -0.21188522727268
  H   1.49431874053769     -1.33179855584221     -0.92585215584421
  C   0.33318461811946      1.32032049759011      0.87413018059222
  N   0.36455470734741      2.09861591306489      1.75265127981111
