13
Coordinates from ORCA-job run
  C   -1.01993010288633     -0.24975845008663     -0.63236747592650
  C   0.40093759039519      0.29643314324265     -0.47505062269724
  F   -1.74841819008920      0.58559030971325     -1.45102832192602
  H   0.80977773747018      0.37410312009164     -1.48883794503283
  H   -0.97676697361502     -1.23327469736898     -1.11112280712672
  C   -1.69557737673941     -0.37834039934765      0.66679207455625
  N   -2.20835164621080     -0.50399704858265      1.71509941807834
  C   1.26909375004642     -0.63902992153130      0.37113464309049
  H   1.28732900837352     -1.63937267767371     -0.06810006106388
  H   2.29234963353912     -0.26473553674180      0.41286227367231
  H   0.88697260366865     -0.70793419687299      1.39089902680652
  C   0.35890821160839      1.64447964946518      0.09568942198017
  N   0.34467575443930      2.71583670569300      0.57503037558912
