13
Coordinates from ORCA-job run
  C   -0.99143747285196     -0.49553992788559     -0.05604262278771
  C   0.29934484597673      0.32214907174740     -0.19721706518459
  F   -1.02864147612899     -1.43309558947517     -1.06950209454149
  H   0.24394123943875      0.85517492614215     -1.15306926487120
  H   -0.99860635002919     -1.03125090096186      0.89835581181987
  C   -2.18481867850992      0.35673813399227     -0.14951294374048
  N   -3.13152032993866      1.04557824069241     -0.23215211908311
  C   1.53198260715459     -0.58527475832175     -0.17566974361111
  H   2.43846608317923      0.00983762899190     -0.29181481360272
  H   1.47675152559405     -1.30388943024567     -0.99281638291116
  H   1.59494450377473     -1.12684462191107      0.77060266772339
  C   0.34842563718030      1.31129865030924      0.88059643489509
  N   0.40016786516035      2.07811857692573      1.76824213589522
