18

C	-0.407797	-0.00135	-1.459823
C	0.0	0.0	0.0
Br	0.264303	1.545419	-2.402467
H	1.098508	0.0	0.0
N	0.140891	-1.21438	-2.212361
O	-0.124688	-1.274363	-3.407658
O	0.841939	-1.997851	-1.585736
N	-1.915054	-0.092957	-1.609475
O	-2.38465	-1.221148	-1.728629
O	-2.555916	0.944687	-1.463156
N	-0.541462	-1.208466	0.632282
H	-0.707698	-1.00186	1.609662
H	0.179231	-1.92049	0.592586
C	-0.484809	1.225895	0.751999
H	-1.572738	1.222113	0.872894
H	-0.011009	1.202292	1.737953
H	-0.184322	2.152592	0.267244
H	2.747463	0.0	0.0
