18

C	-0.392407	-0.005671	-1.460136
C	0.0	0.0	0.0
Br	0.52701	1.356858	-2.461756
H	1.094181	0.0	0.0
N	-0.039228	-1.375309	-2.070518
O	-0.979707	-2.105033	-2.366812
O	1.146119	-1.625554	-2.17161
N	-1.903372	0.125737	-1.738443
O	-2.268136	0.441928	-2.862842
O	-2.644793	-0.145494	-0.797314
N	-0.381432	-1.27155	0.589629
H	0.355839	-1.53948	1.234034
H	-1.268669	-1.208998	1.072006
C	-0.448955	1.243999	0.749491
H	-0.112647	2.157514	0.254178
H	0.028015	1.215625	1.733337
H	-1.534475	1.278931	0.879568
H	2.745857	0.0	0.0
