18

C	-0.499369	-0.01194	-1.420844
C	0.0	0.0	0.0
Br	0.368025	-1.361282	-2.473267
H	1.094305	0.0	0.0
N	-2.021397	-0.229665	-1.567784
O	-2.687051	-0.24667	-0.538547
O	-2.462776	-0.330491	-2.705416
N	-0.288622	1.361292	-2.059567
O	-1.223542	2.149072	-1.921566
O	0.795832	1.602998	-2.56247
N	-0.356441	-1.275358	0.608444
H	0.467654	-1.597043	1.108964
H	-1.127475	-1.165135	1.253772
C	-0.379935	1.236415	0.804411
H	0.105891	1.122995	1.778093
H	0.029701	2.14653	0.359376
H	-1.457231	1.35381	0.943285
H	2.713342	0.0	0.0
