16
Coordinates from ORCA-job run
  C   -0.68105531203311     -0.50719444728607     -0.15993441151158
  C   0.57337987076588     -0.11904152570083      0.62895470857351
  Br  -0.70826742205054     -2.37530618216635     -0.56429227585413
  H   0.63364219597456     -0.82852543603449      1.45953974285501
  N   -0.75326080599723      0.34659914138150     -1.42493211709644
  O   -0.53818322387413     -0.17498441958872     -2.50589135873164
  O   -0.96146446244108      1.53088208242286     -1.18861935034051
  N   -1.96350533567542     -0.21640725230918      0.61927673883652
  O   -2.97389848591021     -0.05657149021856     -0.04723827648131
  O   -1.85946251255306     -0.23749942890633      1.83775264846319
  C   0.46225603019642      1.22145567843660      1.21076795055381
  N   0.46998069232260      2.29038056676691      1.69727011307303
  C   1.83632267061947     -0.20715395678247     -0.23738741487241
  H   1.93304902627367     -1.19444925411522     -0.68863688008855
  H   2.70868327904650     -0.02207288262985      0.39043832283010
  H   1.82178379533569      0.54788880673021     -1.02506814020861
