16
Coordinates from ORCA-job run
  C   -0.78133127297987      0.12668880326442     -0.10495639606502
  C   0.60994441217710     -0.10336815077602      0.48561931403656
  Br  -1.37462257549660      1.92854918706796     -0.00713483420332
  H   0.73945260061966     -1.18981752188942      0.52669956343516
  N   -1.83636771191794     -0.77070517544178      0.55532197958919
  O   -2.92985667581318     -0.77435607197308      0.01163475301940
  O   -1.48733986821832     -1.40155665851216      1.54326666763886
  N   -0.73558744690405     -0.38815545006100     -1.55049208697990
  O   -0.82642524722408      0.40208842134970     -2.47218098649460
  O   -0.54531960516030     -1.59804929409991     -1.61291699178807
  C   0.67719685865696      0.41628560626696      1.84997478190503
  N   0.80225918271740      0.85678650778776      2.93120343368330
  C   1.71135516599951      0.51479527787535     -0.38439361464761
  H   1.55731262676284      1.58657244371077     -0.51223029943589
  H   2.67467720734465      0.35870910403533      0.10250446413629
  H   1.74565234943622      0.03553297139512     -1.36391974782939
