12

C	0.0	0.0	0.0
C	-0.222247	-0.256787	-1.532103
Br	1.960121	0.0	0.0
H	0.291837	0.565215	-2.038251
H	0.350919	-1.161672	-1.753814
C	-0.426345	1.317624	0.458985
N	-0.504659	2.437572	0.812109
C	-0.421508	-1.105911	0.854791
N	-0.501996	-2.058431	1.540871
C	-1.52177	-0.420847	-2.190386
N	-2.210999	-0.628305	-3.125027
Cl	-2.926541	0.0	0.0
