12

C	0.0	0.0	0.0
C	-0.485222	0.078395	-1.45933
Br	1.964169	0.0	0.0
H	-1.587641	0.059483	-1.387597
H	-0.158474	1.031895	-1.881843
C	-0.412621	1.186412	0.75022
N	-0.571582	2.190787	1.340186
C	-0.40599	-1.241114	0.662026
N	-0.562114	-2.27693	1.195815
C	0.012481	-1.020617	-2.272848
N	0.397358	-1.892073	-2.959542
Cl	-3.262247	0.0	0.0
