12

C	0.0	0.0	0.0
C	-0.492401	-0.272643	-1.433444
Br	1.959786	0.0	0.0
H	-0.155814	0.54525	-2.075804
H	-1.595039	-0.261963	-1.359676
C	-0.410522	1.334529	0.443532
N	-0.564484	2.452367	0.773708
C	-0.410391	-1.041423	0.944429
N	-0.570136	-1.913051	1.717095
C	-0.009255	-1.542813	-1.95448
N	0.363398	-2.560858	-2.406315
Cl	-3.268448	0.0	0.0
