12

C	0.0	0.0	0.0
C	-0.488588	-0.217208	-1.444868
Br	1.952156	0.0	0.0
H	-0.155057	-1.203415	-1.778688
H	-1.590992	-0.19901	-1.373084
C	-0.412277	1.296919	0.542211
N	-0.576287	2.37774	0.974042
C	-0.417267	-1.110573	0.858223
N	-0.573746	-2.054703	1.541239
C	0.000958	0.80592	-2.356956
N	0.382606	1.613882	-3.119123
Cl	-3.262885	0.0	0.0
