12

C	0.0	0.0	0.0
C	-0.22221	-0.18397	-1.540518
Br	1.963074	0.0	0.0
H	0.314078	0.647966	-2.006574
H	0.326995	-1.092702	-1.804504
C	-0.42888	1.296311	0.51597
N	-0.524248	2.397125	0.921631
C	-0.423072	-1.135907	0.811805
N	-0.49197	-2.114897	1.461717
C	-1.52423	-0.272877	-2.205172
N	-2.224126	-0.400112	-3.146089
Cl	-2.934918	0.0	0.0
