12

C	0.0	0.0	0.0
C	-0.492181	0.078932	-1.458478
Br	1.943368	0.0	0.0
H	-1.594142	0.106406	-1.377792
H	-0.107321	0.99909	-1.906605
C	-0.41142	1.195747	0.741517
N	-0.558951	2.21531	1.307608
C	-0.415343	-1.24036	0.659285
N	-0.565449	-2.289268	1.168311
C	-0.069781	-1.065368	-2.253801
N	0.225296	-1.973019	-2.938404
Cl	-3.271641	0.0	0.0
