18

C	-0.556563	0.000771	-1.436406
C	0.0	0.0	0.0
Cl	0.167198	1.305822	-2.397149
H	1.087983	0.0	0.0
N	-0.059407	-1.318234	-2.053115
O	1.142478	-1.519439	-2.015688
O	-0.907738	-2.062064	-2.542142
C	-2.060763	0.056769	-1.546107
H	-2.348838	-0.013824	-2.593811
H	-2.426099	0.995367	-1.132742
H	-2.503723	-0.783107	-1.011839
N	-0.484794	-1.154231	0.684384
H	0.189698	-1.427866	1.388105
H	-1.381359	-0.967402	1.115813
N	-0.450274	1.293051	0.66442
O	0.287256	2.268311	0.596622
O	-1.551838	1.271466	1.227718
Br	3.519226	0.0	0.0
