14
Coordinates from ORCA-job run
  C   0.89977885229982      0.31694455433595     -0.01830764768308
  C   -0.44273213925078      0.20842158328118      0.03085539341312
  H   1.33661511940187      1.30430615284080      0.08693380032514
  C   1.81179264365737     -0.85626100806524     -0.24651182203903
  H   2.85863180441926     -0.55064962272079     -0.22865827019447
  H   1.62726032166040     -1.33509186336722     -1.21496752476445
  H   1.69151593209237     -1.62765266036844      0.52463969610966
  N   -1.11466607511384     -1.00142936067034     -0.20325350414799
  H   -0.54259625814423     -1.82078466977013     -0.05843964581820
  H   -1.98615635967164     -1.07833046128118      0.30087624420781
  C   -1.35323097998456      1.38480164413907      0.21954363409947
  H   -0.78309638995132      2.30732112330576      0.32933761242801
  H   -2.02675905046964      1.48743737565125     -0.63643108919270
  H   -1.97535742094509      1.26096721268932      1.11338312325672
