14
Coordinates from ORCA-job run
  C   0.81153391413609      0.25876694596374     -0.42970971248917
  C   -0.43487068135964      0.21189260261075      0.08089202552240
  H   1.10013906232767      1.14073391337666     -0.99158014799444
  C   1.82590463291550     -0.83169435452590     -0.22449835527351
  H   1.47659227173551     -1.79778640394974     -0.61033775361473
  H   2.06433303351969     -0.97352717738089      0.83582807584067
  H   2.75925041069146     -0.60340269381088     -0.74061050714967
  N   -0.87394459704292     -0.82861175224760      0.91462754616832
  H   -0.34181634004719     -1.68129823800934      0.81743211625627
  H   -1.86372752363922     -1.01228076890264      0.83567240834731
  C   -1.43334083494362      1.31734312505751     -0.09098318248697
  H   -1.73439950478575      1.71402656310415      0.88313579811417
  H   -2.33828840877262      0.95534298859306     -0.59222725620303
  H   -1.01836543473496      2.13049525012112     -0.68664105503761
