14
Coordinates from ORCA-job run
  C   0.64823247192124     -0.74483379404593     -0.15410390653742
  C   -0.57179558555662     -0.22999530089509      0.09956397025969
  H   0.71586296582353     -1.82978142032721     -0.24890978266793
  C   1.94651609768447     -0.00507133148947     -0.28468080272116
  H   2.39197657749132     -0.15808023127966     -1.27303372425926
  H   2.67534064509634     -0.36245221451917      0.44994969431972
  H   1.83675368821658      1.06908718887271     -0.13604402110127
  N   -1.69040296072436     -1.05171016405345      0.35322555327666
  H   -2.53371254129731     -0.70523370474033     -0.08377339415725
  H   -1.53316873744506     -2.01558467923567      0.09225146997479
  C   -0.89371834228788      1.22700847985549      0.26453976509898
  H   -1.26600680383389      1.41368781609229      1.27544631589113
  H   -1.68781474924559      1.51964476204104     -0.43178096724452
  H   -0.03806272584279      1.87231459372444      0.07934982986786
