14
Coordinates from ORCA-job run
  C   0.61046712450198     -0.71565684208354     -0.33799294947542
  C   -0.57054389065985     -0.23395579364334      0.09874908475388
  H   0.63471430957174     -1.76318509510400     -0.64214217054239
  C   1.91808821112413      0.01351244572586     -0.43249920170331
  H   2.25526611555261      0.09525381051160     -1.47112618862824
  H   1.86882737755489      1.02172883984468     -0.02151586516971
  H   2.70152167651451     -0.52146026563547      0.11328533238221
  N   -1.69466551293036     -1.06764799767529      0.28098701174920
  H   -1.58772147526607     -1.96743169249158     -0.16712261704544
  H   -2.55473935717898     -0.62961731453852     -0.01967644572656
  C   -0.83041948664304      1.17111082247173      0.55876857136139
  H   0.03094605380156      1.82297229196680      0.43215516476032
  H   -1.66210839206756      1.60639700096115     -0.00646557114389
  H   -1.12163275387555      1.16897978968991      1.61259584442798
