14
Coordinates from ORCA-job run
  C   0.70552166303372     -0.69996941578446      0.10140662850948
  C   -0.55336704683987     -0.22436146677193      0.18350356352240
  H   0.85813974565963     -1.74239250073559      0.38568528169170
  C   1.94301867552324      0.04502921353793     -0.30295458705071
  H   1.74767493288868      1.09142024210111     -0.53733790851324
  H   2.40877015001659     -0.40950834157129     -1.18335605413067
  H   2.69017077291531      0.02434621612204      0.49703756847831
  N   -1.60617546383360     -0.99010732776644      0.72746583456454
  H   -1.37177487734309     -1.96983148475566      0.81226359266208
  H   -2.47100239034661     -0.88147214973489      0.21513868395069
  C   -0.98881315291225      1.17084031561442     -0.15956223607479
  H   -1.79651404861823      1.14488468130443     -0.89976006271190
  H   -1.38268487178106      1.66683939412620      0.73167533289791
  H   -0.18296408836245      1.77428262431412     -0.57120563779579
