14
Coordinates from ORCA-job run
  C   0.89714938582718      0.30144647187298      0.11964299925713
  C   -0.44536055273737      0.18888685005789      0.08078990820069
  H   1.32061395906442      1.24765024661831      0.43937467122035
  C   1.82794520427916     -0.82854856934944     -0.22198942936593
  H   2.87026670904593     -0.51643816838733     -0.14628597825351
  H   1.69348758572973     -1.68561361386726      0.44775416422370
  H   1.67719663433652     -1.19120785468378     -1.24664530345331
  N   -1.09664430207864     -1.01997713986657     -0.21102616526997
  H   -0.52538836193243     -1.67806085365233     -0.72114928013390
  H   -1.98920160670204     -0.89225709604535     -0.66562676608657
  C   -1.37270173129003      1.30477316882604      0.45908896334569
  H   -2.03193135289201      1.56852011891261     -0.37582794685735
  H   -2.00890199485475      1.00394474825546      1.29671182766165
  H   -0.81552957579566      2.19688169130878      0.74518833551131
