14
Coordinates from ORCA-job run
  C   0.74692844073176     -0.59787236663254      0.28934636245922
  C   -0.53950182006136     -0.19656900820398      0.24491785321922
  H   0.96261926463947     -1.50241088844889      0.86027262210431
  C   1.93839018736721      0.07577649497161     -0.32434318549488
  H   2.43802073923094     -0.58043746184619     -1.04438087101678
  H   2.68014222088565      0.33055944524521      0.43956931166220
  H   1.67930747834775      0.99797297527092     -0.84443434406793
  N   -1.54658202687940     -0.83689633071518      0.99754249212240
  H   -2.41295030819874     -0.93491798602844      0.48580630486766
  H   -1.25149660343814     -1.73333900520043      1.35980960094050
  C   -1.05858678813157      1.01234638547490     -0.47806816085242
  H   -1.48461324346750      1.71887827425972      0.23942785086886
  H   -1.86149109089378      0.72643271610936     -1.16695150277080
  H   -0.29118645013231      1.51947675574392     -1.05851433404157
