14
Coordinates from ORCA-job run
  C   0.67857443531538     -0.71312416367399     -0.17316121504414
  C   -0.57082112833924     -0.25038674017003      0.03373351409885
  H   0.79194656358473     -1.79157696009249     -0.29463312250036
  C   1.94231047305405      0.08533138151168     -0.29741027814581
  H   2.42489224358238     -0.09415372155914     -1.26362559177020
  H   2.66609092840713     -0.19472542124676      0.47486643183800
  H   1.77208619494299      1.15877508931263     -0.21491469009650
  N   -1.69843505833647     -1.09635469783692     -0.02537327540600
  H   -1.45202596837041     -2.07634885421332      0.00317930742633
  H   -2.38104952121864     -0.88676106437916      0.69029659830063
  C   -0.95465561007673      1.18811844826572      0.22612051381539
  H   -1.61071473694567      1.50878970808967     -0.58766202498434
  H   -0.09484353160316      1.85291845121088      0.26813754404047
  H   -1.51435528399636      1.30949854478122      1.16044628842768
