16
Coordinates from ORCA-job run
  C   0.73974993045440      0.70312652169845     -0.16220051309780
  C   -0.51207418791666     -0.06420421694862     -0.62696000643486
  Cl  0.86848093452499      2.25429746136243     -1.03787278099326
  H   -0.41288922287395     -0.19306027140559     -1.71042790482893
  N   0.63247193276534      0.99863719037359      1.25789771390552
  H   0.85110662048462      0.16440429740604      1.79279426186596
  H   1.30568653389025      1.71292242646559      1.51079995135850
  C   1.95321059882975     -0.06692482822542     -0.49502503964956
  N   2.91111277742684     -0.71661365856297     -0.70112485741587
  N   -1.66908624316412      0.77651457188087     -0.38263991858012
  H   -2.50726063746413      0.30506005376799     -0.69835800777315
  H   -1.74712096425647      0.95501260976554      0.61154351897287
  C   -0.57389053596647     -1.44380769350391      0.03710865854418
  H   -1.42865093163151     -1.99221394139746     -0.36607019420098
  H   0.32055063420018     -2.04588896445191     -0.14318308278833
  H   -0.73239723930308     -1.34726155822460      1.11471820111584
