16
Coordinates from ORCA-job run
  C   0.83450553192133      0.57273709160665     -0.05776452530683
  C   -0.47664038254555     -0.09462451253912     -0.52438917380197
  Cl  0.96124620785594      2.17987444175295     -1.00847282150684
  H   -0.43550198800677     -0.13114976719579     -1.62073524881267
  N   0.82159403686195      0.74549251786678      1.33467249728033
  H   1.61764785144899      1.26203099697871      1.68239290561281
  H   -0.05930590739791      1.16853704408266      1.60651552955740
  C   2.00521996667443     -0.19513971417495     -0.48554505085679
  N   2.92497792796222     -0.84002467041848     -0.82908527336309
  N   -1.57251435384662      0.72299109408676     -0.01536055970450
  H   -2.42478058638711      0.17858622877481      0.01526839350504
  H   -1.72809904834865      1.52265396133174     -0.61656913533752
  C   -0.59031279502887     -1.50738109526489      0.02923066233463
  H   0.26326272524546     -2.12029567182423     -0.26346089055024
  H   -0.64736668378365     -1.48211056509066      1.11775875358476
  H   -1.49293250262521     -1.98217737997292     -0.36545606263451
