16
Coordinates from ORCA-job run
  C   0.75154194601574      0.59159978296465      0.14242464851676
  C   -0.31959968039981     -0.33833985017142     -0.45410356400814
  Cl  -0.11474691927206      1.94217598918288      1.07386417516673
  H   0.25611590487045     -1.02181476873484     -1.08849453177265
  N   1.67243558272044     -0.12242413836425      0.95277591215483
  H   1.21739144763482     -0.49716969388733      1.77529992638305
  H   2.44373232230266      0.46581277564661      1.24321133091515
  C   1.47735074498140      1.26516258693409     -0.93765776733557
  N   2.08383784832086      1.75994427210445     -1.81273943083252
  N   -1.17409693086053      0.44515454750079     -1.32877336130940
  H   -1.87905571622945      0.93677869053449     -0.79278151545449
  H   -1.64229229256823     -0.16010905889272     -1.99042399505291
  C   -1.04504011659080     -1.15625206821350      0.61251189167541
  H   -1.81139504348241     -1.76486241802508      0.12751004352841
  H   -1.53950885767627     -0.50479486235802      1.33691018588938
  H   -0.37567023976682     -1.83986178622081      1.14046605153596
