16
Coordinates from ORCA-job run
  C   0.83001331462237      0.55838180803649      0.23341184517620
  C   -0.35219613495046     -0.19523650586556     -0.41970298623532
  Cl  0.16420669443593      1.81997129082736      1.33771034243745
  H   0.13028741422737     -0.88623699227569     -1.12408342528460
  N   1.75621137023576     -0.23392375537494      1.00580378214210
  H   2.22044329836319     -0.90945149313913      0.40913958817242
  H   1.27540202331270     -0.71173602440723      1.75723370119850
  C   1.58907078459635      1.23857904697109     -0.82550275443745
  N   2.24767543513118      1.70844140522234     -1.67629869331045
  N   -1.11791228543325      0.75000452901583     -1.21437938484479
  H   -1.67009795758579      0.26316920992403     -1.90832413090224
  H   -1.74731156790564      1.27975998250732     -0.62322079561325
  C   -1.16610133476403     -1.01281248423098      0.58060428210079
  H   -0.57001552999697     -1.77346766839259      1.09050033224271
  H   -1.62558334354624     -0.36563488467493      1.33070013395959
  H   -1.96509218074247     -1.53080746414342      0.04540816319834
