16
Coordinates from ORCA-job run
  C   0.89628344903125      0.50036984889509     -0.19129357594321
  C   -0.54815108863015      0.00457243947956     -0.41521661192880
  Cl  1.89028032987934      0.17960897625922     -1.65436668214609
  H   -0.90914653654108      0.60031418639561     -1.25973667109028
  N   0.86326993142214      1.91541561690173      0.03441569324825
  H   0.15612802898743      2.08775828882710      0.74242375041538
  H   1.76473590556911      2.26110800464647      0.33976074543603
  C   1.49859098624143     -0.26990617417881      0.91506635884484
  N   1.91620615126870     -0.85196190659741      1.84759022549686
  N   -1.30335141726409      0.40550053193980      0.77374392425888
  H   -1.26323736998225     -0.32606025385640      1.47557049973943
  H   -2.27602531360481      0.55315597237972      0.53743573130525
  C   -0.64354156361187     -1.48177488952918     -0.73224648479917
  H   -1.69345569667888     -1.74999677446971     -0.87116642113484
  H   -0.24843900830784     -2.07812220939036      0.09563561095912
  H   -0.10014678777841     -1.74898165770242     -1.63861609266163
