16
Coordinates from ORCA-job run
  C   0.76098792689308      0.66829824690038      0.17734470514814
  C   -0.33974591026923     -0.31345895753373     -0.30503211553662
  Cl  0.02148238055593      2.03851157451421      1.05655708054884
  H   0.23891628274659     -1.15772667368382     -0.72324376896295
  N   1.77558678671606      0.09918126727987      1.03886692703120
  H   2.19732832196894     -0.70823353554830      0.59224742226980
  H   1.36512697507519     -0.17932562285729      1.92152496673979
  C   1.43192340543176      1.19991515477456     -1.01926644897103
  N   1.94685935131243      1.53897507944844     -2.01900169252237
  N   -1.18373417267276      0.34433240963742     -1.28480355478977
  H   -2.03612117907208     -0.18202238458650     -1.42607682777708
  H   -0.71411933834643      0.42823527582596     -2.17831373909556
  C   -1.19744524400761     -0.83919782779666      0.83379166166220
  H   -0.59598425323856     -1.23700942039419      1.65232154139141
  H   -1.84172158329935     -0.04659947612521      1.21496623793666
  H   -1.82733974979396     -1.65387510985514      0.46711760492732
