16
Coordinates from ORCA-job run
  C   0.85944768499275      0.51639024222487     -0.01772157307044
  C   -0.56299337457774      0.04253998228509     -0.39466678811584
  Cl  1.83344326736831      0.54053254712946     -1.59577992526441
  H   -0.83727525296164      0.64092984769260     -1.27114651489130
  N   0.82922755957217      1.76149322864587      0.64051059784528
  H   1.72901414432485      2.22034289500283      0.66769826479293
  H   0.09621956002512      2.36406441561776      0.29512329350474
  C   1.54899913870192     -0.46556115121078      0.83150021695151
  N   2.05705354246360     -1.25276933276129      1.54067278241334
  N   -1.47861643079112      0.42408040006078      0.67800061884952
  H   -2.40753257264916      0.08970938543079      0.44606328849668
  H   -1.20388128167609     -0.01906016057781      1.54904620988578
  C   -0.59763616800004     -1.43538315985571     -0.77315439875206
  H   0.11802354289110     -1.68012343824091     -1.55953037399496
  H   -1.59695627756178     -1.68816572017242     -1.13652299467416
  H   -0.38653708212225     -2.05901998127113      0.09890729602339
