16
Coordinates from ORCA-job run
  C   0.83908098519406      0.56505593550200     -0.06634630812386
  C   -0.47938501026106     -0.09564854855680     -0.52168987477479
  Cl  0.97649682649345      2.16148620464214     -1.03280714553429
  H   -0.44254453448049     -0.14348154065008     -1.61776875825085
  N   0.83281660844390      0.75143670650242      1.32440862276778
  H   -0.04356720844852      1.18434566125239      1.59546542740444
  H   1.63423213203195      1.26533202224004      1.66365592940078
  C   2.00127954136103     -0.21758597558924     -0.49075700398442
  N   2.91367069722505     -0.87430493337643     -0.83137529875402
  N   -1.56650492347363      0.73625031214749     -0.01698367909884
  H   -2.42333919145245      0.19949176826033      0.02112853614133
  H   -1.71703724318843      1.53148017621750     -0.62532425392542
  C   -0.60312206840686     -1.50183037245924      0.04632918580477
  H   -1.51123193869546     -1.97278597447202     -0.34035286593819
  H   0.24408197443911     -2.12495455678424     -0.24332546847439
  H   -0.65592664678166     -1.46528688487626      1.13474295533996
