16
Coordinates from ORCA-job run
  C   0.84142064475865      0.56300930083204     -0.04974094305405
  C   -0.47657144874711     -0.08335388988346     -0.52625351756180
  Cl  0.99051128472812      2.17805707300001     -0.98373778051708
  H   -0.43338091577310     -0.10881970548201     -1.62281372262650
  N   0.82741483710345      0.72200150432454      1.34430468336763
  H   1.62911078619503      1.22506777409663      1.69875054896144
  H   -0.04864410444843      1.15351490902975      1.61859233841603
  C   2.00354660661803     -0.21506551973542     -0.48262144570982
  N   2.91579578266264     -0.86800398602680     -0.83082722358505
  N   -1.56365799678430      0.74243128626368     -0.01117629680096
  H   -1.70827956158796      1.54961741248742     -0.60503530024330
  H   -2.42241340002954      0.20796479549085      0.01176542186715
  C   -0.60871863661595     -1.50032093673641      0.01228657301255
  H   -1.51730854183579     -1.95916637855247     -0.38769621727989
  H   -0.66587597024220     -1.48592829893320      1.10104753843229
  H   0.23705063399847     -2.12100534017516     -0.28684465667862
