16
Coordinates from ORCA-job run
  C   0.65121850476627      0.49874713034269      0.35578402915371
  C   -0.41705483207587     -0.29612913449702     -0.44645069616913
  Cl  -0.11133799154680      1.33394760368862      1.75062468150195
  H   0.15743637788758     -0.78914975660661     -1.24395706230592
  N   1.66089553241276     -0.39062180308215      0.87259317805439
  H   2.09856481903608     -0.88720144883988      0.10305929567184
  H   2.37551469866307      0.12862444869100      1.37007002505473
  C   1.19208757909946      1.55857901652077     -0.51822494773632
  N   1.65515823151733      2.33693518900429     -1.26815276718345
  N   -1.42134917161819      0.52083765453390     -1.09016500386873
  H   -1.96089592919076      1.02875395597270     -0.39962590739935
  H   -1.01137321457908      1.18651169827532     -1.73408697849278
  C   -1.08412121271637     -1.36249438479537      0.40820734343109
  H   -0.34936895034793     -1.97018167954789      0.93457344430368
  H   -1.74301877272106     -0.90320268739814      1.14801512389968
  H   -1.69135566858648     -1.99395580226223     -0.24126375791540
