16
Coordinates from ORCA-job run
  C   0.67011410249838      0.62129547982851      0.25120786099683
  C   -0.35090644592053     -0.32266901121553     -0.40776514303824
  Cl  -0.17778724238315      1.79998723402211      1.31296002315135
  H   0.25560186031836     -0.97337466799019     -1.05333430419236
  N   1.58510539590203     -0.12615093763898      1.08303752998961
  H   2.11064521584074     -0.76954478714090      0.49867470951676
  H   2.24396856332973      0.50385268130605      1.52745894219824
  C   1.34974707901992      1.40946992941095     -0.79426542383527
  N   2.00790660749463      1.96810317461539     -1.59178452579593
  N   -1.19337028814490      0.47067290726420     -1.28793064557125
  H   -1.64135293884911     -0.12383565089377     -1.97318349005988
  H   -1.92047972823062      0.92874013181236     -0.75059818672912
  C   -1.08812178651641     -1.18585493999932      0.61029298407870
  H   -1.72208473563489     -0.56557349807294      1.24727594065698
  H   -1.72843063805489     -1.89431049098167      0.07856059144873
  H   -0.39955502066927     -1.73880755432626      1.24939313718485
