16
Coordinates from ORCA-job run
  C   0.81835144102678      0.54967083267833     -0.21413826495304
  C   -0.59468921914655     -0.08759338930655     -0.36910205590089
  Cl  1.66319513712943      0.44760495140080     -1.80459829296784
  H   -1.07629738298355      0.48967242450909     -1.16935919872474
  N   0.83484589077098      1.93666201232855      0.17908986059715
  H   0.21247325005836      2.48011514035177     -0.40808365131124
  H   0.58948671173291      2.04723527490842      1.15425145154914
  C   1.58213474761918     -0.21911641013467      0.77497389354462
  N   2.11283233467975     -0.85835761745400      1.60548072311165
  N   -1.40103997252780      0.05068880773411      0.82806461697292
  H   -1.03085337777954     -0.50714461601666      1.58897893107981
  H   -1.48731762230756      1.01214848387469      1.12782986411305
  C   -0.55481761782621     -1.55720986265811     -0.75842440826934
  H   -1.57921163047496     -1.91498871912810     -0.86732291187329
  H   -0.07047358254144     -2.14851715620717      0.02453352397499
  H   -0.01961910742977     -1.72087015688049     -1.69217408094296
