16
Coordinates from ORCA-job run
  C   0.75177180181516      0.54687404239495      0.27097203372188
  C   -0.39114887751866     -0.26294039664786     -0.41806091990375
  Cl  0.03161122234586      1.64496337958478      1.50266366624402
  H   0.14026562149773     -0.89138536532923     -1.14663655085096
  N   1.78666747855408     -0.21720002901847      0.92721301001357
  H   2.24609285817213     -0.82506964496740      0.25725758754180
  H   1.38851524764614     -0.77604449905180      1.67168618889109
  C   1.38367978173317      1.38631761246640     -0.75734819242350
  N   1.85865861824156      1.99657760676242     -1.64168239691261
  N   -1.34837930623137      0.53192165523372     -1.15725245110082
  H   -1.83403263309896      1.16837029679581     -0.53657530916216
  H   -0.89753852160676      1.07501829250660     -1.88389893423347
  C   -1.12980766935005     -1.17109453486501      0.55386265245411
  H   -1.84702991961776     -1.76356716903547     -0.01446029032083
  H   -0.46050834933826     -1.85524044378916      1.07814706122212
  H   -1.68081735324400     -0.58750080304027      1.29411284481951
