16
Coordinates from ORCA-job run
  C   0.76484192586036      0.52957839626818      0.24885898368839
  C   -0.40281549922249     -0.23959143690349     -0.41324891172456
  Cl  0.14447469301429      1.48722892598346      1.68063906661306
  H   0.09683110070599     -0.80117350451670     -1.21785398319149
  N   1.82767893318928     -0.35727944563513      0.59114372534070
  H   2.63946822425024      0.15655754911168      0.91171424220452
  H   1.53691582840558     -0.98670657769572      1.32875546852401
  C   1.26640877722121      1.52059992628167     -0.71031729594733
  N   1.64844313339902      2.28117824864350     -1.51964368196036
  N   -1.38856361615860      0.71174042449921     -0.89262843792293
  H   -2.27119630767332      0.24792113378251     -1.06170858205702
  H   -1.08891314800121      1.14020351284920     -1.76008763735225
  C   -1.06023115032778     -1.22976524865584      0.53445946533213
  H   -0.34897939113280     -1.95448274132080      0.93404393625676
  H   -1.81724089363340     -1.79873324141610     -0.01178360930341
  H   -1.54812260989638     -0.70527592127565      1.35665725149979
