16
Coordinates from ORCA-job run
  C   0.83699626690941      0.56439265579963     -0.09343359285516
  C   -0.48435753762757     -0.11377402180325     -0.51358507401039
  Cl  0.96125206067917      2.12757557343765     -1.11528519308200
  H   -0.45843468359039     -0.19733585151045     -1.60782072100452
  N   0.84343875635602      0.79783692003168      1.28999070754107
  H   -0.03114277556696      1.23792871990643      1.55490499072187
  H   1.64750611077254      1.32277781916433      1.60511989502535
  C   1.99703387126583     -0.22963213382905     -0.50189989195396
  N   2.90792711938364     -0.89601891950169     -0.82738859351754
  N   -1.56835564975288      0.73205056250098     -0.02544601963224
  H   -2.42333079016167      0.19504018808727      0.03963245139520
  H   -1.72729102867689      1.50625306493798     -0.65830847768790
  C   -0.59883479862014     -1.50084986988170      0.10148343160031
  H   -0.63978989311782     -1.42886968039479      1.18865937514078
  H   0.24648381990397     -2.13159934998807     -0.17703182241990
  H   -1.51010084815626     -1.98577567695696     -0.25959146526098
