16
Coordinates from ORCA-job run
  C   0.91306702119530      0.56345280565487     -0.12060230874390
  C   -0.52470109646842      0.01949453826456     -0.31624307616020
  Cl  1.77437803856534      0.53991884757161     -1.69172073379543
  H   -0.99530442244217      0.71351045367575     -1.02262190190777
  N   0.97236054597338      1.91226729794110      0.39666823019836
  H   0.69381227165343      2.55307934791533     -0.33907105612297
  H   0.28081843446654      1.95853737249189      1.14128980621748
  C   1.61908068172332     -0.33018341368946      0.81064248611425
  N   2.09846735513522     -1.07717638452843      1.58002286708290
  N   -1.18562766117733      0.18750987437724      0.97931056903525
  H   -2.18463439732047      0.28912863576458      0.85366381333910
  H   -1.03143046038943     -0.63246916823333      1.55679640091611
  C   -0.58789926706780     -1.40188914582735     -0.86096686569758
  H   -0.11903667256909     -1.49291157929471     -1.84098685459512
  H   -0.09117002825533     -2.09506885991185     -0.17577308219978
  H   -1.63318034302247     -1.70720062217181     -0.95140829368072
