16
Coordinates from ORCA-job run
  C   0.89655676619732      0.51112474338869     -0.15510684748471
  C   -0.53766313364857      0.01165639117969     -0.42932077526248
  Cl  1.92911401069607      0.23701479213395     -1.60128140485867
  H   -0.88186965654624      0.62692955021029     -1.26682830153390
  N   0.84755427629526      1.91928673072072      0.10818774482313
  H   1.73744758662422      2.26147451918170      0.44961542936198
  H   0.11962049462983      2.06691690401799      0.80082903217118
  C   1.47721585272807     -0.28396257258169      0.94472690646967
  N   1.88012119181533     -0.88164133998942      1.87383862146529
  N   -1.32665141345096      0.37617243181291      0.74982477142398
  H   -2.29472801034426      0.51782644012005      0.49176251609458
  H   -1.29610615754726     -0.37212020270529      1.43426126907974
  C   -0.61383510504821     -1.46634624310493     -0.78766788784793
  H   -1.65784126330351     -1.73806256255588     -0.96028113729550
  H   -0.23520361499335     -2.08157818585177      0.03408950129783
  H   -0.04573182410376     -1.70569139597700     -1.68664943790419
