16
Coordinates from ORCA-job run
  C   0.71058612422727      0.51222730408870      0.23305886655245
  C   -0.40996887161866     -0.28298287412272     -0.49669545982607
  Cl  -0.05727104568970      1.45222617858767      1.63457302541679
  H   0.11377384568034     -0.73335602334898     -1.34788149851816
  N   1.77159148217998     -0.32987132298166      0.64605252586382
  H   2.54833036819038      0.19691147584620      1.02611387313146
  H   1.45662151621496     -1.00185906439133      1.33377002712704
  C   1.22698505482030      1.53946393099963     -0.67663367342869
  N   1.61349092336292      2.33646795280520     -1.44798485390331
  N   -1.48616296164315      0.52554483864194     -1.02329614767551
  H   -1.14452009545864      1.20556012780608     -1.69163666676861
  H   -1.96106696105890      1.01947866179711     -0.27771472272848
  C   -0.97776833478998     -1.39752265363871      0.37033187428467
  H   -1.42169652049617     -1.00036706834204      1.28577065831437
  H   -1.76052335434106     -1.89828249953539     -0.19947254676254
  H   -0.22440116957987     -2.14263896421169      0.63264471892077
