16
Coordinates from ORCA-job run
  C   0.79343738949681      0.66521066418718     -0.14453575695508
  C   -0.47942252777924     -0.11175840977586     -0.61035243197271
  Cl  0.84887527871299      2.20352259604632     -1.09999712690628
  H   -0.38504105862934     -0.22585785072081     -1.69551454364886
  N   0.85664059547004      1.01485940044056      1.24817673957867
  H   1.09125387120469      0.21119998502479      1.81739007612784
  H   -0.02293581220970      1.41590515392121      1.54988103573551
  C   1.99258107703828     -0.10065968243811     -0.49565595953690
  N   2.91793939879804     -0.76832925959811     -0.77524071562383
  N   -1.72339477204912      0.57774036495154     -0.34898657943988
  H   -1.72271502090955      1.52098664000658     -0.71433243196590
  H   -1.94839618419581      0.59234929910554      0.63757360602513
  C   -0.53250359268473     -1.48867522326478      0.03587578677017
  H   -1.41186611989154     -2.01501142324275     -0.33678487327101
  H   0.35338094648088     -2.08396818525846     -0.18950744497845
  H   -0.62883346885269     -1.40651406938485      1.12301062006159
