16
Coordinates from ORCA-job run
  C   0.79074683059332      0.65567183668203     -0.19450918108425
  C   -0.50180079169511     -0.12834390712469     -0.58862634439259
  Cl  0.81912158014314      2.16133788291557     -1.20186965984580
  H   -0.44806107580931     -0.27716169195952     -1.67235316515587
  N   0.90576463386253      1.05059967434700      1.18245654455843
  H   0.04006322400860      1.46749018453957      1.50173482576002
  H   1.15618499097802      0.26502672411976      1.76948566128286
  C   1.97270622215408     -0.12856175714391     -0.56314567763370
  N   2.88321592226789     -0.81154739130896     -0.85418153294716
  N   -1.73204948743031      0.57623785853963     -0.30328215381139
  H   -1.92133246593822      0.62092789734389      0.68982617649730
  H   -1.74004177667938      1.50818360407346     -0.69650909995306
  C   -0.53711584231481     -1.48413963593810      0.10195250941439
  H   -0.58787921640994     -1.36817557419697      1.18906545522841
  H   0.33492379922466     -2.09273549984667     -0.14112879736801
  H   -1.43444654695516     -2.01481020504208     -0.21791556054958
