16
Coordinates from ORCA-job run
  C   0.77656283804345      0.55948909195098     -0.10874925331512
  C   -0.51304474367449     -0.16170667284473     -0.59346985451914
  Cl  0.93705574573211      2.09797592956368     -1.13701841802792
  H   -0.42172549593092     -0.23702719716537     -1.68126094348924
  N   0.72535563014302      0.83260014994501      1.27839885544917
  H   -0.06230386884006      1.43208046867988      1.48900157539861
  H   1.57605823785058      1.26514342838520      1.61529808735824
  C   1.96885837248963     -0.22960347691640     -0.41785932891075
  N   2.90860274600263     -0.88881525074407     -0.66851813995420
  N   -1.73043844472024      0.56196321329078     -0.30175264508270
  H   -1.97120428032740      0.52084395192457      0.67990451196828
  H   -1.69980533598846      1.52133547616402     -0.62043032643492
  C   -0.60042964761913     -1.55823211203273      0.00586388187118
  H   -1.51308294586938     -2.03373197843701     -0.35621751674585
  H   0.25259928240270     -2.17481338624105     -0.28044830760937
  H   -0.63405808969403     -1.50650163552276      1.09625782204373
