16
Coordinates from ORCA-job run
  C   0.83527462903258      0.58835250724306     -0.19865441120609
  C   -0.57261613558636     -0.02207319747224     -0.37766530446321
  Cl  1.71325859139445      0.55852770104157     -1.76530400490283
  H   -1.02755555163524      0.57915371355555     -1.17183582482851
  N   0.68834427642915      1.95978207792535      0.20549023871810
  H   1.59271313087246      2.37660172050224      0.39328968844446
  H   0.12811549963319      1.95766350453695      1.05250712818393
  C   1.60799605203219     -0.23755434308877      0.74842808733106
  N   2.15285353802915     -0.91427164767214      1.54060576328512
  N   -1.28812920860040      0.20643917168715      0.87716200651947
  H   -2.16352046924062      0.68516529382334      0.72154840265104
  H   -1.47194554546204     -0.66167230700828      1.36172391306631
  C   -0.54653862469538     -1.48943715746137     -0.77671190416417
  H   -0.12699674228892     -2.09662075633247      0.03078140058970
  H   0.04504282561011     -1.66195989109385     -1.67565199627092
  H   -1.56729626552432     -1.82909639018609     -0.96571318295345
