16
Coordinates from ORCA-job run
  C   0.91346049452858      0.55762970485618     -0.14573133562320
  C   -0.52994494217116      0.01646689127114     -0.30682110916552
  Cl  1.74583941812322      0.50531161807726     -1.73135627700751
  H   -1.00931414540515      0.70038599111333     -1.01712668621986
  N   0.98660047494999      1.91428345098453      0.34845691534515
  H   0.69892915159241      2.54429618766274     -0.39304974561835
  H   0.30768570331960      1.97608090619749      1.10361139974485
  C   1.63255316708023     -0.32425137340874      0.78666385912723
  N   2.12257409171746     -1.06172578990179      1.55840369291374
  N   -1.16755140692646      0.20905059683589      0.99677963845352
  H   -2.16777203615379      0.31689686628400      0.88672482593456
  H   -1.00994646296014     -0.60334893412088      1.58414503885248
  C   -0.60804547195671     -1.41365453882336     -0.82624734177154
  H   -0.10160920318783     -2.09737914478445     -0.13863583101214
  H   -1.65596659448597     -1.71617272970788     -0.89281917728914
  H   -0.15749223806429     -1.52286970253545     -1.81299786666430
