18

C	-0.306117	-0.032678	-1.519043
C	0.0	0.0	0.0
Br	-2.270369	-0.289293	-1.831973
H	1.099138	0.0	0.0
C	0.003695	1.243373	-2.157148
N	0.249592	2.271921	-2.672189
C	0.437591	-1.163333	-2.213935
H	0.263121	-1.148324	-3.290673
H	0.10569	-2.122613	-1.814946
H	1.503925	-1.032736	-1.999724
N	-0.398719	-1.207036	0.705587
H	-1.325556	-1.507819	0.428512
H	0.265404	-1.948853	0.532034
C	-0.543795	1.227712	0.703814
H	-0.179692	1.208534	1.731374
H	-1.638374	1.217937	0.723127
H	-0.204416	2.151387	0.231056
Br	3.554222	0.0	0.0
