18

C	-0.476733	-0.016374	-1.481284
C	0.0	0.0	0.0
Br	0.441532	1.390859	-2.512886
H	1.095257	0.0	0.0
C	-0.114126	-1.291083	-2.099906
N	0.103754	-2.341573	-2.581144
C	-1.979172	0.208185	-1.650485
H	-2.264435	0.119305	-2.699387
H	-2.249304	1.203426	-1.297984
H	-2.538433	-0.537576	-1.077158
N	-0.401156	-1.20661	0.713369
H	0.213314	-1.97146	0.466472
H	-1.358002	-1.475649	0.521311
C	-0.49702	1.224285	0.751739
H	0.033111	1.258352	1.704345
H	-1.570022	1.160179	0.963516
H	-0.290703	2.14888	0.209093
Br	3.586521	0.0	0.0
