17

C	-0.545794	-0.013682	-1.429726
C	0.0	0.0	0.0
Cl	-0.031384	1.57887	-2.115788
H	1.089058	0.0	0.0
H	-0.388042	0.861913	0.541272
C	0.089931	-1.10717	-2.269806
H	-0.2375	-2.085209	-1.910473
H	1.177112	-1.054201	-2.184317
H	-0.206798	-0.995053	-3.315683
C	-2.065329	-0.042354	-1.474278
H	-2.441867	-0.985876	-1.07104
H	-2.409476	0.06022	-2.506179
H	-2.485423	0.775597	-0.884998
N	-0.491318	-1.191491	0.740801
O	0.07945	-2.265318	0.558131
O	-1.471376	-1.038198	1.477318
Br	3.533372	0.0	0.0
