17

C	-0.546397	0.014829	-1.429299
C	0.0	0.0	0.0
Cl	-0.029467	-1.576365	-2.116357
H	1.089057	0.0	0.0
H	-0.387435	-0.862163	0.54145
C	-2.065802	0.038703	-1.474056
H	-2.484622	-0.780642	-0.88592
H	-2.409941	-0.062517	-2.506143
H	-2.443604	0.981177	-1.069333
C	0.087531	1.10915	-2.269255
H	-0.242637	2.085664	-1.908727
H	-0.208904	0.99692	-3.315114
H	1.174885	1.058344	-2.183
N	-0.491513	1.19078	0.741564
O	-1.471137	1.038252	1.475896
O	0.077928	2.26473	0.558608
Br	3.533363	0.0	0.0
