12
Coordinates from ORCA-job run
  C   0.19929625322567     -0.13299009942145      0.39497644934948
  C   -1.01763398643415     -0.88452236571610     -0.15381949103973
  H   0.19047112186851     -0.19802107175800      1.48894000261308
  H   -1.93516312243617     -0.42207680470154      0.21713911881190
  H   -1.02864975460684     -0.84673734019421     -1.24525635947663
  H   -1.00887997893194     -1.93163869660648      0.15355964934979
  C   0.19192851174314      1.34399641638139     -0.01144176559884
  H   0.20729250624067      1.44070356829104     -1.09928721208118
  H   -0.71377958765096      1.82497888918436      0.36535485296541
  H   1.05769301007588      1.87125491732660      0.39284594397534
  C   1.43669937919384     -0.77664978676909     -0.05911272693870
  N   2.42072564771234     -1.28829762601653     -0.44389846192992
