16
Coordinates from ORCA-job run
  C   -0.46546276860212      0.36311899139301     -0.32982894810349
  C   0.94598478711837      0.19133619175798      0.26851962829391
  Br  -0.12083650871991      0.93162417838180     -2.27590505264975
  H   1.42638788036706      1.18362874984057      0.24792454040162
  N   -1.15254782387717      1.36022397998291      0.38402552126154
  H   -0.68607089367013      2.25830096112076      0.36493362504425
  H   -2.10982714436823      1.46673789986869      0.07521152279648
  C   -1.24989926919981     -0.92813633798367     -0.38872876753818
  H   -0.68197065372288     -1.69359739811853     -0.91200412364892
  H   -2.20063165993150     -0.77007076031679     -0.90192336212193
  H   -1.44875302490789     -1.26022461790577      0.63393199364886
  N   1.70097106111254     -0.84623920288154     -0.41987692725285
  H   2.54421453381316     -1.05827128524628      0.09934736366482
  H   1.96466255224913     -0.51073436690278     -1.33855376914847
  C   0.80296973300890     -0.19328936508331      1.68019189317900
  N   0.73080919933047     -0.49340761790703      2.81273486217310
