16
Coordinates from ORCA-job run
  C   -0.50115176289631      0.15332063568065     -0.33166483343224
  C   0.74532548703030     -0.02768937831925      0.54944649449352
  Br  0.10322253932127     -0.33315438928849     -2.23897701740238
  H   0.40678963970199      0.22044484197314      1.56287713531131
  N   -0.91356569745793      1.48895539015724     -0.21850419336073
  H   -1.69175487178757      1.71180223412937     -0.82418320926303
  H   -0.13715145706378      2.12305262922927     -0.36485780843773
  C   -1.61245644877253     -0.81828364723612      0.00341485919535
  H   -1.92316239535622     -0.64775416899941      1.03857030126709
  H   -1.29042547235701     -1.85189034953871     -0.11902081194152
  H   -2.47033254899866     -0.64720260893567     -0.64972748763842
  N   1.76842968706139      0.93906879540561      0.18193276101349
  H   2.22067378371112      0.64426280396223     -0.67638159175673
  H   2.47064527929050      0.99775061033232      0.90908672451109
  C   1.20420367038169     -1.42791348617997      0.56548360977155
  N   1.61971056819177     -2.52576991237220      0.61350506766939
