16
Coordinates from ORCA-job run
  C   -0.49764581765753      0.10601185409589     -0.43994624726791
  C   0.75228154748032      0.01519217294562      0.46581943963394
  Br  0.10156516087421     -0.49863056574928     -2.25632563307700
  H   0.39894143680836      0.32301536598210      1.45867889670359
  N   -0.97780474138045      1.43924270718379     -0.54332610679441
  H   -1.69984247563168      1.63118011864077      0.13806685626855
  H   -0.21329672522738      2.10018719668360     -0.47115824277730
  C   -1.59452817645197     -0.83900569471254      0.00618146161369
  H   -2.45844413816230     -0.72711997951550     -0.65035785271547
  H   -1.89263612241669     -0.58927444598395      1.03135899520754
  H   -1.26523555785109     -1.87718980470617     -0.01998265283716
  N   1.75055417748299      0.98529400273765      0.04520723570228
  H   2.47330249495484      1.07208316219216      0.74940000487949
  H   2.18359411191601      0.67393058087895     -0.81736630737078
  C   1.25264977263121     -1.36559930008347      0.58840509599616
  N   1.68654505263115     -2.45031737058962      0.71534505683480
