15

C	0.0	0.0	0.0
C	-0.42136	-0.49139	-1.411826
Cl	1.789015	0.0	0.0
H	0.358225	-0.162767	-2.106875
H	-0.308407	-0.721544	0.757246
C	-0.533313	1.376847	0.332469
H	-1.623683	1.333744	0.379135
H	-0.242196	2.098702	-0.431352
H	-0.141661	1.696461	1.301154
N	-1.664995	0.094123	-1.854051
H	-2.45423	-0.080983	-1.219382
H	-1.914936	-0.274909	-2.763566
C	-0.366748	-1.975905	-1.429189
N	-0.335599	-3.149286	-1.485306
Cl	-4.24326	0.0	0.0
