15

C	0.0	0.0	0.0
C	-0.283757	0.149059	-1.522012
Cl	1.797584	0.0	0.0
H	0.400941	-0.571445	-1.995855
H	-0.30978	-0.993649	0.325986
C	-0.569292	1.080608	0.879862
H	-1.659917	1.00719	0.811079
H	-0.257536	0.924586	1.915661
H	-0.243817	2.062587	0.538747
N	0.004657	1.524774	-1.94547
H	-0.305533	1.648562	-2.900865
H	1.007223	1.664819	-1.917087
C	-1.579754	-0.240887	-2.103222
N	-2.332917	-0.586175	-2.938668
Cl	-3.780208	0.0	0.0
