15

C	0.0	0.0	0.0
C	-0.420976	0.255867	-1.471822
Cl	1.786225	0.0	0.0
H	0.349489	0.898373	-1.911985
H	-0.308123	-0.998879	0.311348
C	-0.537105	1.041237	0.958012
H	-0.24825	2.044412	0.641421
H	-1.627273	0.978021	0.97695
H	-0.146648	0.852142	1.960872
N	-1.67734	0.961645	-1.574947
H	-2.458075	0.495088	-1.096735
H	-1.934076	1.063425	-2.549388
C	-0.342337	-1.027247	-2.217042
N	-0.293985	-2.021918	-2.84142
Cl	-4.259932	0.0	0.0
