15

C	0.0	0.0	0.0
C	-0.437151	0.245209	-1.468016
Cl	1.786352	0.0	0.0
H	0.347153	0.845066	-1.941557
H	-0.303139	-0.997925	0.319658
C	-0.528574	1.041517	0.963138
H	-1.61891	0.983627	0.997062
H	-0.240822	2.045103	0.646103
H	-0.127088	0.851679	1.962217
N	-1.668887	0.998212	-1.559601
H	-1.927094	1.101706	-2.535239
H	-2.459993	0.547098	-1.082299
C	-0.44651	-1.061442	-2.173875
N	-0.516943	-2.088976	-2.74124
Cl	-4.264872	0.0	0.0
