15

C	0.0	0.0	0.0
C	-0.385913	0.186911	-1.498874
Cl	1.789643	0.0	0.0
H	0.257218	0.996511	-1.865953
H	-0.316753	-0.984508	0.349189
C	-0.570405	1.091476	0.87482
H	-0.216051	0.984908	1.901775
H	-1.661327	1.007995	0.867888
H	-0.273059	2.077406	0.505375
N	-1.74633	0.522403	-1.833808
H	-2.444274	-0.059909	-1.367746
H	-1.954899	1.463087	-1.524479
C	0.016452	-1.021294	-2.246174
N	0.334213	-1.978469	-2.846592
Cl	-4.277783	0.0	0.0
