15

C	0.0	0.0	0.0
C	-0.371828	0.285922	-1.490488
Cl	1.789948	0.0	0.0
H	0.22149	1.165323	-1.767385
H	-0.294932	-1.018164	0.263152
C	-0.616449	0.994838	0.946517
H	-0.264196	0.829081	1.966552
H	-0.36894	2.019151	0.650064
H	-1.702135	0.854808	0.916477
N	-1.744994	0.552712	-1.840954
H	-2.038714	1.440908	-1.455263
H	-2.400312	-0.114839	-1.437843
C	0.118843	-0.829418	-2.325461
N	0.460805	-1.724862	-3.003426
Cl	-4.273031	0.0	0.0
