15

C	0.0	0.0	0.0
C	-0.38176	0.363648	-1.46703
Cl	1.793924	0.0	0.0
H	0.277978	1.196816	-1.740367
H	-0.314002	-1.019583	0.230776
C	-0.570622	0.979023	0.998058
H	-0.273793	2.002075	0.749403
H	-1.661239	0.895156	0.980056
H	-0.215211	0.751224	2.004902
N	-1.733954	0.762241	-1.765233
H	-1.921804	1.66977	-1.358375
H	-2.444056	0.147823	-1.36106
C	-0.002664	-0.764351	-2.339563
N	0.282622	-1.68467	-3.011158
Cl	-4.250841	0.0	0.0
