15

C	0.0	0.0	0.0
C	-0.531105	-0.081206	-1.436097
Cl	1.790237	0.0	0.0
H	-1.623132	0.022246	-1.332235
H	-0.315827	-0.909779	0.51423
C	-0.485165	1.234869	0.732528
H	-0.119228	2.136068	0.234851
H	-0.117787	1.235089	1.760951
H	-1.577271	1.223655	0.734026
N	-0.257495	-1.326178	-2.142605
H	0.703918	-1.604781	-1.978151
H	-0.870972	-2.038446	-1.763681
C	-0.033309	1.05051	-2.231862
N	0.353322	1.961188	-2.863918
Cl	-3.678562	0.0	0.0
