14

C	-0.346875	0.023814	-1.485062
C	0.0	0.0	0.0
Cl	-0.037447	-1.552975	-2.271849
H	1.09554	0.0	0.0
H	0.349486	0.733371	-1.947438
C	-1.724437	0.427639	-1.763023
N	-2.827987	0.781904	-1.959647
C	-0.576516	-1.132043	0.694093
N	-1.052985	-2.028332	1.289392
C	-0.372264	1.324039	0.667179
H	-1.448567	1.515181	0.683879
H	0.009442	1.316367	1.690456
H	0.137389	2.136822	0.14123
H	2.648479	0.0	0.0
