14

C	-0.341367	-0.001568	-1.479045
C	0.0	0.0	0.0
Cl	-2.115305	-0.159669	-1.823557
H	1.097591	0.0	0.0
H	0.132876	-0.866035	-1.950135
C	0.130402	1.210925	-2.147041
N	0.462606	2.184371	-2.714225
C	-0.459122	-1.231946	0.614823
N	-0.807154	-2.226597	1.137462
C	-0.471358	1.232136	0.758991
H	-1.560294	1.330509	0.771871
H	-0.030123	2.123149	0.305412
H	-0.104753	1.173199	1.786283
H	2.656696	0.0	0.0
