14

C	-0.510703	-0.01467	-1.442931
C	0.0	0.0	0.0
Cl	0.039668	1.432894	-2.35436
H	1.095689	0.0	0.0
H	-1.604293	0.031671	-1.465607
C	-0.105172	-1.214052	-2.177162
N	0.140332	-2.179738	-2.798712
C	-0.492679	-1.203005	0.650635
N	-0.902605	-2.168956	1.18372
C	-0.437593	1.245222	0.767466
H	-1.522067	1.397182	0.753266
H	-0.10655	1.148863	1.80319
H	0.060172	2.118708	0.344983
H	2.687267	0.0	0.0
