14

C	-0.431401	0.003636	-1.462141
C	0.0	0.0	0.0
Cl	0.177672	-1.430446	-2.348227
H	1.09553	0.0	0.0
H	0.029588	0.881087	-1.935292
C	-1.887104	0.064267	-1.629997
N	-3.057867	0.144333	-1.740843
C	-0.479214	-1.198129	0.672198
N	-0.878253	-2.14919	1.239877
C	-0.479097	1.258685	0.71514
H	-1.572491	1.330701	0.771301
H	-0.081223	2.140688	0.201918
H	-0.070232	1.260457	1.72856
H	2.701621	0.0	0.0
