14

C	-0.510487	-0.032142	-1.443414
C	0.0	0.0	0.0
Cl	0.040839	1.403178	-2.373302
H	1.095709	0.0	0.0
H	-1.604212	0.014096	-1.466218
C	-0.107555	-1.241153	-2.163179
N	0.132047	-2.214956	-2.774071
C	-0.492267	-1.19576	0.664241
N	-0.901455	-2.156671	1.207071
C	-0.440135	1.253457	0.752278
H	-1.524682	1.4077	0.726502
H	0.06357	2.121676	0.325795
H	-0.118861	1.167407	1.792316
H	2.687559	0.0	0.0
