17

C	0.0	0.0	0.0
C	-0.509088	-0.012839	-1.454891
Br	1.954808	0.0	0.0
H	-1.604662	-0.102335	-1.341517
N	-0.478567	1.236018	0.584807
H	-0.153308	1.299786	1.543404
H	-1.502221	1.155149	0.600741
C	-0.445379	-1.255775	0.736168
H	-0.095598	-1.216658	1.771243
H	-1.538907	-1.273522	0.724846
H	-0.052106	-2.160732	0.269494
C	-0.040116	-1.201765	-2.178462
N	0.298905	-2.15301	-2.778807
N	-0.10595	1.19926	-2.168862
H	-0.161764	1.946124	-1.480524
H	-0.807503	1.390016	-2.876787
Br	-3.823226	0.0	0.0
