17

C	0.0	0.0	0.0
C	-0.450743	0.059706	-1.473015
Br	2.005955	0.0	0.0
H	-1.549434	0.014501	-1.39156
N	-0.469874	1.119539	0.7447
H	-1.46547	0.951685	0.913655
H	-0.402364	1.939053	0.147518
C	-0.425968	-1.297791	0.656006
H	0.011961	-2.161548	0.153889
H	-1.518262	-1.353789	0.611458
H	-0.105961	-1.289463	1.698824
C	8.1e-05	-1.100554	-2.258549
N	0.333861	-2.002104	-2.935305
N	-0.088662	1.336556	-2.075709
H	-0.685567	1.515537	-2.873229
H	0.875267	1.310474	-2.386927
Br	-3.806001	0.0	0.0
