17

C	0.0	0.0	0.0
C	-0.335475	-0.114882	-1.520084
Br	2.028601	0.0	0.0
H	0.252509	-0.951089	-1.914755
N	-0.529629	1.187828	0.515007
H	-0.562716	1.231746	1.522871
H	-0.142607	2.030045	0.112626
C	-0.505202	-1.196936	0.773171
H	-1.598757	-1.152326	0.76967
H	-0.15921	-2.127896	0.320504
H	-0.146931	-1.16167	1.804662
C	0.140338	1.105552	-2.201639
N	0.494112	2.096973	-2.722459
N	-1.720378	-0.321471	-1.851775
H	-2.347487	0.285126	-1.322261
H	-2.010644	-1.261977	-1.616121
Br	-4.482527	0.0	0.0
