17

C	0.0	0.0	0.0
C	-0.165669	0.205894	-1.539728
Br	2.061529	0.0	0.0
H	0.383197	1.138299	-1.753847
N	-0.518769	1.063319	0.690129
H	-0.838697	0.929216	1.632461
H	-0.282371	2.001499	0.420718
C	-0.498362	-1.325113	0.509564
H	-1.593425	-1.297574	0.435465
H	-0.095259	-2.13466	-0.094134
H	-0.202627	-1.461563	1.553351
C	-1.509836	0.464571	-2.08758
N	-2.327068	0.733585	-2.890683
N	0.362901	-0.93714	-2.293442
H	1.371296	-0.868797	-2.333979
H	-0.005582	-0.904958	-3.235445
Br	-4.061402	0.0	0.0
