17

C	0.0	0.0	0.0
C	-0.414862	-0.34285	-1.456433
Br	1.969653	0.0	0.0
H	0.273252	-1.107526	-1.830456
N	-0.565725	1.234108	0.372693
H	-0.224093	2.02748	-0.149761
H	-0.54214	1.408042	1.365939
C	-0.452637	-1.087079	0.963782
H	-0.123185	-2.0666	0.620091
H	-0.023961	-0.896566	1.951462
H	-1.541334	-1.076437	1.019491
C	-0.211728	0.862886	-2.299702
N	-0.124103	1.824533	-2.971139
N	-1.751757	-0.882461	-1.464035
H	-2.444748	-0.296118	-0.988175
H	-2.079833	-1.034873	-2.409557
Br	-4.686892	0.0	0.0
