17

C	0.0	0.0	0.0
C	-0.239112	-0.03937	-1.548688
Br	1.97641	0.0	0.0
H	0.438809	0.739082	-1.925748
N	-0.49203	1.255358	0.491286
H	-1.510797	1.216491	0.354378
H	-0.346142	1.292224	1.493318
C	-0.474681	-1.232515	0.741694
H	-0.180518	-1.159633	1.792578
H	-0.075328	-2.147577	0.307617
H	-1.56583	-1.230219	0.67006
C	-1.527657	0.381141	-2.133121
N	-2.259718	0.764961	-2.970645
N	0.070306	-1.368584	-2.087475
H	1.076157	-1.489875	-2.067636
H	-0.232447	-1.407726	-3.052985
Br	-3.828512	0.0	0.0
