17

C	0.0	0.0	0.0
C	-0.481752	-0.105398	-1.46149
Br	2.037542	0.0	0.0
H	-1.573113	-0.227426	-1.339703
N	-0.483751	1.197757	0.541389
H	-0.062627	2.026658	0.152
H	-0.47163	1.217082	1.549714
C	-0.455083	-1.188701	0.816383
H	-1.551215	-1.174509	0.805599
H	-0.092926	-1.106212	1.8447
H	-0.080057	-2.120892	0.392726
C	0.052307	-1.305499	-2.118372
N	0.459699	-2.272024	-2.646863
N	-0.258854	1.057516	-2.299266
H	-0.920899	1.774814	-2.032003
H	0.690719	1.396321	-2.19104
Br	-3.899216	0.0	0.0
