17

C	0.0	0.0	0.0
C	-0.284873	0.00088	-1.543811
Br	2.022595	0.0	0.0
H	0.486732	-0.604492	-2.027542
N	-0.502882	1.098904	0.744738
H	-0.377415	1.976584	0.256155
H	-1.496585	0.951499	0.916651
C	-0.452772	-1.302693	0.628538
H	-0.101859	-1.336873	1.661258
H	-1.545505	-1.338756	0.610174
H	-0.065637	-2.158732	0.076147
C	-0.102971	1.381668	-2.053326
N	0.015364	2.470693	-2.481905
N	-1.564063	-0.600137	-1.850148
H	-2.337289	-0.222811	-1.293775
H	-1.790013	-0.455817	-2.827077
Br	-4.221863	0.0	0.0
