16

C	-0.528867	0.023968	-1.403995
C	0.0	0.0	0.0
Cl	-2.265284	-0.297992	-1.490538
H	1.094356	0.0	0.0
H	-0.320989	-0.945627	0.441754
N	-0.215187	1.374286	-2.043669
O	0.968191	1.535421	-2.301744
O	-1.122118	2.186628	-2.166939
N	0.116344	-1.027633	-2.305003
O	0.522621	-2.035888	-1.749497
O	0.090978	-0.800478	-3.507831
C	-0.490492	1.18949	0.81953
H	-0.136972	1.06862	1.844669
H	-1.57918	1.280612	0.830835
H	-0.063037	2.121126	0.443664
Br	3.557026	0.0	0.0
