16

C	-0.469957	0.119688	-1.420071
C	0.0	0.0	0.0
Cl	0.295586	1.41287	-2.293916
H	1.102296	0.0	0.0
H	-0.347872	-0.960996	0.382827
N	-0.283995	-1.173094	-2.22565
O	0.284902	-2.106586	-1.680044
O	-0.753641	-1.154934	-3.357875
N	-1.998204	0.288765	-1.425932
O	-2.48315	1.37457	-1.699894
O	-2.605369	-0.713016	-1.05986
C	-0.499608	1.150936	0.867888
H	-1.584438	1.132242	1.006878
H	-0.026698	1.070845	1.84778
H	-0.216577	2.116613	0.446087
Br	3.548524	0.0	0.0
