16

C	-0.529172	0.023119	-1.40394
C	0.0	0.0	0.0
Cl	-2.26398	0.355889	-1.479197
H	1.091586	0.0	0.0
H	-0.32085	0.93058	0.473033
N	0.120848	1.099407	-2.271293
O	0.526635	2.090097	-1.684556
O	0.098694	0.907822	-3.480415
N	-0.221537	-1.30713	-2.086957
O	0.96361	-1.470987	-2.336389
O	-1.134932	-2.104811	-2.252335
C	-0.492595	-1.216025	0.778359
H	-0.141012	-1.130121	1.807797
H	-0.064715	-2.134668	0.371717
H	-1.58139	-1.306532	0.784806
Br	3.558472	0.0	0.0
