12

C	-0.409977	0.013564	-1.46001
C	0.0	0.0	0.0
Cl	0.056751	-1.641999	-2.159266
H	1.091648	0.0	0.0
H	0.234325	0.697442	-2.011383
H	-0.362785	-0.905879	0.495871
N	-1.777195	0.321846	-1.695208
H	-2.373228	-0.306863	-1.17101
H	-2.006857	0.248832	-2.679428
C	-0.502323	1.168945	0.699991
N	-0.886614	2.107389	1.295473
F	2.566273	0.0	0.0
