12

C	-0.487294	0.005397	-1.445864
C	0.0	0.0	0.0
Cl	-0.010669	-1.556106	-2.193543
H	1.092948	0.0	0.0
H	0.061109	0.774024	-1.993153
H	-0.355862	-0.900332	0.513432
N	-1.908963	0.191678	-1.690136
H	-2.413327	-0.486248	-1.126583
H	-2.156678	1.111014	-1.337114
C	-0.524823	1.172387	0.673714
N	-0.969046	2.1416	1.172025
F	2.565124	0.0	0.0
