17

C	0.0	0.0	0.0
C	-0.572499	0.212029	-1.406413
F	1.362821	0.0	0.0
H	-1.503719	-0.356184	-1.473043
N	-0.494701	0.940164	0.899536
H	-0.34293	0.604147	1.843822
H	-1.496047	1.062738	0.724043
N	-0.304054	-1.457448	0.492126
O	0.176962	-1.709254	1.596994
O	-0.995799	-2.209939	-0.176657
N	0.409471	-0.432182	-2.41685
O	0.788669	-1.577762	-2.20587
O	0.730522	0.247116	-3.391196
N	-0.815633	1.570591	-1.675605
H	-1.445153	1.685529	-2.453866
H	0.034537	2.095634	-1.81877
Cl	-3.570766	0.0	0.0
