17

C	0.0	0.0	0.0
C	-0.363424	-0.108863	-1.491278
F	1.388376	0.0	0.0
H	0.215347	-0.939569	-1.888608
N	-0.559458	1.033162	0.724985
H	-0.957502	0.706169	1.596055
H	-1.23613	1.566408	0.196246
N	-0.301264	-1.374958	0.652433
O	-0.72732	-1.374439	1.801368
O	-0.011132	-2.367546	-0.004828
N	0.294833	1.108049	-2.167771
O	-0.19978	2.208796	-1.947536
O	1.246942	0.888201	-2.916969
N	-1.7178	-0.166848	-1.838823
H	-1.967051	-1.040435	-2.275115
H	-2.423865	0.038155	-1.120766
Cl	-4.193355	0.0	0.0
