16
Coordinates from ORCA-job run
  C   -0.62628505038499      0.19148752373968     -0.06060157815221
  C   0.87957897185148      0.41992065621095     -0.15440550749023
  Br  -1.45443955654613      0.36713536049458     -1.80858456105957
  H   1.25251954989611      0.45566774097053      0.87406074952245
  H   1.02485798002569      1.41142496336599     -0.59257126568552
  N   -0.81282213561499     -1.23802318386905      0.45285811357845
  O   -1.26012133484554     -2.11035350916138     -0.27644752007154
  O   -0.42129784420595     -1.39571224669748      1.60781346822255
  C   -1.31492133009475      1.13514247247152      0.90788845346201
  H   -1.18917056514574      2.16078664250411      0.55872414930862
  H   -2.38244194438203      0.91688465917913      0.96894645177568
  H   -0.86837160876000      1.03068309869091      1.89718529414082
  C   1.64032638951003     -0.63670254392091     -0.94568796937539
  H   1.57768612897451     -1.61511965480610     -0.46450139695697
  H   1.25845702567317     -0.72786703980103     -1.96325757324769
  H   2.69644532404912     -0.36535493937147     -1.00141930797146
