16
Coordinates from ORCA-job run
  C   -0.67036188272848     -0.05051136572186     -0.07522349114259
  C   0.69519761775100     -0.62991201099254     -0.42008305904741
  Br  -1.50457832007571      0.73162685160442     -1.66215809037826
  H   1.00522338773871     -1.22527627523673      0.44867588748446
  H   0.56970271067500     -1.32516469613158     -1.25092234156389
  N   -1.56947056469580     -1.23106240283432      0.30704321878254
  O   -1.55735141868637     -2.19864310175928     -0.44443618038772
  O   -2.22183022496930     -1.13632211593183      1.34256606170500
  C   -0.66087894059361      0.97133737409361      1.03620175923992
  H   -1.67220770311199      1.28141992937098      1.29008214385820
  H   -0.19345607320911      0.54171023654181      1.92592624077751
  H   -0.09330682927066      1.84539358160947      0.71836391826923
  C   1.75827176608145      0.41389750500307     -0.73927958842343
  H   1.44158728385987      1.06566856184523     -1.55528628488095
  H   1.99775074785845      1.03246534767662      0.12714459944477
  H   2.67770844337654     -0.08662741913708     -1.04961479373737
