16
Coordinates from ORCA-job run
  C   -0.79818733600291      0.07268475165305     -0.21632180502413
  C   0.51745830569515      0.02011029174931     -1.00244784230764
  Br  -2.19676453272168      0.69292691794905     -1.42032722849924
  H   0.54725183335361      0.94819090034915     -1.57966600569213
  H   0.44150993110068     -0.78994922950683     -1.73471385054249
  N   -1.17172270881836     -1.33045021148625      0.27262752694076
  O   -0.26635914306448     -1.90432163441787      0.87554412922810
  O   -2.29772716425289     -1.77151283590742      0.09760600891628
  C   -0.76874302187428      0.95830908145909      1.01572366607106
  H   -0.49480546091715      1.97524334847256      0.73091410399889
  H   -1.75117563278268      0.98004736424117      1.49009670294843
  H   -0.03515528216235      0.57272501343468      1.72532595069889
  C   1.81385494770321     -0.09145078737547     -0.20209691454980
  H   1.86569918781646     -1.01198939584068      0.37399744934232
  H   2.65279500746049     -0.07499863363751     -0.90206552569822
  H   1.94107106946718      0.75543505886396      0.47480363416891
