16
Coordinates from ORCA-job run
  C   -0.78469029745276      0.11792584076014     -0.15493160393227
  C   0.46284592247339      0.13918293782906     -1.02541588281884
  Br  -2.34416601737697      0.51681447629196     -1.26408566270752
  H   0.29958329759243     -0.52927371455541     -1.87165255726497
  H   0.55993558526982      1.15337470215266     -1.42345165578279
  N   -0.98911595379484     -1.31684192986446      0.33359022332051
  O   -0.88240798523232     -2.20544170370459     -0.50322528039143
  O   -1.22687271840931     -1.48058133673924      1.52692924844913
  C   -0.75993834925885      1.06872728648543      1.01943191589400
  H   -0.59853015501110      2.08113190428200      0.64505026305704
  H   -1.69887190632577      1.03772873323093      1.56851599759003
  H   0.04526620887118      0.80378764391424      1.70551680531819
  C   1.72880495599150     -0.26628072883956     -0.27280226282683
  H   1.64259293823450     -1.27236969307436      0.14345057407469
  H   2.57390845369664     -0.27259101478818     -0.96423213596657
  H   1.97065602073245      0.42570659661938      0.53531201398763
