14

C	-0.289129	0.056737	-1.470839
C	0.0	0.0	0.0
Cl	-2.04942	0.366567	-1.837243
H	1.093093	0.0	0.0
H	-0.086245	-0.922753	-1.899133
H	-0.393078	0.853073	0.550815
C	0.589551	1.117122	-2.104651
H	0.291521	2.113338	-1.767705
H	0.533115	1.085197	-3.194795
H	1.60472	0.911974	-1.74447
N	-0.515754	-1.208365	0.651938
O	-0.857998	-1.117267	1.8337
O	-0.534612	-2.262117	0.013356
F	2.600233	0.0	0.0
