14

C	-0.241179	0.091336	-1.487178
C	0.0	0.0	0.0
Cl	-1.999158	0.312952	-1.927334
H	1.091424	0.0	0.0
H	0.012999	-0.901958	-1.863486
H	-0.437456	-0.891018	0.440646
C	0.640678	1.107097	-2.186354
H	0.312245	2.123132	-1.982602
H	1.636057	0.955519	-1.753962
H	0.653599	0.933909	-3.266698
N	-0.511338	1.135732	0.772857
O	-1.087195	0.889317	1.838565
O	-0.319045	2.27659	0.349538
F	2.599923	0.0	0.0
