18

C	-0.532495	-0.011548	-1.426238
C	0.0	0.0	0.0
Cl	0.290153	1.354225	-2.360312
H	1.094175	0.0	0.0
N	-0.116979	-1.241188	-2.221811
O	-0.751168	-1.446391	-3.256873
O	0.816192	-1.915894	-1.808782
N	-1.932786	0.069845	-1.4732
H	-2.192657	0.827587	-0.849785
H	-2.262944	0.223318	-2.416636
C	-0.507827	-1.188767	0.798133
H	-0.038149	-1.15513	1.786521
H	-1.59609	-1.170976	0.908329
H	-0.20492	-2.127381	0.336355
N	-0.515939	1.252859	0.597783
H	0.197746	1.958616	0.432317
H	-0.532361	1.114828	1.602516
H	2.923396	0.0	0.0
