18

C	-0.29784	-0.066226	-1.503619
C	0.0	0.0	0.0
Cl	-1.848663	-0.878499	-1.903693
H	1.0994	0.0	0.0
N	-0.398489	1.389239	-2.000346
O	0.66011	1.997688	-1.906603
O	-1.451645	1.845369	-2.422389
N	0.762787	-0.665753	-2.260564
H	0.641467	-1.669503	-2.259453
H	1.643667	-0.453456	-1.765092
C	-0.396234	-1.271963	0.723011
H	-1.478195	-1.337941	0.874479
H	-0.070396	-2.156805	0.172495
H	0.112183	-1.283251	1.691378
N	-0.55856	1.1957	0.618899
H	-1.027137	0.954725	1.483349
H	0.214536	1.814285	0.844251
H	2.860392	0.0	0.0
