18

C	-0.610676	-0.027276	-1.392138
C	0.0	0.0	0.0
Cl	0.242671	1.237025	-2.430302
H	1.094641	0.0	0.0
N	-0.342472	-1.312483	-2.163429
O	0.568913	-2.039174	-1.790732
O	-1.065019	-1.509534	-3.139748
N	-2.002222	0.154392	-1.348672
H	-2.16099	0.939875	-0.723732
H	-2.388505	0.314967	-2.26928
C	-0.508374	-1.134926	0.873121
H	-1.580847	-1.045624	1.070831
H	0.043153	-1.095562	1.818001
H	-0.302426	-2.106362	0.426135
N	-0.448002	1.293738	0.580949
H	0.299683	1.956606	0.383846
H	-0.443201	1.178569	1.588972
H	2.894464	0.0	0.0
