18

C	-0.484221	0.064883	-1.423023
C	0.0	0.0	0.0
Cl	-2.364913	0.424518	-1.430511
H	1.091375	0.0	0.0
N	0.071276	1.26752	-2.183577
O	-0.141661	1.272533	-3.39727
O	0.695209	2.114237	-1.56674
N	-0.179283	-1.04608	-2.205575
H	-0.555144	-1.896349	-1.81548
H	-0.476261	-0.908824	-3.162474
C	-0.389492	-1.320651	0.651752
H	-0.010924	-1.304215	1.676779
H	0.098882	-2.167473	0.161886
H	-1.475208	-1.47362	0.673761
N	-0.448815	1.163953	0.754282
H	-1.088133	0.887414	1.489076
H	0.376547	1.577829	1.17385
H	2.796792	0.0	0.0
