18

C	-0.189752	0.020224	-1.516322
C	0.0	0.0	0.0
Cl	-1.942196	-0.168719	-2.031077
H	1.094198	0.0	0.0
N	0.155435	1.412418	-2.181392
O	0.440082	1.361009	-3.374541
O	0.12352	2.445481	-1.52317
N	0.61537	-0.971347	-2.084581
H	1.54447	-0.899045	-1.633354
H	0.697232	-0.8371	-3.08468
C	-0.462397	-1.337185	0.561049
H	-1.555545	-1.380826	0.617698
H	-0.104976	-2.174346	-0.036884
H	-0.059436	-1.417146	1.572536
N	-0.559099	1.065991	0.801587
H	-1.530058	1.212345	0.542867
H	-0.062481	1.921726	0.600087
H	2.840659	0.0	0.0
