18

C	-0.230527	-0.122404	-1.523262
C	0.0	0.0	0.0
Cl	-1.817973	-0.863702	-1.96646
H	1.093948	0.0	0.0
N	-0.256907	1.313784	-2.075063
O	-1.319316	1.931693	-2.077295
O	0.835402	1.780293	-2.373195
N	0.816094	-0.816955	-2.20089
H	1.698973	-0.594808	-1.704721
H	0.653666	-1.81164	-2.111795
C	-0.432291	-1.258964	0.729466
H	0.036998	-1.239122	1.714869
H	-1.518203	-1.305674	0.852422
H	-0.097826	-2.160544	0.209763
N	-0.502401	1.179335	0.672485
H	0.114776	1.959347	0.477789
H	-1.435123	1.418578	0.356122
H	2.855309	0.0	0.0
