18

C	-0.217882	0.049658	-1.518168
C	0.0	0.0	0.0
Cl	-0.658169	-1.658758	-2.244597
H	1.094858	0.0	0.0
N	-1.509727	0.796523	-1.90026
O	-1.471637	1.522097	-2.885678
O	-2.496557	0.598599	-1.202077
N	0.867737	0.630357	-2.101395
H	0.893535	0.649813	-3.108542
H	1.758222	0.430702	-1.612445
C	-0.555196	-1.181422	0.763287
H	-0.292824	-1.048027	1.817066
H	-1.643068	-1.242603	0.670393
H	-0.117681	-2.121037	0.426581
N	-0.391145	1.307992	0.519637
H	0.355359	1.639342	1.118697
H	-1.250352	1.240693	1.050664
H	2.871541	0.0	0.0
