18

C	-0.609902	0.050674	-1.391546
C	0.0	0.0	0.0
Cl	0.24149	1.377127	-2.353987
H	1.097964	0.0	0.0
N	-0.332505	-1.186218	-2.233778
O	0.594935	-1.915728	-1.910269
O	-1.060444	-1.341258	-3.213559
N	-2.001918	0.225391	-1.340854
H	-2.385438	0.435991	-2.251904
H	-2.161898	0.976064	-0.675124
C	-0.507136	-1.184687	0.804731
H	-1.576064	-1.100123	1.021807
H	-0.31571	-2.127298	0.294152
H	0.057325	-1.20997	1.742414
N	-0.447248	1.257987	0.653911
H	0.307796	1.925294	0.508941
H	-0.460183	1.081252	1.652624
H	2.889656	0.0	0.0
