10
Coordinates from ORCA-job run
  C   0.37862094680297      0.06873197873638      0.66693522716538
  C   -0.37862163029005     -0.06873700048640     -0.66693564781859
  H   -0.04070276687879     -0.61272331116913      1.41119507202970
  H   0.04070187619873      0.61271940472192     -1.41119493238120
  H   0.27429611586411      1.08395577206458      1.05754256047139
  H   -0.27429720811603     -1.08396095717352     -1.05754381773160
  C   1.79771151784706     -0.23243707342335      0.48600948807790
  N   2.93120872347556     -0.47928982302117      0.31128121744739
  C   -1.79771322959439      0.23243120703664     -0.48600803696324
  N   -2.93120434530917      0.47930980271406     -0.31128113029714
