10
Coordinates from ORCA-job run
  C   0.45531756984161     -0.05912071560160      0.61812082880960
  C   -0.45532441245359      0.05910363874594     -0.61814184913479
  H   0.28150159841360      0.77959411218891      1.29671067202910
  H   -0.22936185112084      0.97637676612830     -1.16739918578589
  H   0.22936172452122     -0.97640368306418      1.16736729843326
  H   -0.28151652265143     -0.77962011789564     -1.29672127001361
  C   1.86221081191118     -0.07162925075007      0.22097367448299
  N   2.98257280740381     -0.07926491001847     -0.12690752125426
  C   -1.86221743563674      0.07162208518136     -0.22099905778283
  N   -2.98254429022883      0.07934207508545      0.12699641021644
