15

C	-0.388529	-0.057999	-1.472614
C	0.0	0.0	0.0
Cl	-2.190461	-0.133584	-1.641695
H	1.096761	0.0	0.0
H	-0.094999	0.880821	-1.946703
C	0.255309	-1.239349	-2.163436
H	0.012509	-1.244624	-3.228059
H	1.338468	-1.15888	-2.031347
H	-0.086562	-2.165826	-1.704031
N	-0.427374	-1.194442	0.716701
H	0.208064	-1.349815	1.489261
H	-1.365657	-1.081518	1.078491
C	-0.465833	1.250558	0.620648
N	-0.839972	2.228741	1.153883
Br	3.479081	0.0	0.0
