15

C	-0.441022	0.054676	-1.479321
C	0.0	0.0	0.0
Cl	-0.081868	-1.524391	-2.259604
H	1.096553	0.0	0.0
H	-1.528654	0.160966	-1.539293
C	0.274362	1.159178	-2.230175
H	0.000166	2.129139	-1.808637
H	1.351912	1.02361	-2.124232
H	0.003543	1.149419	-3.287895
N	-0.459882	-1.131036	0.788378
H	0.144983	-1.917495	0.586862
H	-1.408135	-1.382107	0.529447
C	-0.476742	1.242528	0.624068
N	-0.915058	2.236289	1.071512
Br	3.522334	0.0	0.0
