13

C	-0.434273	0.015173	-1.462976
C	0.0	0.0	0.0
Br	0.090295	1.743174	-2.242325
H	1.092672	0.0	0.0
H	0.177765	-0.710359	-2.003235
H	-0.375164	0.883266	0.526841
C	-1.913936	-0.19559	-1.726741
H	-2.216836	-1.170978	-1.334389
H	-2.138383	-0.159439	-2.795506
H	-2.501504	0.57652	-1.223691
C	-0.504491	-1.197345	0.647797
N	-0.921024	-2.175979	1.151827
F	2.570104	0.0	0.0
