13

C	-0.183154	-0.019033	-1.502293
C	0.0	0.0	0.0
Br	-2.088848	-0.018277	-2.091817
H	1.096214	0.0	0.0
H	0.203817	0.926066	-1.885939
H	-0.391123	0.913192	0.453538
C	0.578567	-1.174013	-2.118685
H	0.591566	-1.117091	-3.209246
H	0.148805	-2.132035	-1.816864
H	1.591187	-1.078402	-1.70512
C	-0.536496	-1.168894	0.666621
N	-0.960362	-2.120253	1.212422
F	2.605813	0.0	0.0
