16

C	0.0	0.0	0.0
C	-0.201683	-0.010011	-1.555862
F	1.397106	0.0	0.0
H	0.323794	-0.895559	-1.918647
H	-0.344902	-0.96439	0.379064
N	-0.577234	1.023469	0.774754
H	-0.488734	1.906672	0.285438
H	-1.587383	0.786804	0.799424
N	0.61363	1.117233	-2.120532
O	1.5423	0.844799	-2.881332
O	0.288764	2.265603	-1.810495
C	-1.583337	0.077104	-2.160504
H	-1.490693	0.042661	-3.253795
H	-2.102465	0.976383	-1.840851
H	-2.207949	-0.733523	-1.790241
H	-3.294216	0.0	0.0
