16

C	0.0	0.0	0.0
C	-0.48262	-0.098037	-1.44714
F	1.399189	0.0	0.0
H	-1.570465	-0.29174	-1.311913
H	-0.319291	-0.90999	0.508784
N	-0.512703	1.113745	0.72148
H	-1.53759	0.936061	0.72272
H	-0.348247	1.963714	0.193522
N	0.123222	-1.315307	-2.057452
O	0.750691	-1.215928	-3.117237
O	-0.044167	-2.379836	-1.459629
C	-0.230266	1.126007	-2.295272
H	-0.512832	0.939974	-3.330964
H	-0.85089	1.942518	-1.921205
H	0.821525	1.420738	-2.272949
H	-3.003557	0.0	0.0
