16

C	0.0	0.0	0.0
C	-0.482594	-0.02188	-1.451194
F	1.399098	0.0	0.0
H	-1.568741	-0.229944	-1.326602
H	-0.318179	-0.936712	0.458914
N	-0.515445	1.071827	0.779797
H	-1.538739	0.887836	0.775689
H	-0.361244	1.949243	0.294659
N	0.133012	-1.197114	-2.12861
O	-0.026856	-2.295816	-1.59362
O	0.761981	-1.031636	-3.179206
C	-0.240526	1.250076	-2.228966
H	0.806641	1.55737	-2.182019
H	-0.875596	2.035689	-1.816111
H	-0.512562	1.117618	-3.275872
H	-3.001971	0.0	0.0
