16

C	-0.471254	0.012889	-1.472171
C	0.0	0.0	0.0
Br	0.740187	1.159091	-2.529168
H	1.113264	0.0	0.0
N	-0.375841	-1.341697	-2.116449
O	0.835856	-1.833585	-1.968287
O	-0.797122	-1.339673	-3.355877
N	-1.881685	0.486765	-1.63324
O	-2.742959	-0.396468	-1.2203
O	-2.13243	0.944399	-2.847749
C	-0.519458	-1.258289	0.764001
N	-1.675977	-1.280726	1.167266
N	-0.395803	1.198025	0.753976
O	-0.005486	1.1159	2.013018
O	0.0268	2.30182	0.155974
Br	2.606957	0.0	0.0
