17

C	0.0	0.0	0.0
C	-0.585173	-0.209097	-1.41314
F	1.332433	0.0	0.0
H	0.315505	-0.240942	-2.040236
N	-0.320147	1.410898	0.569551
O	-1.208629	1.532813	1.394613
O	0.423943	2.289985	0.156241
N	-0.34413	-0.932076	1.189265
O	0.342967	-0.677946	2.178568
O	-1.168479	-1.821207	1.107596
N	-1.352573	0.975451	-1.761354
H	-1.582803	0.898415	-2.7465
H	-2.218903	0.838813	-1.187238
N	-1.26122	-1.495144	-1.509068
H	-1.531629	-1.582534	-2.484019
H	-2.11763	-1.318351	-0.95794
F	-2.928218	0.0	0.0
