17

C	0.0	0.0	0.0
C	-0.494914	0.112593	-1.490946
F	1.356278	0.0	0.0
H	-1.176728	0.956574	-1.465656
N	-0.343724	1.207158	0.846477
O	-0.137137	1.113039	2.050852
O	-0.614533	2.245607	0.255565
N	-0.354283	-1.306403	0.698775
O	0.148168	-2.273019	0.120546
O	-0.991413	-1.352784	1.733121
N	-1.253668	-0.988468	-2.021
H	-2.072114	-0.971244	-1.398823
H	-0.728686	-1.842621	-1.882891
N	0.681083	0.300715	-2.34722
H	1.119407	1.188517	-2.130466
H	0.296155	0.363841	-3.282403
F	-2.447623	0.0	0.0
