17

C	0.0	0.0	0.0
C	-0.506089	-0.129551	-1.486316
F	1.340662	0.0	0.0
H	-1.215056	-0.945982	-1.43925
N	-0.359473	1.307978	0.69458
O	-0.991224	1.359962	1.731291
O	0.138252	2.274696	0.111491
N	-0.346208	-1.210059	0.844652
O	-0.188927	-1.115012	2.05579
O	-0.563935	-2.254874	0.242518
N	0.660599	-0.370005	-2.34109
H	1.091364	-1.257266	-2.100905
H	0.275507	-0.453375	-3.274368
N	-1.226988	0.986174	-2.034277
H	-0.674599	1.825255	-1.914966
H	-2.046859	1.008245	-1.41689
F	-2.441191	0.0	0.0
