17

C	0.0	0.0	0.0
C	-0.446971	0.152997	-1.481658
F	1.368766	0.0	0.0
H	-1.236493	0.893273	-1.443227
N	-0.427281	1.207191	0.81589
O	-0.669027	1.08532	2.005839
O	-0.373042	2.268469	0.203933
N	-0.269021	-1.28681	0.816668
O	-0.968596	-2.191999	0.400477
O	0.391998	-1.336772	1.852555
N	-0.920868	-1.119288	-2.019119
H	-1.749256	-1.295487	-1.449034
H	-1.241524	-0.903986	-2.959192
N	0.663671	0.681973	-2.260323
H	1.225245	-0.096197	-2.590431
H	0.281399	1.161041	-3.064229
F	-2.348097	0.0	0.0
