17

C	0.0	0.0	0.0
C	-0.588074	0.13474	-1.39899
F	1.354839	0.0	0.0
H	-1.681899	0.20315	-1.166273
N	-0.363641	1.143861	0.943289
O	-0.887359	2.151251	0.489394
O	0.034805	1.009237	2.095686
N	-0.351066	-1.309154	0.724053
O	-1.189034	-1.31707	1.607543
O	0.340616	-2.259471	0.365733
N	-0.30108	-1.069367	-2.134535
H	0.629796	-1.020693	-2.531989
H	-0.984746	-1.190047	-2.86816
N	0.048398	1.304285	-2.045265
H	-0.299057	1.299605	-2.998358
H	-0.338007	2.134427	-1.609918
F	-2.735721	0.0	0.0
