17

C	0.0	0.0	0.0
C	-0.694137	0.145135	-1.315056
F	1.372369	0.0	0.0
H	-1.786685	0.280371	-0.93183
N	-0.32808	1.154734	0.957434
O	0.298855	1.118251	2.015641
O	-1.102911	2.028236	0.611102
N	-0.347017	-1.280928	0.756829
O	-1.143941	-1.233544	1.677972
O	0.285827	-2.265405	0.387091
N	-0.654626	-1.103569	-2.043773
H	0.239199	-1.253333	-2.500435
H	-1.392354	-1.103958	-2.735335
N	-0.1091	1.326759	-1.955351
H	0.605585	1.042997	-2.617545
H	-0.835065	1.816652	-2.462565
F	-2.892647	0.0	0.0
