14
Coordinates from ORCA-job run
  C   0.72934087302670      0.18591002003337     -0.01645361364298
  C   -0.73678001581388     -0.21767975974361     -0.01116640509613
  Cl  0.92930388987381      1.75275936474135     -0.88255190998287
  H   -0.78920800050166     -1.22195782853708      0.42654268641170
  H   1.06019439000460      0.38334107173835      1.00697436343226
  H   -1.07562150789344     -0.30393358128687     -1.04894231747311
  C   1.62552623180050     -0.85108403399728     -0.66645525131312
  H   1.55758171774507     -1.79361704319929     -0.11576357342881
  H   2.66679036733079     -0.52578421513438     -0.66936356813535
  H   1.31745850331191     -1.02693644564010     -1.69931251398956
  C   -1.64554052412465      0.72568814264209      0.76756530547329
  H   -1.32055178080263      0.81019122927465      1.80819554069295
  H   -1.64447413971466      1.72505056279634      0.33088535057912
  H   -2.67402000424246      0.35805251631245      0.76784590647262
