14
Coordinates from ORCA-job run
  C   0.91445169191957      0.21360559941602      0.24882879392742
  C   -0.45961564400123      0.86725413494300      0.23892588201028
  Cl  2.16261251528716      1.49892047079375      0.06187110876036
  H   -0.59422993399615      1.38208464277752     -0.71809645937983
  H   1.10479473275330     -0.22498932705586      1.23215590830546
  H   -0.47982946132324      1.63771255811266      1.01504447806654
  C   1.11575659011920     -0.82769637592998     -0.83525110846489
  H   0.43692852460108     -1.67036225909670     -0.68543539923717
  H   0.92534242219017     -0.39316258349324     -1.81945478316106
  H   2.13778191979434     -1.20874214903981     -0.82079142935906
  C   -1.59236829138488     -0.12981421926246      0.47225954175767
  H   -1.42794903956618     -0.70817663206310      1.38590051670183
  H   -1.69919415984846     -0.83038869998841     -0.35767313075961
  H   -2.54348186654468      0.39575483988662      0.58171608083204
