14
Coordinates from ORCA-job run
  C   0.96337691187869      0.25885813019141      0.19574860526404
  C   -0.36292765441911      0.21541531474227      0.94491888289282
  Cl  1.19362828347949      1.88401370321305     -0.55054199226872
  H   -0.37513452877019      1.03586198249920      1.66834231480853
  H   1.77766615117411      0.17093187245625      0.91869114185635
  H   -0.36993003678669     -0.71571798854115      1.52535004903607
  C   1.11296599026722     -0.80456058202349     -0.87569218204834
  H   0.39436948516683     -0.65638803583269     -1.68227449342738
  H   0.94965400122666     -1.79392425403944     -0.43751215371687
  H   2.11463560402826     -0.77811281080482     -1.30710019173566
  C   -1.60532975898568      0.28244058485384      0.06398797985891
  H   -1.59388731341148      1.17389367033684     -0.56540362816009
  H   -2.50401381260688      0.32192043710577      0.68332707658645
  H   -1.69207332224123     -0.59263202415706     -0.58284140894612
