15

C	0.0	0.0	0.0
C	-0.395042	0.036298	-1.497031
F	1.394046	0.0	0.0
H	0.349791	-0.592441	-1.997765
H	-0.225137	1.064472	-1.838032
C	-0.576414	1.127089	0.817022
H	-0.246153	1.062643	1.856288
H	-0.258551	2.081733	0.392298
H	-1.668999	1.053216	0.781779
C	-0.376814	-1.312435	0.566276
N	-0.596994	-2.380763	1.002826
N	-1.710671	-0.391725	-1.886479
H	-1.868872	-1.356267	-1.621598
H	-2.46583	0.125632	-1.440941
Cl	-4.34319	0.0	0.0
