18

C	-0.461013	-0.046013	-1.470511
C	0.0	0.0	0.0
Br	-0.054576	1.768492	-2.193369
H	1.117273	0.0	0.0
C	0.410906	-1.005125	-2.267196
H	0.198965	-0.875416	-3.329186
H	1.463594	-0.803267	-2.055633
H	0.183783	-2.028053	-1.965358
N	-1.857576	-0.298747	-1.720962
H	-2.404695	0.287265	-1.100143
H	-2.017192	-1.266045	-1.456059
N	-0.421331	-1.115004	0.777945
O	-0.399071	-0.99139	2.020651
O	-0.626739	-2.206015	0.194279
N	-0.45558	1.216914	0.729524
O	-1.655143	1.499642	0.643048
O	0.370258	1.859503	1.366675
H	2.394754	0.0	0.0
