18

C	-0.341028	0.065044	-1.451775
C	0.0	0.0	0.0
Br	-2.506791	-0.152516	-1.760288
H	1.116815	0.0	0.0
C	-0.034313	1.438605	-2.001602
H	1.027723	1.624645	-1.798084
H	-0.208242	1.455793	-3.078891
H	-0.648736	2.209208	-1.540553
N	0.29342	-0.928273	-2.180529
H	0.184631	-1.83973	-1.756296
H	0.019398	-0.915891	-3.152278
N	-0.378687	-1.156478	0.7384
O	-0.656762	-1.02838	1.943259
O	-0.227012	-2.259009	0.171122
N	-0.413808	1.21722	0.7567
O	-1.6085	1.500461	0.79695
O	0.484843	1.871151	1.283963
H	2.327321	0.0	0.0
