18

C	-0.403487	0.034363	-1.440696
C	0.0	0.0	0.0
Br	-2.537792	0.505293	-1.559795
H	1.117363	0.0	0.0
C	0.255733	1.162636	-2.197811
H	-0.091915	2.138015	-1.876072
H	0.051074	1.044838	-3.265117
H	1.332018	1.079822	-2.004116
N	-0.160067	-1.182076	-2.068538
H	-0.628138	-1.952478	-1.612629
H	-0.365371	-1.140404	-3.056714
N	-0.378767	-1.160874	0.785206
O	0.143139	-1.215403	1.905612
O	-1.077712	-2.06744	0.298607
N	-0.358034	1.213556	0.749584
O	0.248721	2.23661	0.419073
O	-1.202866	1.149954	1.642767
H	2.346114	0.0	0.0
