18

C	-0.457265	-0.02504	-1.443863
C	0.0	0.0	0.0
Br	0.41785	1.681228	-2.271431
H	1.116397	0.0	0.0
C	0.187045	-1.1489	-2.232197
H	0.019243	-0.98065	-3.29881
H	-0.261399	-2.097325	-1.936096
H	1.257869	-1.172561	-2.026341
N	-1.857807	-0.007405	-1.597398
H	-2.252641	0.786483	-1.106287
H	-2.111187	0.022286	-2.5784
N	-0.37981	-1.221266	0.71331
O	0.213658	-2.249572	0.363411
O	-1.229548	-1.16818	1.612895
N	-0.454133	1.135863	0.797837
O	0.13851	1.278679	1.871732
O	-1.319299	1.916337	0.36729
H	2.392134	0.0	0.0
