16
Coordinates from ORCA-job run
  C   0.59513732852207     -0.11135625144675     -0.25488195995645
  C   -0.73911712813188     -0.10003105166892     -0.02458498327568
  C   1.66448234689923      0.26367589983765      0.72789584825932
  H   2.36848776358890     -0.56851184289034      0.85367707993674
  H   2.24660321133677      1.12274572056556      0.37395726746533
  H   1.27165665304273      0.49829522074808      1.71636634259300
  N   1.04605201001250     -0.58774875070156     -1.53460652043316
  H   2.02400031543262     -0.84061095778633     -1.50909992061809
  H   0.91779120182168      0.11391619328239     -2.25487599388391
  C   -1.40975311190862      0.43061951633185      1.20630786237556
  H   -2.23435759868549      1.09674231864717      0.92754127748594
  H   -1.84652015226386     -0.39056811751764      1.78203182210060
  H   -0.73738245816582      0.99855406093282      1.84695958571399
  N   -1.63244604238637     -0.71186494927615     -0.92581148040073
  H   -1.13805748579778     -1.09838819254238     -1.71851934265524
  H   -2.39557685331668     -0.11546881651546     -1.21435688470720
