16
Coordinates from ORCA-job run
  C   -0.60095140789234      0.11924874092723      0.32859113832547
  C   0.69762304559384     -0.01535958700873     -0.01979959100678
  C   -1.79245597202398     -0.06260529790611     -0.55763097676365
  H   -1.51928965339591     -0.27368478864644     -1.59026065986725
  H   -2.43092425530062     -0.87931110384670     -0.19984587150766
  H   -2.40170012989437      0.84845800772083     -0.56003608192112
  N   -0.88097107991624      0.58631734928111      1.64508106697311
  H   -1.85705908741407      0.47254519241065      1.88107737129861
  H   -0.31236609350969      0.09049161140617      2.32427466460259
  C   1.22799189693325     -0.54698362840512     -1.31372452873643
  H   0.43899414911550     -0.88088917915154     -1.98552053859912
  H   1.82476677651582      0.20946086378597     -1.83744275779950
  H   1.88408774545366     -1.40481421821349     -1.12689198357116
  N   1.67749444835449      0.26547662052610      0.97377589101471
  H   1.44592000406049      1.12311269764299      1.46491963417336
  H   2.60183961332018      0.34753671947708      0.57343322338481
