16
Coordinates from ORCA-job run
  C   0.64912030174561     -0.06626674889593     -0.24448200078484
  C   -0.69322938489694     -0.02884754269596     -0.05930979791685
  C   1.67153770054651      0.18435239351349      0.82494655979501
  H   1.24411191556999      0.19515781034452      1.82612994175781
  H   2.43093457830207     -0.60609019046930      0.80584095836342
  H   2.19548149015064      1.12787258746423      0.64497628578856
  N   1.25283233723578     -0.28443980157500     -1.51153952102136
  H   0.59748174860633     -0.28229654011952     -2.27856278754541
  H   1.83405502300907     -1.11212730248955     -1.54730936840855
  C   -1.37533596703512      0.44261488827434      1.19131067915188
  H   -2.17050007228368      1.15297526152381      0.93618188977414
  H   -1.85501194819474     -0.39404305837627      1.70806031833648
  H   -0.69947758932468      0.95005554930298      1.87750352283315
  N   -1.62386941278144     -0.50308795104961     -1.02152408347665
  H   -1.19552992736728     -0.98333300556496     -1.79842446713069
  H   -2.26260079328211      0.20750365081274     -1.35479812951611
