16
Coordinates from ORCA-job run
  C   0.69322938495449      0.02884754284432      0.05930979796573
  C   -0.64912030166628      0.06626674874783      0.24448200088033
  C   1.37533596694901     -0.44261488800546     -1.19131067921492
  H   2.17050007204720     -1.15297526152501     -0.93618189014168
  H   1.85501194825454      0.39404305864933     -1.70806031824657
  H   0.69947758902478     -0.95005554862731     -1.87750352300936
  N   1.62386941296439      0.50308795089529      1.02152408360052
  H   2.26260079300660     -0.20750365138061      1.35479812967411
  H   1.19552992771983      0.98333300543357      1.79842446734092
  C   -1.67153770039696     -0.18435239363976     -0.82494655974670
  H   -2.43093457775516      0.60609019072691     -0.80584095899076
  H   -1.24411191526672     -0.19515781137293     -1.82612994165687
  H   -2.19548149040882     -1.12787258727773     -0.64497628531679
  N   -1.25283233716564      0.28443980158109      1.51153952109034
  H   -0.59748174855930      0.28229654098762      2.27856278763190
  H   -1.83405502370197      1.11212730196284      1.54730936813979
