16
Coordinates from ORCA-job run
  C   0.64208697691361     -0.01571952866201     -0.27013164490042
  C   -0.69264792183636     -0.04169489379130     -0.06135017955513
  C   1.70209735732391      0.29308933274665      0.73950758602317
  H   1.29132244517567      0.56575941417688      1.71020003470135
  H   2.37519923553013     -0.56097234452969      0.88150314995095
  H   2.31460562161550      1.13440190919308      0.39542275171502
  N   1.10090253480423     -0.19314812632545     -1.60616070381439
  H   0.61595681314004     -0.96833096432436     -2.04682828740059
  H   2.09731054780490     -0.35801321132519     -1.64091429921388
  C   -1.39722521727386      0.05891681256197      1.25466019608044
  H   -0.70917270331178      0.10541012110750      2.09712178408108
  H   -2.04283087911911      0.94459254206951      1.29222766588183
  H   -2.03941846355525     -0.81661375259711      1.40409809924528
  N   -1.52807463441371     -0.29966989302144     -1.18499298584378
  H   -1.23091776705241      0.25457537738539     -1.98173601948454
  H   -2.49819394574551     -0.10158279466443     -0.98262714746640
