16
Coordinates from ORCA-job run
  C   -0.69143147157282     -0.06808930565244      0.05156393307780
  C   0.59433701617671     -0.02963605887092     -0.36213083904002
  C   -1.19415445330840      0.16418517840488      1.44132217848570
  H   -1.76468895651066     -0.70635202681459      1.78489710296154
  H   -0.39011965944732      0.32877823015873      2.15671968218584
  H   -1.86764051798029      1.02880957293982      1.47985830699256
  N   -1.67338347207406     -0.47581044800882     -0.89550241701774
  H   -1.52568304193246     -0.00583307882338     -1.78296703900094
  H   -2.61026666602890     -0.28605157687602     -0.56763417478619
  C   1.77925112886687      0.42289497961859      0.43125629030558
  H   2.29415016797641      1.23609311666596     -0.09307730709364
  H   2.50418022952370     -0.38992603820703      0.55956338667866
  H   1.50739790353416      0.79331497334428      1.41830001692574
  N   0.85497074857620     -0.34576114920580     -1.72563888879750
  H   0.34206076634630     -1.17752096081068     -2.00023649495958
  H   1.84102027785456     -0.48909540786258     -1.89429373691781
