16
Coordinates from ORCA-job run
  C   0.68699231718935      0.01364738832262     -0.21256136293134
  C   -0.60261180842007     -0.06856518055388      0.19171135497714
  C   1.64921441317251     -1.13185176405955     -0.12256482052304
  H   2.10463546265332     -1.32542009655630     -1.10121204160794
  H   1.13633538004821     -2.02723493228605      0.21749346106623
  H   2.46139291916542     -0.88829331965197      0.56904281852672
  N   1.29014410914944      1.20748581602451     -0.64403319388778
  H   0.64365045204265      1.93839097484929     -0.89877570437343
  H   1.96812011030094      1.05665861055442     -1.37749538782975
  C   -1.57242675850630      1.08251970012265      0.11100954097837
  H   -1.62430789353937      1.64437899114547      1.05215743859753
  H   -2.58043988610169      0.70799931290721     -0.09284646363831
  H   -1.33527562415338      1.79562403024919     -0.68391685581087
  N   -1.05589738590233     -1.28797595942502      0.80801619977203
  H   -1.93248213379929     -1.58119960558867      0.39093538923721
  H   -1.23704367329942     -1.13616396605394      1.79503962744724
