16
Coordinates from ORCA-job run
  C   0.66479902870886      0.03547275933686     -0.12214971171331
  C   -0.65784813204080     -0.02620723001254      0.16049578239887
  C   1.59324670249273     -1.14197118553852     -0.03276124214673
  H   2.38647485570924     -1.04986826829374     -0.78140330710116
  H   1.08222958573230     -2.08826772346105     -0.22113678447300
  H   2.08547627110172     -1.19564536101650      0.94400682919696
  N   1.35247351060787      1.25434696681905     -0.35845569940594
  H   0.74383865844799      2.05942777008311     -0.37244403758357
  H   1.90284092935401      1.22612324614144     -1.20815629646167
  C   -1.59403765850180      1.14134154492248      0.03039672922733
  H   -1.27710678924560      1.84267773996813     -0.74411599455618
  H   -1.69728515993532      1.68398666888803      0.97601863405181
  H   -2.59408086676224      0.79006992824239     -0.24268985076743
  N   -1.26937961451065     -1.14776246243915      0.77945575461092
  H   -2.08715474983486     -1.46588527142294      0.27358940275013
  H   -0.63448657132344     -1.91983912221706      0.92034979197296
