16
Coordinates from ORCA-job run
  C   0.73725925170246     -0.05265229802840      0.13948019898496
  C   -0.60643949518085      0.08722786152934      0.23203295425278
  C   1.48942885093567     -0.41551644308309     -1.10653495080746
  H   1.82900752927370     -1.45416118673652     -1.05348771008173
  H   2.38633020443799      0.20667240053828     -1.19709192946084
  H   0.90408856362026     -0.27728283639719     -2.01387864079894
  N   1.55254096717565      0.00898001347264      1.28274624370374
  H   1.00625016243736      0.28240269840570      2.08936295806357
  H   2.36761084533961      0.59460962092590      1.16478638357152
  C   -1.59655728533751     -0.20388390846328     -0.85802429803560
  H   -2.33535679984935     -0.93702574760495     -0.51050373348957
  H   -2.15565978303425      0.69587302445526     -1.14176650295527
  H   -1.13657581430113     -0.61864522612075     -1.75498535879029
  N   -1.13819498727336      0.50684761323283      1.50239899067471
  H   -2.02823588629381      0.06561546607888      1.69031028279337
  H   -1.27349632365245      1.51093894779534      1.53315511237505
