15
Coordinates from ORCA-job run
  C   -0.32190777428741     -0.48133770255896      0.20371120884879
  C   1.14997619119484     -0.27863440177368     -0.14323722004356
  Br  -0.28111670881012     -2.31210002745861      1.14180058924122
  H   1.75037922139042     -0.17090207806570      0.75823359033386
  H   1.52352609160212     -1.09145124394379     -0.76348353901232
  C   -0.86894774681202      0.49183529125813      1.22871158988714
  H   -0.86801436454381      1.49668157608357      0.80378565915840
  H   -1.89085307550921      0.21477154619910      1.49558091645327
  H   -0.26500004243758      0.48356628723955      2.13537729033366
  N   -1.09670319346132     -0.47694890770537     -0.96540237253154
  H   -0.77448337066422     -1.12174273632892     -1.67508847204163
  H   -2.08260854695778     -0.61089471153900     -0.78666590947080
  N   1.30880461571990      0.97270805566718     -0.94472353486211
  O   1.41450788827153      0.84694304001994     -2.16209111357185
  O   1.30244081530464      2.03550601290658     -0.32650868272253
