15
Coordinates from ORCA-job run
  C   -0.35515357130613     -0.23994243566127      0.20265683214020
  C   0.79606679153440      0.67564700192895     -0.19079596883215
  Br  0.48483682108813     -1.68448800293779      1.38432555529439
  H   1.21876949074184      1.16764523427129      0.68169927764722
  H   0.42552351857785      1.40868681060980     -0.91321734497735
  C   -1.31722988490609      0.51414359584422      1.10448032763387
  H   -1.74565988531249      1.34913687115992      0.54303302464079
  H   -0.81618524471693      0.88573176876823      1.99803418730096
  H   -2.12835921929253     -0.14520773306145      1.41913983260363
  N   -1.02817709382144     -0.75816618741370     -0.91853196225685
  H   -0.40241567151188     -1.22595046801179     -1.56112148239564
  H   -1.78875815915769     -1.36945858892396     -0.65247588217016
  N   1.93365169880551     -0.02424994508611     -0.85720484753352
  O   3.05976461120353      0.20834494325734     -0.43280399359771
  O   1.66532579807394     -0.75987286474367     -1.80621755549768
