15
Coordinates from ORCA-job run
  C   -0.33518546080248     -0.27546816866319      0.32847127179122
  C   0.77328944409107      0.62157953725386     -0.24550159277252
  Br  0.49754614961380     -1.30384469388604      1.80181840636692
  H   1.14005361849907      1.32819427266293      0.49634869263620
  H   0.37998230661344      1.14403408008280     -1.12236262880435
  C   -1.40998022675225      0.61488316120309      0.93028246846764
  H   -1.00470119385082      1.26239294341916      1.70773194435686
  H   -2.19139402670456     -0.01200687985462      1.36006277364580
  H   -1.85045285257764      1.23970307092178      0.14471597030885
  N   -0.94059615381849     -1.20992689422822     -0.57087424466963
  H   -1.60052695423098     -0.73567902947163     -1.17646969410341
  H   -0.24527805694215     -1.68030536542198     -1.13645628497913
  N   1.96417315301956     -0.13919714349634     -0.71730576817118
  O   1.77592400595145     -0.97626725424021     -1.60092113101527
  O   3.04614624789097      0.12090836371861     -0.20154018305798
