15
Coordinates from ORCA-job run
  C   -0.27221697346943     -0.61604847848070      0.25304827091895
  C   1.18148629899440     -0.30580342986492     -0.10291786741482
  Br  -0.14075880291171     -2.16374465315856      1.49980910569799
  H   1.79699738027559     -0.20825947040985      0.78689347290035
  H   1.56800965957991     -1.06906140062708     -0.77887513692369
  C   -0.92513443728894      0.52059442479820      1.02835824701621
  H   -0.33748995907889      0.81126013546304      1.90109698237445
  H   -1.03893221454326      1.38754318526815      0.37013922752387
  H   -1.91716383512541      0.21514687329966      1.36605470594945
  N   -0.97554862538968     -1.05679454020252     -0.91355632572346
  H   -1.97410698961883     -1.08553797951280     -0.75055475859263
  H   -0.76984838248917     -0.44914046448031     -1.69830492301143
  N   1.26028616454268      1.00790890287490     -0.81138666110279
  O   1.76608095580795      1.94988202688018     -0.20697279174954
  O   0.77933976071479      1.06405486815260     -1.94483154786291
