15
Coordinates from ORCA-job run
  C   -0.35693092521430     -0.55905723753530      0.29624426153541
  C   1.12863692872499     -0.34695717407813     -0.05325814858272
  Br  -0.31661793894793     -2.13839738301903      1.48431897815759
  H   1.73830711244431     -0.21899753267815      0.83856482597862
  H   1.49777994106138     -1.16608046162943     -0.67035717625175
  C   -0.92588926369974      0.61727000940151      1.06707422673195
  H   -0.97233416828651      1.49881079747959      0.41959542007318
  H   -1.93598167388725      0.37493814795802      1.39526354632404
  H   -0.30914412358206      0.86117738433432      1.93239171949600
  N   -1.22129439544713     -0.88188848856918     -0.80274403303179
  H   -0.84220032962230     -1.63938740167178     -1.35891280260146
  H   -1.33087106635256     -0.07191292616272     -1.40302708631804
  N   1.26539655118054      0.90500169182257     -0.84992758862168
  O   0.89891206242630      0.86069682258207     -2.02530392530079
  O   1.68223128920225      1.90578375176565     -0.26892221758857
