15
Coordinates from ORCA-job run
  C   -0.28927403698631     -0.62955346732604      0.19632242246715
  C   1.17057307025056     -0.33206689726311     -0.14584661559315
  Br  -0.19840459015532     -2.29196317327550      1.28698192985419
  H   1.52593435957435     -1.03783944596563     -0.89713456761703
  H   1.79708430977349     -0.34111727627903      0.74162679977861
  C   -0.89822384426942      0.44872133757700      1.08304015391835
  H   -1.89661130336144      0.14439866703153      1.40249590971538
  H   -0.29355253908523      0.63692512717226      1.97211285521882
  H   -0.98960735266935      1.37696503108153      0.51055531732154
  N   -1.01647248037566     -0.93466112949821     -0.99952962414676
  H   -0.80168630730040     -0.25667599167441     -1.72195745253932
  H   -2.01380212528081     -0.94955297483527     -0.82664800898513
  N   1.28513545277761      1.04112764456226     -0.72446684941059
  O   1.82469202535852      1.90426447451464     -0.03718551825207
  O   0.79621536174943      1.22202807417799     -1.84136675172999
