15
Coordinates from ORCA-job run
  C   -0.39184254228163     -0.37557545365448      0.02371808105986
  C   0.69321765074790      0.24937897355993     -0.85100099272380
  Br  0.41787920281545     -2.03754970197735      0.85500450703890
  H   0.94710592051065     -0.41131657835913     -1.67846884278830
  H   0.32224147415512      1.20721370295546     -1.22132673066548
  C   -0.87692775604036      0.49516524247209      1.16579988247102
  H   -1.27911315119471      1.42417675049805      0.75273664373519
  H   -1.66921458975785     -0.02508036346731      1.70838163947509
  H   -0.07542887333381      0.73110947529462      1.85990812060978
  N   -1.46970040806430     -0.68475286401734     -0.84749122149909
  H   -1.21319428034981     -1.37198786833065     -1.54576662935691
  H   -2.27186035122595     -1.02681519404222     -0.33337824223056
  N   1.96854803279671      0.53011611629467     -0.13679983789037
  O   2.96253070972395     -0.10038952907300     -0.48595504950703
  O   1.93575896149865      1.39530729184666      0.73663867227169
