15
Coordinates from ORCA-job run
  C   -0.32807224352660     -0.49651665072991      0.01470660121052
  C   0.75762839680961      0.10519847325921     -0.87881631501106
  Br  0.37289888852903     -2.13415112116323      0.83776224191777
  H   0.33222277596392      0.95133063638013     -1.42350983568448
  H   1.13180367091428     -0.65117847118326     -1.56371653031433
  C   -0.79831535172478      0.42631690772987      1.12896642344925
  H   -0.00901647721096      0.66270941800479      1.84116660502812
  H   -1.15370666775630      1.36497968935907      0.69160909140737
  H   -1.62242225021889     -0.04953581406244      1.66372657347248
  N   -1.37424600562391     -0.91065171197915     -0.90975516163509
  H   -2.02290138374570     -1.53052517259501     -0.43787426239387
  H   -1.89237097813264     -0.08606696521923     -1.20164033296849
  N   1.91428311900677      0.64522575166388     -0.11547816867164
  O   2.92588443383254     -0.04876764451016     -0.05128560909618
  O   1.76633007288363      1.75163267504545      0.40513867928963
