15
Coordinates from ORCA-job run
  C   -0.30658740568462     -0.50508631593433      0.16678293483719
  C   1.12951215903319     -0.25344138237346     -0.28356712353817
  Br  -0.19788416700951     -2.44428056236505      0.84445076858803
  H   1.80985487010962     -0.26455925786677      0.56599391246761
  H   1.43763934315104     -0.97571983550648     -1.03738009471622
  C   -0.74840493338294      0.32088847399209      1.35822663519656
  H   -0.77639597222464      1.37351801387089      1.07278504396171
  H   -1.74440450328666      0.00819823509956      1.67834275262577
  H   -0.06447418364853      0.19319089859637      2.19657883384206
  N   -1.18486838946890     -0.34630796262349     -0.91523477352746
  H   -2.15128405579579     -0.50814948961685     -0.66673628974406
  H   -0.93369073963548     -0.88793653836871     -1.73183072729954
  N   1.22607709396290      1.09341205206328     -0.92357144566030
  O   1.28655151367396      2.06488474706687     -0.17244990469510
  O   1.21835937020638      1.13038892396610     -2.15139052233809
