15
Coordinates from ORCA-job run
  C   -0.35348309519228     -0.23633217629229      0.20847818518680
  C   0.83084526566166      0.63348114781945     -0.19048865271151
  Br  0.46919428975766     -1.88790857299471      1.09964389227506
  H   0.45802782805060      1.48363418036543     -0.76908209691747
  H   1.38137564675615      0.96841686629041      0.68509777572514
  C   -1.14934441798091      0.45803004867590      1.30008653125702
  H   -1.55679014064147      1.39081212729846      0.90010749856224
  H   -0.52988430697547      0.66725146499970      2.17187468224411
  H   -1.97947152402005     -0.17581471721529      1.61752500186088
  N   -1.17733864108491     -0.54687893817386     -0.88705343873608
  H   -1.96099060156407     -1.12713613291802     -0.61897876969373
  H   -0.66461402357483     -0.96701112534113     -1.65105093699291
  N   1.82712992958681     -0.05583903441224     -1.06248019256843
  O   3.00619178759496      0.02274478672867     -0.73699772367857
  O   1.39915200362609     -0.62544992483051     -2.06568175581253
