15
Coordinates from ORCA-job run
  C   -0.33071024636087     -0.49359237833206      0.01390426272866
  C   0.76198214312910      0.10185143008564     -0.87520544323115
  Br  0.35996196317668     -2.13312327983468      0.84193519308938
  H   1.13256716003994     -0.65634640507709     -1.55998039911770
  H   0.34419817729133      0.95196313460445     -1.41969413001885
  C   -0.80292796084930      0.43236365520183      1.12471399202499
  H   -0.01624820181572      0.66668923327237      1.84040619883716
  H   -1.63171770923776     -0.03976721890579      1.65551098944050
  H   -1.15236397478001      1.37188352507866      0.68436222097502
  N   -1.37437684242327     -0.90423465476374     -0.91522559380555
  H   -2.02469870029465     -1.52526317530483     -0.44720090331252
  H   -1.89137892688990     -0.07839977944824     -1.20557713943720
  N   1.92073365951200      0.63245682801241     -0.10825711048742
  O   2.93021779459236     -0.06506471079051     -0.04998477272539
  O   1.77676166491011      1.73558379620164      0.42029263504007
