16
Coordinates from ORCA-job run
  C   0.70873762351050     -0.32309516074129      0.46485078528042
  C   -0.60906516574906      0.33481131098738      0.02148905357086
  Br  0.93017301078019     -0.13209311514580      2.41044417712664
  H   -0.58018251940535      1.38002012155145      0.35266286307743
  H   0.64659508466111     -1.40386301867237      0.29962226941979
  C   1.94738653145880      0.24857324224738     -0.20434460244986
  H   2.00018545242978      1.32981326107375     -0.05298573653839
  H   2.85326367104735     -0.19729047793217      0.20745370046230
  H   1.93155364602168      0.04013541478277     -1.27654854235927
  C   -1.83221178987613     -0.34540373152594      0.62060127233414
  H   -2.73151820456727      0.14443381067913      0.24561346428694
  H   -1.83095850151249     -0.30863798405684      1.70910897600311
  H   -1.86592672467766     -1.39719294869845      0.31517685145690
  N   -0.77116574192085      0.35016344525354     -1.43075835776831
  H   -0.03444940041878      0.87619262684331     -1.88181158863549
  H   -0.76041697178183     -0.59456679664586     -1.79957458526722
