16
Coordinates from ORCA-job run
  C   0.73702482692769     -0.33152816545853      0.54104284437950
  C   -0.54411528378281      0.29617043679536     -0.01525551328425
  Br  0.89918917123701      0.08926659916756      2.45357593271259
  H   -0.52554258382991      1.36769134183938      0.23996775096459
  H   0.64734714986491     -1.41942242213949      0.49207043489888
  C   1.99891171780841      0.13233665363270     -0.16286281533210
  H   2.88673186087103     -0.29247185357128      0.30679946207932
  H   2.08410085299319      1.22196946144852     -0.12658231020376
  H   1.97173574348329     -0.19699187446590     -1.20352192409185
  C   -1.79850707114001     -0.33332187379264      0.57058195469035
  H   -1.84170877437453     -1.38931798361353      0.28943472488505
  H   -2.69073826904282      0.16253817144749      0.17724957358677
  H   -1.82085225500565     -0.25439580424446      1.65653971736295
  N   -0.54039416312941      0.05545554978834     -1.46260234829793
  H   -1.48371957139771      0.13807187049777     -1.82257308406923
  H   0.02053664851731      0.75394989266874     -1.93486440028088
