16
Coordinates from ORCA-job run
  C   0.99448450766129      0.32433201421915     -0.02275265754659
  C   -0.50718687569716      0.46669403574364      0.20985569971527
  Br  1.39808728913522      0.22126502545931     -1.94881364843722
  H   -0.59846239411794      0.55377541414653      1.30223072077269
  H   1.45967907301278      1.26158772679808      0.28706244124896
  C   1.63224967784869     -0.86191303609714      0.67531219182589
  H   1.39195513628069     -0.82740266163146      1.74310850404463
  H   2.71737821996563     -0.83488564541585      0.56688965234475
  H   1.27604633473209     -1.80846468633655      0.26749754742837
  C   -1.32922012261537     -0.73912160180465     -0.24186284462901
  H   -1.24667696133265     -0.87915111273853     -1.32185824275213
  H   -2.38255572308175     -0.57185565694143     -0.00117717876551
  H   -1.02106219597410     -1.66390045247700      0.25233590268975
  N   -0.95115489312392      1.74642623932924     -0.33779462872441
  H   -1.91825423867008      1.90589033079863     -0.07907764215387
  H   -0.91430683402341      1.70572406694805     -1.35095581706156
