16
Coordinates from ORCA-job run
  C   0.71885484082388      0.19183414791754      0.74785762509964
  C   -0.69804212136910      0.49951795538305      0.23009127158701
  Br  1.64787018153511      1.88842627412738      1.11257365734942
  H   -1.16971139817776      1.14388918151265      0.98018084775234
  H   0.64247179455007     -0.27855997015466      1.73179245089514
  C   1.57899308572315     -0.64882071063765     -0.17641487659500
  H   1.11683147258116     -1.62681209518204     -0.33568250227000
  H   1.71154066702345     -0.15880384882252     -1.14252039360283
  H   2.56778681832783     -0.80908821394807      0.25472229759977
  C   -1.51317545158451     -0.78671789268720      0.13012283111224
  H   -2.55254642772014     -0.53343554975696     -0.08281129901535
  H   -1.47427324344531     -1.36218705544138      1.05848281650644
  H   -1.15324245819439     -1.42334065647930     -0.68277256284657
  N   -0.77775413231186      1.20471550151325     -1.03882643344960
  H   -0.40067146684342      0.63484915530517     -1.78674054237296
  H   -0.24493216091817      2.06553377735074     -0.99905518774972
