14

C	-0.411742	0.085727	-1.463641
C	0.0	0.0	0.0
F	-1.791214	0.254965	-1.588091
H	1.096774	0.0	0.0
H	0.069939	0.946779	-1.933852
C	-0.055969	-1.133831	-2.20718
N	0.170963	-2.104945	-2.826197
C	-0.519825	-1.255349	0.699527
H	-0.073923	-2.139123	0.239505
H	-0.219571	-1.237748	1.74808
H	-1.60869	-1.32476	0.641686
C	-0.468549	1.210132	0.673941
N	-0.870891	2.164244	1.228823
Cl	3.275513	0.0	0.0
