14

C	-0.505513	0.016518	-1.442131
C	0.0	0.0	0.0
F	-0.113504	-1.14276	-2.086089
H	1.09576	0.0	0.0
H	-1.60259	0.033694	-1.457864
C	-0.026243	1.176772	-2.211578
N	0.2773	2.107648	-2.858647
C	-0.473381	-1.263551	0.721522
H	-0.056196	-2.13545	0.218394
H	-1.565468	-1.339427	0.740061
H	-0.100857	-1.254193	1.746599
C	-0.50097	1.1988	0.666177
N	-0.952795	2.138257	1.208457
Cl	3.292547	0.0	0.0
