14

C	-0.408576	-0.030853	-1.467995
C	0.0	0.0	0.0
F	-0.073862	1.15098	-2.095987
H	1.095879	0.0	0.0
H	0.140847	-0.839512	-1.959828
C	-1.858549	-0.248287	-1.64705
N	-3.00961	-0.437314	-1.7806
C	-0.450364	-1.271882	0.723686
H	-0.039535	-2.145928	0.211486
H	-1.538754	-1.358979	0.773683
H	-0.045775	-1.266899	1.736377
C	-0.529272	1.1937	0.649667
N	-0.975192	2.127701	1.204965
Cl	3.294786	0.0	0.0
