14

C	-0.404294	-0.026337	-1.46996
C	0.0	0.0	0.0
F	-0.102978	1.171784	-2.084009
H	1.095877	0.0	0.0
H	0.171366	-0.812598	-1.968117
C	-1.846072	-0.287255	-1.656912
N	-2.98919	-0.518206	-1.79216
C	-0.445062	-1.277284	0.717785
H	-0.036272	-2.147526	0.197451
H	-0.033854	-1.278366	1.72783
H	-1.532923	-1.366318	0.773279
C	-0.534899	1.18803	0.654776
N	-0.986529	2.116514	1.214731
Cl	3.287002	0.0	0.0
