14

C	-0.411589	0.019159	-1.465855
C	0.0	0.0	0.0
F	-1.791556	0.17769	-1.597017
H	1.09679	0.0	0.0
H	0.066666	0.860248	-1.973999
C	-0.050806	-1.230122	-2.155393
N	0.183812	-2.221801	-2.737441
C	-0.518561	-1.223508	0.754253
H	-1.607502	-1.295397	0.700856
H	-0.073115	-2.126455	0.332782
H	-0.21688	-1.160187	1.800498
C	-0.472875	1.237627	0.617737
N	-0.880932	2.214553	1.1262
Cl	3.27622	0.0	0.0
