14

C	-0.408555	-0.030276	-1.468011
C	0.0	0.0	0.0
F	-0.073704	1.151745	-2.095568
H	1.095885	0.0	0.0
H	0.140795	-0.838804	-1.96013
C	-1.858553	-0.247468	-1.647146
N	-3.009751	-0.435927	-1.780305
C	-0.450361	-1.272199	0.723131
H	-0.045924	-1.267572	1.735883
H	-1.53875	-1.359414	0.77294
H	-0.039382	-2.146007	0.210655
C	-0.529204	1.193449	0.650183
N	-0.974132	2.127559	1.206091
Cl	3.294862	0.0	0.0
