16

C	0.0	0.0	0.0
C	-0.465708	0.175924	-1.432828
Cl	1.839618	0.0	0.0
H	-1.514082	0.468264	-1.325548
H	0.114568	0.97053	-1.90073
N	-0.243357	1.369152	0.759121
O	-0.234621	2.410326	0.113686
O	-0.388898	1.295266	1.974946
N	-0.603048	-1.0529	0.645352
H	-1.657872	-0.795761	0.465902
H	-0.397418	-1.003474	1.636993
C	-0.373484	-1.129755	-2.209592
H	-1.08712	-1.843002	-1.799622
H	0.626189	-1.569157	-2.1583
H	-0.620711	-0.957146	-3.26207
F	-2.81307	0.0	0.0
