16

C	0.0	0.0	0.0
C	-0.23298	-0.181304	-1.527432
Cl	1.813842	0.0	0.0
H	0.461236	0.50277	-2.016079
H	0.155109	-1.191125	-1.701612
N	-0.293134	1.492174	0.405795
O	-0.45222	1.70282	1.603956
O	-0.313034	2.350286	-0.47005
N	-0.654575	-0.899173	0.80145
H	-1.717705	-0.65303	0.537229
H	-0.491811	-0.658219	1.773965
C	-1.582507	-0.035728	-2.216225
H	-1.988671	0.964137	-2.073384
H	-2.327504	-0.718582	-1.825909
H	-1.403145	-0.207713	-3.287566
F	-2.858525	0.0	0.0
