16

C	0.0	0.0	0.0
C	-0.266524	0.320325	-1.464371
Cl	1.836861	0.0	0.0
H	0.36679	-0.395097	-2.002166
H	0.1837	1.296607	-1.613941
N	-0.392835	1.111761	0.947403
O	-0.53125	2.229707	0.458201
O	-0.491131	0.837028	2.138262
N	-0.550319	-1.157142	0.457106
H	-0.515013	-1.367603	1.450233
H	-0.589277	-1.936453	-0.175689
C	-1.658602	0.287932	-2.023691
H	-2.061142	-0.72643	-2.050164
H	-2.38236	0.822161	-1.380018
H	-1.552835	0.677041	-3.056172
F	-3.17256	0.0	0.0
