16

C	0.0	0.0	0.0
C	-0.487483	0.023901	-1.4447
Cl	1.826903	0.0	0.0
H	-0.429393	-1.026225	-1.747274
H	-1.553136	0.258955	-1.332474
N	-0.284136	1.382243	0.703421
O	-0.442496	2.386597	0.020661
O	-0.304063	1.361941	1.930489
N	-0.591321	-1.035107	0.70331
H	-0.397336	-0.915109	1.691926
H	-1.638522	-0.812394	0.510193
C	0.232719	0.890974	-2.468456
H	-0.299891	0.815275	-3.421981
H	0.244798	1.937487	-2.171342
H	1.261451	0.564335	-2.636686
F	-2.820071	0.0	0.0
