19

C	-0.316264	-0.168648	-1.485542
C	0.0	0.0	0.0
F	-1.552374	-0.754026	-1.711972
H	1.093234	0.0	0.0
N	-0.408459	1.215182	-2.100363
O	-1.516096	1.652488	-2.393573
O	0.654053	1.809395	-2.242252
C	0.784422	-0.938419	-2.185112
H	0.738181	-0.821824	-3.271359
H	0.658924	-1.998637	-1.941792
H	1.739131	-0.592639	-1.770471
C	-0.475109	-1.215031	0.784935
H	-0.118709	-2.148236	0.342787
H	-0.067536	-1.155544	1.798373
H	-1.569382	-1.259066	0.84112
N	-0.500745	1.263524	0.530975
H	0.233059	1.663906	1.096733
H	-1.319143	1.122002	1.112861
F	2.707847	0.0	0.0
