19

C	-0.433239	0.007491	-1.466674
C	0.0	0.0	0.0
F	-0.110171	1.220862	-2.027664
H	1.095993	0.0	0.0
N	0.368539	-1.023429	-2.253765
O	0.07481	-2.20182	-2.048699
O	1.212975	-0.630798	-3.043893
C	-1.896618	-0.2494	-1.761949
H	-2.502856	0.481913	-1.221593
H	-2.183661	-1.251978	-1.452933
H	-2.082909	-0.129295	-2.832804
C	-0.545188	-1.175034	0.790518
H	-1.630833	-1.107048	0.944009
H	-0.310403	-2.129679	0.31897
H	-0.064987	-1.14475	1.769749
N	-0.376053	1.258219	0.65882
H	0.377649	1.908641	0.470741
H	-1.226185	1.656287	0.274424
F	2.635639	0.0	0.0
