19

C	-0.17043	0.068517	-1.523418
C	0.0	0.0	0.0
F	0.117889	-1.16125	-2.064179
H	1.096883	0.0	0.0
N	-1.62412	0.319871	-1.895257
O	-2.329427	-0.632676	-2.221762
O	-2.034819	1.47791	-1.762254
C	0.75234	1.087939	-2.139535
H	0.438172	2.099416	-1.888587
H	1.729676	0.870654	-1.684697
H	0.773043	0.968461	-3.225285
C	-0.667457	-1.211972	0.613078
H	-1.762735	-1.142019	0.571391
H	-0.357662	-2.131546	0.114537
H	-0.372974	-1.263231	1.663279
N	-0.375013	1.231222	0.694634
H	0.429211	1.847269	0.677854
H	-1.154231	1.705166	0.253065
F	2.69433	0.0	0.0
