13

C	-0.545132	0.026515	-1.401445
C	0.0	0.0	0.0
F	-0.123759	1.127748	-2.079949
H	1.100282	0.0	0.0
H	-1.637134	0.007195	-1.413677
H	-0.357573	-0.915025	0.475543
N	-0.116332	-1.201511	-2.169683
O	-0.557492	-2.257996	-1.72136
O	0.583823	-1.069325	-3.161918
N	-0.568741	1.165702	0.697534
H	-0.0188	1.970569	0.414994
H	-0.378878	1.046581	1.685743
Br	3.646667	0.0	0.0
