13

C	-0.602162	0.03417	-1.380569
C	0.0	0.0	0.0
F	-0.109808	1.068004	-2.125678
H	1.091043	0.0	0.0
H	-1.690977	0.098309	-1.36453
H	-0.308013	0.931471	0.49397
N	-0.321892	-1.241395	-2.132047
O	0.845615	-1.489549	-2.397317
O	-1.300801	-1.926388	-2.434674
N	-0.485046	-1.206264	0.674598
H	-1.21172	-0.990175	1.34398
H	0.289218	-1.628592	1.170926
Br	3.6712	0.0	0.0
