13

C	-0.491541	-0.040118	-1.430718
C	0.0	0.0	0.0
F	-1.844768	-0.291062	-1.475168
H	1.091396	0.0	0.0
H	0.028557	-0.776858	-2.042828
H	-0.322859	-0.951158	0.438887
N	-0.277688	1.289726	-2.104344
O	0.830174	1.467649	-2.598178
O	-1.198867	2.10344	-2.066551
N	-0.505074	1.109337	0.791328
H	0.084515	1.91909	0.653979
H	-1.452841	1.346826	0.526405
Br	3.634476	0.0	0.0
