13

C	-0.552492	0.09283	-1.395565
C	0.0	0.0	0.0
F	-0.129821	1.220059	-2.027015
H	1.100319	0.0	0.0
H	-1.644875	0.081659	-1.399068
H	-0.357674	-0.93507	0.433953
N	-0.141607	-1.101925	-2.225074
O	-0.554918	-2.179406	-1.801223
O	0.512788	-0.923646	-3.241078
N	-0.563921	1.13346	0.753047
H	-0.367317	0.968844	1.733504
H	-0.013999	1.948898	0.504117
Br	3.640743	0.0	0.0
