18
Coordinates from ORCA-job run
  C   0.68509763439314     -0.10980980299465      0.39733265036229
  C   -0.65726086807746     -0.45498451632468     -0.25052861469205
  F   0.70223854416824     -0.79990627601925      1.64143867224957
  H   -0.67898830869481     -1.54792559404543     -0.32782564159869
  N   0.78347523073159      1.29745556226796      0.60915574148902
  H   1.71937739757080      1.54743298447512      0.90393144021566
  H   0.13635947219703      1.58998845748089      1.33086357688738
  C   1.87088503948478     -0.61805255705275     -0.39039982212301
  H   1.92982699614875     -0.11894073700053     -1.35461001778066
  H   1.76843936340751     -1.69154963807652     -0.55363937975933
  H   2.78671672655435     -0.44435548015718      0.18112400362088
  N   -0.64848680295363      0.08633200825250     -1.60659805958756
  H   -0.57639758406631      1.09628280783733     -1.54286658761196
  H   -1.52144615260746     -0.13678180907740     -2.07007487851494
  C   -1.84332948168902     -0.00780619884391      0.60523997992300
  H   -1.92125314443440      1.08312828376391      0.62133304163751
  H   -2.77319181243417     -0.39241959581903      0.17781794522373
  H   -1.76206224969893     -0.37808789866641      1.62930595005915
