18
Coordinates from ORCA-job run
  C   0.67584668027336      0.32504404571729      0.34769840708352
  C   -0.55249301107953      0.02681566051609     -0.52550673069437
  F   0.13807428010120      0.86123074075757      1.54752548431010
  H   -0.16270834859842     -0.37729316396817     -1.46813680397757
  N   1.52294232336370      1.31529897220004     -0.22470925642755
  H   2.34453275643301      0.92072534144483     -0.65628265842344
  H   0.99949251764663      1.88880930448462     -0.87398454473307
  C   1.46978712860692     -0.90017560167567      0.74604187860534
  H   1.77257466752652     -1.47399532012802     -0.13365091995523
  H   2.36062335013323     -0.57877695302399      1.28930747764766
  H   0.88428134919687     -1.54086665377251      1.40370514780639
  N   -1.16766291340516      1.31853111862908     -0.83925982276241
  H   -1.93295381899684      1.19018676729484     -1.48991315113775
  H   -1.55013357432459      1.70869094469511      0.01513495975471
  C   -1.51158111341626     -0.98265959843133      0.09981688130315
  H   -2.39564416517197     -1.09820292928699     -0.53333342116731
  H   -1.83515396102889     -0.63325193463426      1.08243695405860
  H   -1.05782414725976     -1.97011074081851      0.21411011870924
