18
Coordinates from ORCA-job run
  C   0.63204826574313     -0.15701046314481      0.52256149166347
  C   -0.68839027670458     -0.35634158890666     -0.23149645004619
  F   0.56382452535418     -0.96288697599663      1.66949997766050
  H   -0.74984544534025     -1.43181659721859     -0.45662456498832
  N   0.72783952892534      1.20670076679798      0.94758439113672
  H   0.44794573265836      1.79278234231620      0.16897008698662
  H   1.67779161817920      1.43772036437246      1.21164369823560
  C   1.83218609194403     -0.66785352328691     -0.25795240184589
  H   2.72422403878017     -0.59513025066067      0.36958544462577
  H   1.70060395740796     -1.71595064230211     -0.53911897367647
  H   1.99085938112949     -0.06509176196107     -1.15408491049037
  N   -0.65688313490816      0.47518283276829     -1.44027599234223
  H   -1.60240231201495      0.64077426669868     -1.76324394452824
  H   -0.16670940617205     -0.00184890410029     -2.18740298878502
  C   -1.88412955047377      0.02919349581256      0.62470371079195
  H   -2.81342545251401     -0.25002699088019      0.11882938126193
  H   -1.84430882378306     -0.48396803362640      1.58438410980737
  H   -1.89022873821104      1.10357166331815      0.81143793453279
