18
Coordinates from ORCA-job run
  C   0.72027013783718      0.26887298100615      0.30447523491097
  C   -0.60943375089338      0.10165642537913     -0.44677509615946
  F   0.34114256224036      0.64442318582415      1.62005904746344
  H   -0.34423151799242     -0.17841630266287     -1.47390352728286
  N   1.51871848108443      1.31907069714299     -0.22977461029871
  H   2.27360081417691      0.97859003460112     -0.80527972522309
  H   0.93667428939545      1.97879224025659     -0.73031867577029
  C   1.52428908880631     -1.00625787530954      0.43865591660086
  H   2.48199318555534     -0.76885333442928      0.90611777713552
  H   1.70429161176754     -1.46051172321473     -0.53909684926220
  H   1.00576777617613     -1.72311865534871      1.07352701174885
  N   -1.22375660332455      1.42959550406743     -0.51430052042023
  H   -1.49794639036207      1.70579608823191      0.42220887873391
  H   -2.06043926490914      1.39659734199204     -1.08385736132159
  C   -1.51436331539935     -0.97169968710761      0.15240998293754
  H   -1.07518179036276     -1.96991909979460      0.08427760219216
  H   -1.71302543690938     -0.75088545276999      1.20314912371965
  H   -2.46836987688660     -0.99473236786418     -0.38157420970447
