18
Coordinates from ORCA-job run
  C   0.59479344996307      0.32789704354646      0.32873697680972
  C   -0.69498468785462      0.03537903078606     -0.44449723849893
  F   0.26792344067193      0.82118157802440      1.58715410583941
  H   -0.36342571132827     -0.30617523294623     -1.44356246574684
  N   1.28738301916621      1.42038590878931     -0.33592682242854
  H   1.68476795132544      1.08978399267204     -1.20806734871566
  H   2.04978291421973      1.73073809858143      0.25657722866090
  C   1.45280904072157     -0.90442055076040      0.56142169617533
  H   1.69590063352114     -1.39300022555838     -0.38559069218101
  H   0.94525359360896     -1.61980595582620      1.20885664401142
  H   2.38338781938677     -0.60439593583117      1.04878815312443
  N   -1.48906241230726      1.25749133711380     -0.49491652686968
  H   -2.17150734911929      1.18598167111532     -1.23963401463805
  H   -0.87006830466152      2.03380476649266     -0.69861625813362
  C   -1.52504942424438     -1.06818031825046      0.19630836167645
  H   -1.04589549408341     -2.04702142909806      0.12562864003838
  H   -2.49332219507043     -1.13552436858388     -0.30572949084067
  H   -1.70768628391565     -0.82111941026670      1.24306905171695
