18
Coordinates from ORCA-job run
  C   0.71984297374557      0.25714781478377      0.21824441559635
  C   -0.57519221760368      0.00345468906347     -0.55844377201037
  F   0.30753864600495      0.93419961561860      1.41906484274465
  H   -0.27537484248158     -0.44038127765767     -1.51365940264546
  N   1.56826419604187      1.07895901581831     -0.55846809301811
  H   2.35472005980417      1.40713516777779     -0.01298038363274
  H   1.03169022658997      1.86065010586933     -0.91606051089835
  C   1.44104262187817     -0.98922673242706      0.67951340086903
  H   1.65441442690447     -1.63804640609852     -0.17155952884237
  H   0.85019272877929     -1.53116366926886      1.41693697891505
  H   2.38850085462501     -0.70850428290380      1.14574769972517
  N   -1.15504203529014      1.31641601160218     -0.85627447904026
  H   -1.91828473932785      1.21432945663300     -1.51368366455027
  H   -1.53309105703782      1.70421604400351      0.00091024236391
  C   -1.52709509248136     -0.94149905200678      0.17001535352103
  H   -2.47005806015115     -1.00990755050270     -0.37860951472012
  H   -1.12195374800278     -1.95223598143377      0.25744492510708
  H   -1.73911494199711     -0.56354296887082      1.17286149051579
