18
Coordinates from ORCA-job run
  C   0.61455365428434      0.31834615822629      0.18651595677806
  C   -0.71642564239246     -0.00496266093584     -0.51182651991775
  F   0.32182391173563      1.06884780134288      1.33130478209553
  H   -0.45853831421989     -0.48292725738969     -1.46764804070721
  N   1.36781765892809      1.21452028244780     -0.66979874886781
  H   1.67704543740029      0.71504051135698     -1.49592987645579
  H   2.19195809235248      1.53609092540204     -0.17363832122055
  C   1.38962656210859     -0.89848542733125      0.65996545155586
  H   0.84342313150504     -1.43714818687900      1.43475117569995
  H   1.58151034725162     -1.57834857317069     -0.17450082242532
  H   2.34872986315445     -0.58043466676744      1.07621810016841
  N   -1.48726582690815      1.19514857416656     -0.81798374041235
  H   -0.85085111921072      1.87569021716079     -1.22031216384832
  H   -1.80196777793616      1.59281709322759      0.06139694167077
  C   -1.58345800221837     -0.96069821438583      0.29475085180963
  H   -1.72814004088179     -0.57547600063212      1.30790062741972
  H   -2.55930376859523     -1.03934205276810     -0.18603022113803
  H   -1.15053816635778     -1.95967852307100      0.36386456779522
