16

C	0.0	0.0	0.0
C	-0.401537	-0.073967	-1.492309
F	1.32864	0.0	0.0
H	0.406885	-0.64629	-1.955362
N	-0.379389	1.236468	0.789351
O	-0.074089	1.194819	1.974825
O	-0.800361	2.210939	0.187452
N	-0.396527	-1.308988	0.677945
O	-0.152739	-2.27498	-0.04515
O	-0.775312	-1.34718	1.830943
N	-0.263167	1.285969	-2.156105
O	-1.218657	1.742348	-2.76638
O	0.854777	1.789379	-2.077851
C	-1.673714	-0.696928	-1.842394
N	-2.400412	-1.313761	-2.538924
F	-2.257607	0.0	0.0
