16

C	0.0	0.0	0.0
C	-0.558022	0.007996	-1.47015
F	1.322243	0.0	0.0
H	-1.620391	0.305141	-1.460654
N	-0.416799	1.255063	0.768459
O	-0.26048	1.198459	1.983745
O	-0.848749	2.203909	0.129706
N	-0.477322	-1.27979	0.855859
O	0.410253	-1.896486	1.407795
O	-1.662144	-1.630717	0.948919
N	-0.575824	-1.404051	-1.977509
O	-1.591372	-1.767395	-2.567716
O	0.443424	-2.066409	-1.80589
C	0.185438	0.84951	-2.345694
N	0.811877	1.531643	-3.061905
F	-1.80559	0.0	0.0
