16

C	0.0	0.0	0.0
C	-0.353308	-0.29312	-1.473439
F	1.390849	0.0	0.0
H	0.40023	-1.016878	-1.791798
N	-0.368759	1.351704	0.581946
O	-0.809351	1.450713	1.708151
O	-0.06378	2.276627	-0.165959
N	-0.325787	-1.197321	0.862759
O	-0.509119	-2.245589	0.255161
O	-0.204198	-1.07476	2.071851
N	-0.062998	0.911686	-2.354709
O	-1.001793	1.61168	-2.70013
O	1.113998	1.067015	-2.669627
C	-1.681393	-0.812237	-1.795335
N	-2.447605	-1.379493	-2.490639
F	-2.217168	0.0	0.0
