18

C	0.047848	0.143145	0.022288
C	-0.469272	0.102438	-1.418603
F	1.488671	0.057628	-0.032679
H	-1.552245	0.233015	-1.332637
C	-0.154831	1.501432	0.612266
N	-0.351418	2.548952	1.108926
N	-0.487024	-0.882323	0.790759
H	-1.463543	-1.213416	0.40668
H	-0.49122	-0.660777	1.776632
C	-0.247407	-1.291564	-2.005686
H	-0.438442	-1.270138	-3.084793
H	0.778883	-1.628362	-1.838852
H	-0.964027	-1.963547	-1.536321
C	0.166189	1.194792	-2.271946
H	-0.260903	1.173197	-3.279187
H	1.244424	1.03688	-2.35375
H	-0.002157	2.193665	-1.858674
F	-2.661952	-1.532749	-0.282974
