18

C	0.046238	0.152369	0.020761
C	-0.463835	0.14115	-1.422946
F	1.488325	0.081563	-0.030237
H	-1.548265	0.261374	-1.340064
C	-0.171717	1.494056	0.642399
N	-0.383257	2.522173	1.172342
N	-0.482279	-0.895637	0.762594
H	-1.453572	-1.226637	0.364437
H	-0.497011	-0.694711	1.752802
C	-0.228911	-1.23704	-2.041596
H	0.799049	-1.570291	-1.877758
H	-0.942175	-1.925304	-1.591142
H	-0.415108	-1.191367	-3.120762
C	0.167048	1.257905	-2.247668
H	-0.007887	2.245211	-1.809938
H	1.246362	1.108584	-2.331206
H	-0.258012	1.258943	-3.256019
F	-2.648656	-1.532473	-0.335514
