15

C	0.0	0.0	0.0
C	-0.405963	-0.053847	-1.479152
Br	2.040782	0.0	0.0
H	0.017474	-0.979443	-1.88918
H	-1.49711	-0.145806	-1.384513
C	-0.335953	1.307161	0.585451
N	-0.51218	2.384976	1.019175
N	-0.544688	-1.032881	0.808023
H	-1.584989	-0.77672	0.685995
H	-0.39183	-1.908239	0.31108
C	-0.026937	1.147039	-2.331417
H	-0.39196	1.006002	-3.353659
H	-0.492991	2.053346	-1.937206
H	1.05374	1.303729	-2.374952
F	-2.74884	0.0	0.0
