15

C	0.0	0.0	0.0
C	-0.210674	0.174739	-1.546418
Br	1.965794	0.0	0.0
H	0.441066	1.000639	-1.847246
H	0.228484	-0.739444	-1.960075
C	-0.337884	1.247831	0.720616
N	-0.566933	2.239167	1.310537
N	-0.644215	-1.158966	0.485008
H	-0.509718	-1.209692	1.491707
H	-1.690481	-0.849803	0.315924
C	-1.578275	0.404806	-2.17679
H	-1.40783	0.491368	-3.259152
H	-2.04485	1.315817	-1.809345
H	-2.277319	-0.391446	-1.950958
F	-2.853228	0.0	0.0
