15

C	0.0	0.0	0.0
C	-0.440581	0.00262	-1.46903
Br	1.968751	0.0	0.0
H	0.038739	-0.865165	-1.931017
H	-1.522663	-0.150061	-1.382056
C	-0.339011	1.279801	0.664294
N	-0.504621	2.312622	1.202133
N	-0.543859	-1.151885	0.640849
H	-1.585197	-0.927141	0.512638
H	-0.323423	-1.121761	1.63338
C	-0.142815	1.286503	-2.231333
H	0.916984	1.547773	-2.212907
H	-0.713435	2.114335	-1.809028
H	-0.444721	1.175278	-3.276447
F	-2.755929	0.0	0.0
