15

C	0.0	0.0	0.0
C	-0.455981	-0.066926	-1.46129
Br	1.968328	0.0	0.0
H	-1.545086	-0.168039	-1.353654
H	-0.02747	-0.987111	-1.871804
C	-0.331939	1.317409	0.588803
N	-0.543708	2.371906	1.06532
N	-0.565806	-1.100182	0.711199
H	-0.373641	-0.98285	1.702073
H	-1.603328	-0.877029	0.548748
C	-0.109638	1.145922	-2.310218
H	-0.616629	2.035177	-1.928479
H	-0.452136	0.985243	-3.336294
H	0.965144	1.345297	-2.341148
F	-2.791986	0.0	0.0
