15

C	0.0	0.0	0.0
C	-0.181578	-0.272982	-1.542914
Br	1.981758	0.0	0.0
H	0.393754	-1.18955	-1.725525
H	0.357187	0.524113	-2.065624
C	-0.384904	1.38233	0.322304
N	-0.596985	2.511464	0.566327
N	-0.622026	-0.894124	0.895829
H	-1.668462	-0.626023	0.701232
H	-0.469653	-1.836091	0.542527
C	-1.556796	-0.440211	-2.172099
H	-2.21728	0.39009	-1.947352
H	-1.391519	-0.537639	-3.25486
H	-2.067052	-1.322499	-1.795075
F	-2.826547	0.0	0.0
