15

C	0.0	0.0	0.0
C	-0.440632	-0.007773	-1.477277
Br	1.976331	0.0	0.0
H	-1.515175	0.196762	-1.382072
H	0.07139	0.799988	-2.010459
C	-0.343043	1.316347	0.572426
N	-0.518766	2.383202	1.030443
N	-0.563296	-1.011412	0.83319
H	-0.372555	-1.909723	0.399057
H	-1.601351	-0.774245	0.680452
C	-0.224564	-1.343753	-2.173287
H	-0.482704	-1.255935	-3.232626
H	0.81153	-1.68942	-2.106666
H	-0.882456	-2.104132	-1.746452
F	-2.771153	0.0	0.0
