15

C	0.0	0.0	0.0
C	-0.759731	-0.057705	-1.298273
Cl	1.738691	0.0	0.0
H	-1.829181	-0.296899	-1.071482
H	-0.379924	0.839099	0.58155
N	-0.385677	-1.282898	0.850827
O	-1.575078	-1.513502	0.924364
O	0.518131	-1.915311	1.376291
N	-0.14837	-1.082443	-2.203151
O	0.498091	-0.707894	-3.17478
O	-0.309407	-2.241943	-1.835579
N	-0.76894	1.261663	-2.001573
O	-1.396459	1.289077	-3.051507
O	-0.185143	2.204607	-1.472016
Cl	-3.875075	0.0	0.0
