17

C	0.0	0.0	0.0
C	-0.437932	0.034101	-1.580816
Br	1.947999	0.0	0.0
H	0.212366	0.759577	-2.037757
H	-0.203322	-0.97778	-1.920302
C	-0.386473	1.290396	0.896608
H	-0.116508	2.177442	0.35888
H	-1.482777	1.336806	1.064848
H	0.03025	1.154916	1.881528
N	-0.39216	-1.511483	0.793187
O	0.463627	-2.033937	1.471473
O	-1.558505	-1.94095	0.745561
C	-1.971449	0.405073	-1.993002
H	-2.185994	1.389226	-1.54671
H	-2.06292	0.350535	-3.040284
H	-2.682985	-0.310706	-1.507358
Cl	-1.921553	0.0	0.0
