17

C	0.0	0.0	0.0
C	-0.451296	-0.409977	-1.392386
Br	1.954815	0.0	0.0
H	0.042884	0.276059	-2.088315
H	-0.05462	-1.406715	-1.593314
C	-0.551806	1.323322	0.468343
H	-1.638371	1.23423	0.567356
H	-0.127608	1.612876	1.427699
H	-0.32354	2.083428	-0.281004
N	-0.359781	-1.084171	1.023008
O	-0.485064	-2.232002	0.614685
O	-0.450109	-0.728547	2.192896
C	-1.964493	-0.372494	-1.585453
H	-2.526157	-0.846457	-0.781953
H	-2.357883	0.641087	-1.661442
H	-2.20935	-0.907729	-2.506896
Cl	-4.927852	0.0	0.0
