12
Coordinates from ORCA-job run
  C   -0.66430319991727     -0.32430575928172      0.13620987393548
  C   0.69705412662719      0.32772708768879      0.16664794762341
  F   -0.81132484966711     -0.88913627549648     -1.16073869330824
  H   0.85296550729614      0.73018138147681      1.16947343659006
  H   -0.70001084395787     -1.17032785680807      0.82414595511020
  H   0.68061413916725      1.17515380399898     -0.53908279937177
  N   -1.69799359129729      0.59299035686263      0.43595412613482
  H   -2.60156245222683      0.13982360749394      0.43379578279997
  H   -1.71057239056620      1.35239814948208     -0.23253667489850
  N   1.71896323303419     -0.67133050134171     -0.11686263580439
  H   2.63925224600989     -0.25684435351549     -0.05186460412969
  H   1.59591807549792     -1.00732964055977     -1.06314171468136
