12
Coordinates from ORCA-job run
  C   -0.66986532239625     -0.23322245117236      0.49216194997161
  C   0.71047396683033     -0.55971060701484     -0.04664142407933
  F   -1.34606782622962     -1.47384780886315      0.58999003086519
  H   0.56626574637195     -1.20736997380370     -0.91812092532250
  H   -0.62846915499017      0.13806052620455      1.52070119779018
  H   1.21987026287036     -1.16126265608764      0.71799547003715
  N   -1.34894782105838      0.70779588604186     -0.30839026337006
  H   -2.30918287961601      0.82206692994747     -0.01486023476911
  H   -1.30632863058135      0.46929563618939     -1.28965190080830
  N   1.42436724296890      0.64585851661698     -0.45723986687767
  H   1.26819940073102      1.39075806903255      0.20951424949932
  H   2.41868501509921      0.46357793290890     -0.49545828293646
