12
Coordinates from ORCA-job run
  C   -0.74841347177712     -0.35087912684247     -0.21193768338201
  C   0.60105751019008      0.31380820119722      0.01811741710853
  F   -0.99243179397610     -0.33213294084559     -1.57660720177112
  H   0.71281673026685      0.47902909635563      1.10058531749569
  H   -0.71680347262104     -1.40344889563034      0.08854940818952
  H   0.54599664937740      1.29771777884544     -0.45951429376084
  N   -1.84120165178113      0.28565925307908      0.45814938697577
  H   -2.02294613533206     -0.11583343254475      1.36495700548206
  H   -1.70668614003376      1.28396143798325      0.54445013019138
  N   1.68771466552641     -0.44391354010935     -0.58896476708560
  H   2.00191760696427     -1.17215566467508      0.03904319606710
  H   2.47797950319620      0.15718783318695     -0.77682791551051
