12
Coordinates from ORCA-job run
  C   -0.67988410716238     -0.27499301533379      0.50062875994295
  C   0.78740573094737     -0.52177685081525      0.17653315959481
  F   -1.16714110438952     -1.47335606895812      1.05420579096526
  H   0.82789532796890     -1.27768050942786     -0.61580128973002
  H   -0.78230726794878      0.47630670442819      1.29027041209701
  H   1.27325324565961     -0.95696788675892      1.05176898512816
  N   -1.44339602113988      0.10107905225316     -0.62214249424340
  H   -1.06764292733179     -0.11482955410738     -1.52891202567034
  H   -1.95520196676450      0.96164478903455     -0.57759213717029
  N   1.53869294083807      0.65140049303561     -0.24575088633753
  H   1.61460150749257      1.31028398467953      0.51931846411374
  H   1.05372464183032      1.11988886197027     -1.00052673869034
