12
Coordinates from ORCA-job run
  C   -0.71908099333648     -0.33936070700842      0.40014417477547
  C   0.75991337833188     -0.57384840930545      0.12391537336346
  F   -1.26901414297941     -1.60035390235079      0.69080926378325
  H   0.83386640957089     -1.17323269471602     -0.79042134541304
  H   -0.85528560383476      0.25785111565390      1.30754125375442
  H   1.17802112041497     -1.17804574799130      0.93118829781028
  N   -1.40265296290062      0.26239220536282     -0.67712214095373
  H   -0.96744310521742      0.20366659703870     -1.58163051552886
  H   -1.86918468281625      1.13255308621010     -0.50245928286232
  N   1.56504154482158      0.62954052446555     -0.02933119101693
  H   1.60126955230029      1.13716130825215      0.84608543744605
  H   1.14554948564532      1.24267662438876     -0.71671932515806
