14

C	0.0	0.0	0.0
C	-0.314904	-0.08375	-1.530628
Br	1.96379	0.0	0.0
H	0.535384	0.368274	-2.055979
C	-0.417373	1.254932	0.615461
N	-0.50135	2.278887	1.196469
C	-0.528602	-1.128506	0.753649
N	-0.575439	-2.120991	1.397469
N	-1.477081	0.742901	-2.043645
O	-1.337126	1.952642	-1.892083
O	-2.355923	0.191427	-2.695983
C	-0.454371	-1.467782	-1.958216
N	-0.506242	-2.579672	-2.332583
H	-1.939085	0.0	0.0
