15

C	0.07606	0.099027	0.036216
C	-0.399015	0.143654	-1.41001
F	1.501675	-0.122192	0.011056
H	0.185081	0.911577	-1.928066
H	-1.454243	0.420768	-1.384995
C	-0.010977	1.461598	0.644584
N	-0.116465	2.521425	1.142271
N	-0.576096	-0.88866	0.762013
H	-0.584751	-0.700052	1.754206
H	-1.56227	-1.119438	0.337064
C	-0.283654	-1.221028	-2.083051
H	-1.088044	-1.838548	-1.686389
H	-0.414441	-1.118151	-3.165631
H	0.690418	-1.675302	-1.890217
F	-2.754133	-1.309822	-0.419018
