15

C	0.090121	0.102425	0.034447
C	-0.384846	0.172268	-1.410785
F	1.517159	-0.103545	0.006623
H	0.193021	0.956144	-1.911906
H	-1.442658	0.438709	-1.381069
C	-0.012764	1.450737	0.672155
N	-0.132108	2.492584	1.203615
N	-0.552554	-0.90734	0.738866
H	-0.561871	-0.740297	1.734992
H	-1.537933	-1.133738	0.309845
C	-0.256411	-1.177054	-2.111975
H	-1.054608	-1.810069	-1.72771
H	-0.389462	-1.053234	-3.192049
H	0.722655	-1.624792	-1.929678
F	-2.726818	-1.320243	-0.452646
