17

C	0.0	0.0	0.0
C	-0.546854	-0.018708	-1.449081
Br	1.966253	0.0	0.0
H	-1.671347	0.055842	-1.219963
N	-0.496866	1.079638	0.785663
H	-0.307111	1.9604	0.318172
H	-1.52424	0.936628	0.762818
C	-0.426551	-1.303227	0.658089
H	-0.123775	-1.265063	1.705281
H	-1.521808	-1.345914	0.594357
H	0.028596	-2.168235	0.176294
C	-0.222818	-1.225665	-2.188086
N	-0.014956	-2.238085	-2.750097
N	-0.108363	1.169178	-2.23247
O	-0.505703	2.266506	-1.837675
O	0.633562	1.000397	-3.20197
H	-2.962375	0.0	0.0
