16
Coordinates from ORCA-job run
  C   -0.43416842669958     -0.59508482175936     -0.38084485521148
  C   0.79885631968392      0.29495479482763     -0.13449323837190
  Br  0.11396071112942     -2.43176088722578     -0.88748147281383
  H   1.23225587853274      0.43621094006917     -1.13875989797065
  N   -1.27877669335419      0.02807349990583     -1.32531493216135
  H   -2.19906557152899     -0.39403654710170     -1.32952689446091
  H   -0.86752817088575     -0.02509685473665     -2.24863707632579
  N   -1.23149893633599     -0.77188637119507      0.91064626400127
  O   -2.45154068138729     -0.69002488553271      0.82646930900568
  O   -0.59645814316161     -1.01384979528522      1.92523945793316
  N   1.81729988944003     -0.32000452177775      0.66502923290337
  H   1.53071656208715     -0.33902871083918      1.63462022829847
  H   2.68734940292992      0.18638595293033      0.57255795378649
  N   0.25908316932782      1.51869593537602      0.45215116246771
  H   1.01584755923223      2.16330816411889      0.64313287022795
  H   -0.39733286900984      1.95314410822554     -0.18578811130820
