16
Coordinates from ORCA-job run
  C   -0.36217486961530     -0.68041642617907     -0.14349845500681
  C   0.78848111462480      0.21156114078647      0.37009395501796
  Br  0.16674149568771     -2.55279176500502     -0.16323644612636
  H   1.11618240504128     -0.17892858657751      1.33691242661783
  N   -0.77151163546877     -0.26828453008609     -1.41943368342469
  H   -1.57870058353930     -0.78315427783430     -1.74569106447443
  H   -0.97322035303194      0.72666881875088     -1.36879239100665
  N   -1.51691089847018     -0.62965123070491      0.89861969054117
  O   -2.65689296669870     -0.71684598339047      0.45931426073104
  O   -1.20412163675127     -0.50920421621958      2.07927512968291
  N   0.22515199213662      1.55764625832901      0.43953439201664
  H   0.99455617146028      2.20770928309215      0.33588398438966
  H   -0.20956724079607      1.71235644927299      1.34128445909364
  N   1.91592620160423      0.24017342406196     -0.52873233573539
  H   2.48284873561598     -0.58786204344123     -0.40532112657860
  H   1.58121206820061      0.25202368514472     -1.48621279573794
