16
Coordinates from ORCA-job run
  C   -0.52843079780006     -0.52838797793562     -0.42750499399902
  C   0.45885942245360      0.48351336380225      0.20694895418586
  Br  0.39229686800990     -1.62808836539610     -1.73097438451504
  H   -0.16052362456915      0.99984020834029      0.95843100606586
  N   -1.67138240609336      0.05573423809389     -1.04121426585578
  H   -2.25181919316226      0.47305746692175     -0.32155289903818
  H   -1.32878216949666      0.78755286271593     -1.65552094109843
  N   -1.03260452422859     -1.39749483522052      0.73081787341068
  O   -0.46898407111911     -2.45301478966887      0.98830512797714
  O   -1.93964566511935     -0.89096638660353      1.38781426201552
  N   0.79723962555094      1.45928587034698     -0.80809568790959
  H   1.62938180385016      1.13269018263873     -1.28714783912048
  H   1.00355850143527      2.35481853249855     -0.38541828885055
  N   1.62746320006510     -0.17392913130872      0.75768592769556
  H   1.41853336379589     -1.08001080891723      1.15844075059049
  H   2.05483966642767      0.40539956969222      1.46898539844597
