16
Coordinates from ORCA-job run
  C   -0.52673896456004     -0.48500641139552     -0.29873310197292
  C   0.46021044761965      0.53910634037553      0.29738723580931
  Br  0.46439512209360     -1.72838303382967     -1.52639802221322
  H   -0.14055670318702      1.06299382728438      1.05549414255615
  N   -1.60316298423868      0.18013456004335     -0.88130186434834
  H   -2.24651239202866     -0.44531034585943     -1.34628096970851
  H   -1.25540708238818      0.91846197337774     -1.48107355135296
  N   -1.11860076780543     -1.41525072745175      0.75575593393200
  O   -2.08833464087968     -2.07383474454234      0.40903253431198
  O   -0.60702713385112     -1.42292420472932      1.87250184205071
  N   0.75364269650765      1.48850938501949     -0.76121241159708
  H   1.54657312209709      1.13526314378103     -1.28684007738587
  H   0.99781695720095      2.38913553667879     -0.37074500085081
  N   1.67009729780540     -0.06937352951178      0.80937134928946
  H   2.24777023679214      0.65926364718496      1.21211616148040
  H   1.44483478882233     -0.73178541642547      1.54092579999968
