16
Coordinates from ORCA-job run
  C   -0.44246343328054     -0.45122922137912     -0.45667511363735
  C   0.51838248528020      0.47064796276786      0.31133439624220
  Br  0.48366255294136     -1.57302222722110     -1.71827999568748
  H   -0.13958632237907      1.03813764319396      0.98811766343608
  N   -1.42274825447821      0.32127725757462     -1.14170198212391
  H   -2.02334306106729      0.77027475702487     -0.45764359946758
  H   -1.98460612112805     -0.25286385346007     -1.75839120442061
  N   -1.08833723597198     -1.34999425761487      0.63890285433780
  O   -1.86327276678945     -0.72156669922480      1.36018330101601
  O   -0.81023285227423     -2.53058722276948      0.73667375420173
  N   1.22639525379403      1.29681584884611     -0.65070213248399
  H   0.56778334728371      1.68593084343969     -1.31668261049842
  H   1.68381764399997      2.05906177200526     -0.16481196504252
  N   1.38357134113846     -0.32453554567291      1.14413355066680
  H   1.75766842036637      0.22903548656484      1.90319379507813
  H   2.15530900256471     -0.66638254407485      0.58234928838309
