14

C	0.0	0.0	0.0
C	-0.566258	-0.000506	-1.414723
F	1.355443	0.0	0.0
H	-1.664856	0.114808	-1.317083
H	-0.401376	-0.841126	0.563057
N	-0.387905	1.243335	0.756231
O	-0.486557	2.282361	0.11243
O	-0.461583	1.120939	1.973377
C	-0.221646	-1.262455	-2.056245
N	0.051619	-2.281218	-2.572782
N	-0.031436	1.111341	-2.288186
O	-0.861021	1.848588	-2.804496
O	1.185651	1.162333	-2.446167
Br	-3.524381	0.0	0.0
