14

C	0.0	0.0	0.0
C	-0.263617	-0.155416	-1.507814
F	1.35159	0.0	0.0
H	0.341819	0.619128	-1.98062
H	-0.433841	-0.749961	0.650092
N	-0.375858	1.363378	0.504585
O	-0.378202	2.281625	-0.311021
O	-0.499816	1.463633	1.719343
C	-1.555286	-0.169469	-2.19641
N	-2.181362	-0.200704	-3.199172
N	0.422119	-1.457118	-1.894286
O	0.229718	-2.429305	-1.172414
O	1.094707	-1.440703	-2.919005
Br	-3.222948	0.0	0.0
