16

C	-0.403753	-0.034407	-1.479334
C	0.0	0.0	0.0
Br	-2.334064	-0.290011	-1.736295
H	1.099598	0.0	0.0
C	-0.046041	1.197034	-2.16967
N	0.179465	2.218133	-2.708398
N	0.29737	-1.208772	-2.191433
O	-0.023142	-2.330261	-1.827419
O	1.116156	-0.916179	-3.049661
C	-0.43413	-1.187058	0.86228
H	-0.088647	-0.990351	1.878983
H	0.045187	-2.099104	0.514349
H	-1.517957	-1.317415	0.869519
C	-0.489921	1.24739	0.574981
N	-0.907648	2.225766	1.074868
Br	3.340512	0.0	0.0
