15

C	0.0	0.0	0.0
C	-0.460101	0.248741	-1.469569
F	1.387082	0.0	0.0
H	0.413941	-0.098858	-2.035562
H	-0.337119	-0.985817	0.329922
C	-0.423209	1.011947	0.97806
N	-0.657079	1.859866	1.755119
C	-0.669429	1.729574	-1.746127
H	0.194611	2.321147	-1.427271
H	-1.558413	2.080643	-1.218069
H	-0.825841	1.869954	-2.816389
N	-1.610529	-0.498193	-1.919223
H	-1.460224	-1.49023	-1.769971
H	-2.445696	-0.249105	-1.378206
Cl	-4.131507	0.0	0.0
