15

C	0.0	0.0	0.0
C	-0.463577	-0.152284	-1.449097
F	1.389152	0.0	0.0
H	-1.552718	-0.096299	-1.423947
H	-0.36622	-0.808718	0.63375
C	-0.378515	1.305798	0.576109
N	-0.50797	2.378853	1.033138
C	-0.031466	-1.511883	-1.981494
H	1.056802	-1.617067	-1.963174
H	-0.370563	-1.609	-3.013469
H	-0.47479	-2.316336	-1.388652
N	0.050525	0.910635	-2.310565
H	-0.473423	1.759597	-2.136215
H	1.01918	1.096557	-2.076357
Cl	-3.467785	0.0	0.0
