15

C	0.0	0.0	0.0
C	-0.461549	-0.246699	-1.472946
F	1.390743	0.0	0.0
H	0.47346	-0.570377	-1.949165
H	-0.339211	-0.817159	0.640477
C	-0.411151	1.2806	0.593789
N	-0.618045	2.333751	1.068809
C	-0.950029	1.025741	-2.15085
H	-1.885012	1.347717	-1.687691
H	-1.139417	0.810518	-3.203545
H	-0.213916	1.831449	-2.075039
N	-1.442127	-1.29592	-1.661051
H	-2.323255	-1.00813	-1.224745
H	-1.136178	-2.144925	-1.197618
Cl	-3.878391	0.0	0.0
