15

C	0.0	0.0	0.0
C	-0.561691	-0.329705	-1.376357
F	1.38759	0.0	0.0
H	-1.609438	-0.587814	-1.191285
H	-0.342357	-0.75053	0.717773
C	-0.39836	1.336389	0.477333
N	-0.584429	2.428347	0.863983
C	0.186109	-1.51418	-1.967343
H	0.18428	-2.362978	-1.278007
H	-0.30382	-1.837065	-2.890834
H	1.218669	-1.240342	-2.191713
N	-0.429488	0.838978	-2.256013
H	-1.161823	1.492817	-1.989188
H	-0.662714	0.53966	-3.197262
Cl	-3.608782	0.0	0.0
