18

C	0.0	0.0	0.0
C	-0.398446	-0.182097	-1.518603
Cl	1.78451	0.0	0.0
H	0.413037	0.283744	-2.081971
N	-0.352688	1.45576	0.37742
O	0.039597	2.317474	-0.404148
O	-0.991082	1.653883	1.400599
N	-0.565317	-0.836028	0.985919
H	-0.453074	-1.802005	0.706281
H	-1.565811	-0.626706	1.045953
N	-1.622631	0.424589	-1.966053
H	-1.553902	1.432962	-1.922737
H	-2.436774	0.148166	-1.411751
C	-0.441586	-1.67268	-1.829998
H	0.455296	-2.200246	-1.491763
H	-1.326583	-2.118941	-1.369496
H	-0.537869	-1.793479	-2.910279
Cl	-4.068605	0.0	0.0
