18

C	0.0	0.0	0.0
C	-0.508322	-0.004129	-1.45246
Cl	1.809926	0.0	0.0
H	-0.282895	-1.028559	-1.772524
N	-0.308125	1.368415	0.700046
O	-0.513811	1.325944	1.907082
O	-0.277802	2.386073	0.01913
N	-0.506763	-1.078162	0.736916
H	-0.324057	-0.946684	1.724605
H	-1.510701	-1.149951	0.595319
N	0.271313	0.87878	-2.320353
H	-0.018149	1.832549	-2.144044
H	0.014021	0.6567	-3.275888
C	-2.011594	0.238348	-1.530639
H	-2.337095	0.127173	-2.568726
H	-2.652621	-0.413418	-0.937076
H	-2.261226	1.256073	-1.225727
Cl	-5.007481	0.0	0.0
