15
Coordinates from ORCA-job run
  C   0.57350671006969      0.30853466667022      1.02543520439407
  C   -0.61926881819337     -0.27108113137002      0.26840349642700
  Cl  1.23922217035194     -0.86231988299055      2.14554156405272
  H   -1.27285165542145     -0.72625391405436      1.01650201086466
  H   0.28577480491857      1.20376385398204      1.57266112994478
  N   1.60084292433528      0.75349757925836      0.00435464272722
  O   2.63826576068545      0.12660611508308     -0.13769164983408
  O   1.22645261017772      1.72478826851951     -0.64772921909860
  C   -0.24567508089808     -1.25093290914992     -0.81952324172979
  H   0.29478312705946     -0.75623885542560     -1.62602750763960
  H   0.37982995191362     -2.04038297083136     -0.39950121622226
  H   -1.14187573637033     -1.70135848727739     -1.24398687179798
  N   -1.44280826862953      0.88441340221623     -0.26648715439985
  O   -1.81056384144953      1.70314742011675      0.57015403591280
  O   -1.70763465854943      0.90381684525301     -1.46210522360110
