15
Coordinates from ORCA-job run
  C   0.61069678967984      0.85868515328599      0.38401661906933
  C   -0.48949570151140     -0.17987950379474      0.25946060880831
  Cl  0.39997267988066      1.85635272166883      1.81449797704690
  H   -0.60228776474161     -0.70554904129091      1.20764021002951
  H   0.66771813351762      1.49773286716126     -0.49346921754845
  N   1.91406615776213      0.10922908936172      0.45773319999414
  O   2.66466157444054      0.24270618357313     -0.50500121727212
  O   2.08639144571052     -0.61423006090776      1.43113128430930
  C   -0.27450784199330     -1.12990508387817     -0.90680011262576
  H   -0.11966692268659     -0.57624484547116     -1.83414415709927
  H   0.58958598909902     -1.76902247887463     -0.72109738808427
  H   -1.15004028457270     -1.77209888245075     -1.01835541719009
  N   -1.77859218969780      0.55556274089865      0.03945474387952
  O   -1.78474431460125      1.39942802387414     -0.85352245485555
  O   -2.73275775028568      0.22823311684441      0.73745532153851
