15
Coordinates from ORCA-job run
  C   0.52563206179393      0.70147177294552      0.69960357040150
  C   -0.48866524073308     -0.28229193370357      0.14430135146193
  Cl  0.16697803264564      1.13029450781035      2.36482210415501
  H   -0.61416481454324     -1.10850793385341      0.84412848883086
  H   0.58441650200055      1.60685970354381      0.10089567907522
  N   1.87362517093987      0.03701350630309      0.61001137890085
  O   2.04616521815018     -0.96725566285213      1.28979865076662
  O   2.66154992526002      0.52922930631741     -0.19303583062085
  C   -0.14334771030857     -0.75820746564379     -1.25670003584182
  H   0.75418152937534     -1.37759236529477     -1.23663330597121
  H   -0.96240036216822     -1.36552005159370     -1.64624767134038
  H   0.01949679208211      0.08913120456131     -1.92449992297000
  N   -1.81328098815838      0.42032369621208      0.09337634943570
  O   -2.77675800277478     -0.17181211700759      0.56862524701568
  O   -1.83242811356138      1.51786383225538     -0.45844605329912
