15
Coordinates from ORCA-job run
  C   0.62801613807198      0.36920439684116      0.94544403222759
  C   -0.60401835309352     -0.24556349982770      0.29325381019715
  Cl  1.38944559572329     -0.82912071257738      1.99809930789698
  H   -1.23307880559974     -0.60356171216385      1.11232073836704
  H   0.35931434457294      1.23148576156907      1.55163530561003
  N   1.67528600750873      0.88174645543250     -0.01121656100713
  O   2.05108515030784      0.12060507085895     -0.89442628210910
  O   2.08851824349857      2.01338012914440      0.20800690306030
  C   -0.41278896211297     -1.35843939446426     -0.72514476808394
  H   0.04106759237136     -0.98122703127900     -1.63884995511836
  H   -1.38995244540843     -1.78633008729484     -0.95173669785127
  H   0.22956311864367     -2.13774095893749     -0.31635021180228
  N   -1.40989091502110      0.84621508069246     -0.35265661857234
  O   -2.60615346717462      0.62397449460126     -0.49951603239640
  O   -0.80641324228802      1.85437200740472     -0.71686297041826
