15
Coordinates from ORCA-job run
  C   0.58105435440765      0.26553972425631      1.03309745333644
  C   -0.62575470443163     -0.26300481345920      0.26118637877650
  Cl  1.21749516549144     -0.95244868626096      2.11974059959470
  H   -1.29021794730719     -0.72290095378684      0.99669615952146
  H   0.31561996800097      1.15198426897457      1.60531698484599
  N   1.61899342869258      0.71291644841517      0.02368837068400
  O   1.26830147333985      1.71055846452560     -0.60133551716587
  O   2.64047921497237      0.06456252914743     -0.13684155756808
  C   -0.27574344508268     -1.22053650734655     -0.85421225091578
  H   0.27322086516232     -0.71505435641643     -1.64821135329901
  H   -1.18214965251562     -1.64043742798348     -1.28820393292914
  H   0.33404029437481     -2.03409129233641     -0.45778483018567
  N   -1.42096516208169      0.92705314025252     -0.24026711415812
  O   -1.68779096197047      0.98523324981350     -1.43420298852358
  O   -1.76658289105271      1.73162621220477      0.61933359798615
