15
Coordinates from ORCA-job run
  C   0.96501219417109      0.06356757867085      0.41961265088717
  C   -0.49270458250428     -0.16000466838872      0.04131295932715
  Cl  2.04858797279717     -0.10484420184813     -0.94320954148229
  H   -1.09629990431731      0.19181571440293      0.88150448290666
  H   1.24650825270679     -0.66510838637812      1.18078328688825
  N   1.13929734628819      1.40860220665467      1.12553931290665
  O   1.93653937514695      2.22154582727454      0.69613355545158
  O   0.44057776311786      1.51000846983183      2.12766239090236
  C   -0.79784371198263     -1.60150089470928     -0.29869757550022
  H   -1.84929320159542     -1.71313607287004     -0.55972587619219
  H   -0.19879115628599     -1.94561225092916     -1.14051643013519
  H   -0.58895443177506     -2.22721746722910      0.57215103020322
  N   -0.83599007632830      0.77053303776369     -1.09533567664984
  O   -0.61576359855303      1.96016909769219     -0.88444966524233
  O   -1.30288224088602      0.29218201006184     -2.12276490427095
