15
Coordinates from ORCA-job run
  C   0.94832709724121      0.11687308047668      0.44674105727932
  C   -0.49146716602444     -0.16286782021240      0.03883055593842
  Cl  2.08424127212362     -0.16552334919193     -0.85306808460286
  H   -1.12996651231781      0.25688865937268      0.81998373581895
  H   1.20879467784452     -0.53145495965181      1.28422103212479
  N   1.08109683924030      1.52579022104476      1.02608199136365
  O   0.34327664918620      1.71222050802928      1.98720404375896
  O   1.88560882074598      2.30524723814112      0.55075868644247
  C   -0.76818269888675     -1.63420127451174     -0.17475894579584
  H   -1.80960657892751     -1.78519371416270     -0.45531446754005
  H   -0.57866837713464     -2.17341376676396      0.75630863686372
  H   -0.13891775584637     -2.04555108140918     -0.96262617936770
  N   -0.80311983134702      0.65146942650705     -1.19190491538620
  O   -1.23096460730956      0.07236756216869     -2.18394733563026
  O   -0.60045182858774      1.85834927016348     -1.08850981126738
