15
Coordinates from ORCA-job run
  C   1.01822706319789      0.10583519166273      0.25451860741482
  C   -0.46188881006909     -0.21593407259959      0.09822936755555
  Cl  1.84247852647756      0.24973110943010     -1.28149679982257
  H   -0.92691127614065     -0.05353759662200      1.07359848779264
  H   1.49155580146805     -0.68966300645941      0.83128248586258
  N   1.21105940407818      1.34804089157020      1.12501757352197
  O   0.70244862018765      1.23042803186698      2.23424636847193
  O   1.84793573575433      2.29453145091159      0.70168638923797
  C   -0.70857306741753     -1.61883343274435     -0.40947179958568
  H   -1.77791642543982     -1.80460077219036     -0.49985473035417
  H   -0.29146207937484     -2.33573041259337      0.30160325771951
  H   -0.25150154487113     -1.77346022704114     -1.38573695931992
  N   -1.08133157559651      0.82412234096629     -0.80119373586664
  O   -1.68833911331884      0.44969794692355     -1.79808114285120
  O   -0.92378125893524      1.98837255691877     -0.44334736977679
