15
Coordinates from ORCA-job run
  C   0.58666387127906      0.27210375375450      1.02803017108801
  C   -0.62293625981234     -0.26485951177105      0.26613737400264
  Cl  1.23378659496945     -0.93787159368916      2.11754921008868
  H   -1.28035606635286     -0.72430456794095      1.00823709791783
  H   0.32080916612108      1.15962617354852      1.59838361576601
  N   1.61694898855905      0.71868744389922      0.01088044709481
  O   1.25581114334443      1.70733286867269     -0.62227876598200
  O   2.64497551326490      0.07966019961983     -0.14513012835313
  C   -0.27614082685146     -1.22463682775550     -0.84810360190274
  H   -1.18350248003924     -1.64759140177123     -1.27700850417502
  H   0.33761188026497     -2.03583640256967     -0.45289501833278
  H   0.26749886874802     -0.71975818409349     -1.64615340114331
  N   -1.42741493608791      0.91952851119291     -0.23438965897891
  O   -1.70709360992282      0.96881230008075     -1.42574819882374
  O   -1.76766184748433      1.72810723882264      0.62348936173364
