15
Coordinates from ORCA-job run
  C   0.57571237140217      0.28800144121893      1.02999618902164
  C   -0.62221240586907     -0.26809671473234      0.26411797590130
  Cl  1.22708602071602     -0.90488668616904      2.13514147302770
  H   -1.28105604935614     -0.72795817305793      1.00471856554803
  H   0.29794665691824      1.17919475235306      1.58888280877570
  N   1.60921204664119      0.73569153305234      0.01566658696874
  O   1.24062398893201      1.71264123542089     -0.63117120872106
  O   2.64591311265380      0.10745587767265     -0.12526460752470
  C   -0.25658664565519     -1.23530083590576     -0.83800273508001
  H   -1.15563596285544     -1.67785079373080     -1.26459306073164
  H   0.36841763543620     -2.03195891223883     -0.43095917484979
  H   0.28224743850806     -0.73095134928340     -1.63960743327986
  N   -1.43493421611231      0.90247241256715     -0.25394776768174
  O   -1.70759396910510      0.93687625612545     -1.44744968573677
  O   -1.79014002225442      1.71566995670763      0.59347207436247
