15
Coordinates from ORCA-job run
  C   0.68748563760110      0.78967371023172      0.39859271026190
  C   -0.51715976801581     -0.12011747658804      0.23976677908704
  Cl  0.53273158197262      1.83077265126151      1.80532923008079
  H   -0.72639178585932     -0.61568248993102      1.18772219037479
  H   0.85335034158648      1.40271474883577     -0.48365542839252
  N   1.89345177586515     -0.10017628206852      0.53946943901237
  O   1.93616975122061     -0.82729618351486      1.52439413219583
  O   2.70049130500620     -0.06151112721435     -0.38519483576067
  C   -0.36349285836490     -1.10586253094408     -0.90639208580037
  H   0.41715445495892     -1.83301982077099     -0.67953153135184
  H   -0.11333542484684     -0.58679432561245     -1.83291980450386
  H   -1.29947242197500     -1.64992044627140     -1.04556601159490
  N   -1.70457907411943      0.75257739144663     -0.04160949869576
  O   -1.58111013639866      1.57297504042647     -0.94776565218028
  O   -2.71429337863111      0.55166714071363      0.62536036726747
