15
Coordinates from ORCA-job run
  C   0.59112877106629      0.28602309683018      1.00332030245008
  C   -0.61721325032227     -0.29286338521190      0.26972232240454
  Cl  1.37704204833182     -0.94769820801437      1.97641477888974
  H   -1.29332242873759     -0.66095651957786      1.04334070025896
  H   0.28530207017983      1.10261607506359      1.65550451411242
  N   1.57331077690358      0.89619071004513      0.03148127101021
  O   1.55072234646887      2.12255838771862     -0.02504927940903
  O   2.26859108260710      0.13817629060767     -0.63074462281023
  C   -0.33930429986179     -1.34399234469728     -0.78197802783597
  H   0.20503608017467     -2.17870979674629     -0.34046037788866
  H   -1.28826252144059     -1.71537024400473     -1.17304121305387
  H   0.24456420605682     -0.93646651264862     -1.60345318042156
  N   -1.34610170402827      0.88207402773066     -0.33389054013341
  O   -2.24666440355416      1.37409450163625      0.34186193566983
  O   -0.96582877384431      1.27332392126897     -1.43402858324306
