15
Coordinates from ORCA-job run
  C   0.91691240111849      0.12436550110778      0.50691325080707
  C   -0.49153447596837     -0.16669777496218      0.00751498924667
  Cl  2.13634006451083     -0.15051656080141     -0.71650060661475
  H   -1.18238389557624      0.24853210788828      0.74531184587877
  H   1.12727251790750     -0.52120684439703      1.36048432957172
  N   1.00155981725806      1.53459840602660      1.09166561387212
  O   0.20227873479327      1.71627852097411      2.00323064874479
  O   1.82891721411502      2.31976381419159      0.66784938121065
  C   -0.74244203657672     -1.64022716209925     -0.22201574067686
  H   -0.05989656119853     -2.04717755921258     -0.96666291532824
  H   -0.61013681320193     -2.17759066673230      0.71993235368090
  H   -1.76209364230461     -1.79923824589239     -0.57003856624900
  N   -0.73027326780684      0.64451387202572     -1.24175934625024
  O   -1.08914436816939      0.06149424080484     -2.25845119358610
  O   -0.54537568890055      1.85310835107822     -1.12647404430751
