15
Coordinates from ORCA-job run
  C   0.58013379681137      0.26786051630733      1.03314515771307
  C   -0.62456998747172     -0.26569746553591      0.26105239014283
  Cl  1.22150554419036     -0.94730843667827      2.11984163791097
  H   -1.28638890383588     -0.72887014745428      0.99690053124011
  H   0.31036736015647      1.15294696351648      1.60548255939862
  N   1.61615914687440      0.72013845487287      0.02424651807068
  O   2.64212579604774      0.07835312267930     -0.13397189258373
  O   1.26011634295488      1.71489909865183     -0.60234459281297
  C   -0.27094674280563     -1.22160572172507     -0.85450028856019
  H   -1.17595196810619     -1.64223858230516     -1.29068947026818
  H   0.33907178760108     -2.03474397128975     -0.45752883988730
  H   0.27872027869453     -0.71489205862376     -1.64722074430320
  N   -1.42498415398218      0.92061277654741     -0.23971542311256
  O   -1.77528950924745      1.72282430399819      0.62017888031587
  O   -1.69106878788177      0.97872114703878     -1.43387642326400
