12
Coordinates from ORCA-job run
  C   -0.71855686484234      1.04309462857889     -0.33151805742861
  C   0.16228624266079     -0.17988381581928     -0.16515787679876
  F   -1.24573318655811      1.47555930835294      0.86270259125227
  H   0.51315670011301     -0.41298729624460     -1.19477505302336
  H   -1.54789370515055      0.80991416884011     -1.00858231583392
  H   -0.13344093061673      1.86178430488078     -0.76508743135091
  N   -0.60693819644824     -1.27205821118125      0.40979907193168
  H   -1.36428998564026     -1.52068121160449     -0.21562435207746
  H   -0.02039008742900     -2.09251697026778      0.50822168197030
  N   1.26611631597727      0.12092186357052      0.73271936704545
  H   1.83502072661289      0.85981431751726      0.33657629153473
  H   1.86166297132128     -0.69296108662310      0.83172608277858
