12
Coordinates from ORCA-job run
  C   -0.75817357784853      1.03918478006280     -0.22570953732702
  C   0.23148368478083     -0.10530029948351     -0.25560080806716
  F   -1.91555949262083      0.67677588432310     -0.91586455600669
  H   0.53064713502577     -0.26128952789264     -1.30290806078474
  H   -1.04000946178690      1.26181084941760      0.80668072260639
  H   -0.33117170634796      1.92015392819329     -0.70431094939220
  N   -0.40381109072674     -1.27357644383673      0.34510662705016
  H   -1.31301525795154     -1.41891383352834     -0.07929596658055
  H   0.15359058835649     -2.10108796469924      0.16796730713342
  N   1.40997794871845      0.32324128281508      0.47329124750830
  H   1.22882286476141      0.18529196022095      1.46170014920482
  H   2.20821836563953     -0.24729061559237      0.22694382465527
