12
Coordinates from ORCA-job run
  C   -0.72787740368280      1.06171080893860     -0.22053746326813
  C   0.09359911051014     -0.20789398702573     -0.27924300785569
  F   0.06773124208389      2.15210179627774     -0.57444063653091
  H   0.38929326412618     -0.36659833143505     -1.32712751816637
  H   -1.08752226032464      1.22656177274920      0.79843427309453
  H   -1.56415403933485      1.00284563710336     -0.91672264503664
  N   -0.77814339632004     -1.30449691728589      0.09668452861161
  H   -0.81571653576088     -1.33566741803564      1.10980830707999
  H   -0.39862751577830     -2.18651125578027     -0.22175022889325
  N   1.22818296319078     -0.05941249938271      0.62628107995776
  H   1.69663053870347      0.81999969153536      0.43897508288948
  H   1.89760403258706     -0.80363929765896      0.46863822811762
