12
Coordinates from ORCA-job run
  C   -0.71733873705307      1.07908048941449     -0.26627267079790
  C   0.12221635866636     -0.18080628164358     -0.31262490798549
  F   -1.25115797026626      1.25078732423890      1.00194971694466
  H   0.40525734424174     -0.32445647819202     -1.36852863950149
  H   -1.54454038179370      0.98686616732416     -0.97179623482543
  H   -0.11974103267845      1.96563411254262     -0.50067486128938
  N   -0.71464192188095     -1.30268537252722      0.05482153964780
  H   -0.94208465221633     -1.20993783444055      1.03813005544901
  H   -0.21378592591853     -2.17387768733042     -0.06805250056883
  N   1.27508828999999     -0.03294451244239      0.57803556277889
  H   1.82240366978085      0.78328328406050      0.32723414751699
  H   1.87832495911835     -0.84194321100448      0.48677879263118
