19

C	0.0	0.0	0.0
C	-0.402428	0.04497	-1.556032
F	1.440566	0.0	0.0
H	0.14169	-0.842913	-1.928088
N	-0.348853	1.180263	0.65668
H	-0.18276	1.995841	0.089607
H	0.010183	1.257498	1.595525
C	-0.270232	-1.279337	0.756154
H	0.191115	-2.105257	0.203476
H	-1.314531	-1.495742	0.944497
H	0.27596	-1.219225	1.70507
N	0.25133	1.288045	-2.038342
H	1.257142	1.181364	-1.972065
H	0.015016	1.417526	-3.016498
C	-1.785072	-0.015823	-2.446794
H	-2.394567	-0.903988	-2.274445
H	-2.378188	0.90608	-2.378627
H	-1.0499	-0.175558	-3.39736
Br	-3.283899	0.0	0.0
