19

C	0.0	0.0	0.0
C	-0.227927	-0.101207	-1.550456
F	1.414028	0.0	0.0
H	0.625088	-0.706094	-1.880936
N	-0.48309	1.24394	0.52337
H	0.281651	1.849469	0.77515
H	-1.166947	1.128395	1.252825
C	-0.526216	-1.186095	0.75791
H	-0.183072	-1.13831	1.794498
H	-1.617777	-1.144404	0.728138
H	-0.181834	-2.119231	0.307757
N	-0.029892	1.247208	-2.094161
H	-0.246342	1.217939	-3.085126
H	-0.74026	1.821055	-1.64656
C	-1.495377	-0.773765	-2.0682
H	-2.348516	-0.10195	-2.081936
H	-1.797953	-1.64383	-1.48551
H	-1.288616	-1.116999	-3.088786
Br	-4.139119	0.0	0.0
