19

C	0.0	0.0	0.0
C	-0.238281	-0.241336	-1.510914
F	1.422173	0.0	0.0
H	0.271588	-1.193909	-1.734744
N	-0.447951	1.267803	0.47622
H	-1.432669	1.195418	0.717859
H	-0.360805	1.92806	-0.29073
C	-0.490863	-1.117782	0.882366
H	-0.10736	-2.077188	0.528145
H	-1.583841	-1.13977	0.882294
H	-0.135147	-0.944619	1.90009
N	0.391779	0.885528	-2.21497
H	0.151006	0.83815	-3.197356
H	1.397302	0.810702	-2.128414
C	-1.683277	-0.336987	-1.944422
H	-2.236568	-1.115769	-1.424816
H	-1.723495	-0.547636	-3.020563
H	-2.221099	0.589647	-1.751947
Br	-4.531806	0.0	0.0
