19

C	0.0	0.0	0.0
C	-0.321139	0.357021	-1.479823
F	1.405364	0.0	0.0
H	0.439351	1.116353	-1.697499
N	-0.434902	1.090652	0.840494
H	-1.452181	1.117556	0.783868
H	-0.207578	0.861246	1.803854
C	-0.473267	-1.358695	0.470736
H	-0.045308	-2.167985	-0.12281
H	-1.565012	-1.392924	0.411587
H	-0.177254	-1.502606	1.514893
N	-1.605366	0.95098	-1.78611
H	-2.386404	0.385331	-1.458809
H	-1.69862	1.843163	-1.316791
C	-0.089462	-0.832058	-2.404923
H	-0.884875	-1.573184	-2.284583
H	-0.117452	-0.481948	-3.43874
H	0.874941	-1.310007	-2.213231
Br	-4.310367	0.0	0.0
