19

C	0.0	0.0	0.0
C	-0.299676	0.159728	-1.523296
F	1.397767	0.0	0.0
H	0.391589	0.963222	-1.82
N	-0.435762	1.11621	0.797362
H	-1.432257	1.007827	0.972879
H	-0.311926	1.976026	0.272305
C	-0.510117	-1.276523	0.624067
H	-1.597262	-1.330777	0.516788
H	-0.048967	-2.147122	0.15706
H	-0.260329	-1.270494	1.687207
N	-1.629278	0.577923	-1.919536
H	-2.346962	-0.052695	-1.569331
H	-1.862521	1.465224	-1.491079
C	0.072916	-1.09165	-2.309172
H	-0.656894	-1.885779	-2.125393
H	1.06777	-1.454117	-2.039567
H	0.047554	-0.863263	-3.377206
Br	-4.328781	0.0	0.0
