19

C	0.0	0.0	0.0
C	-0.485961	-0.014358	-1.462959
F	1.395302	0.0	0.0
H	-1.505771	0.385233	-1.416423
N	-0.423457	1.187093	0.709732
H	-0.277684	1.998422	0.117752
H	-1.431569	1.100842	0.838807
C	-0.442338	-1.2179	0.780484
H	-0.099372	-1.10233	1.810329
H	0.007116	-2.108117	0.341052
H	-1.531495	-1.293496	0.767681
N	-0.486425	-1.379919	-2.014743
H	-0.676336	-1.303148	-3.009784
H	-1.298786	-1.852729	-1.624899
C	0.38372	0.866562	-2.348925
H	-0.07873	0.980701	-3.335062
H	0.515591	1.868555	-1.931802
H	1.367922	0.409388	-2.469463
Br	-3.91111	0.0	0.0
