19

C	0.0	0.0	0.0
C	-0.362718	-0.315842	-1.470714
F	1.423117	0.0	0.0
H	0.305335	0.343924	-2.044658
N	-0.438405	1.322724	0.306679
H	-0.298145	1.538045	1.285026
H	0.079986	1.988618	-0.253442
C	-0.523738	-0.973154	1.021893
H	-1.615747	-0.971137	0.97936
H	-0.142177	-1.977131	0.836886
H	-0.207524	-0.669863	2.025665
N	-1.717661	-0.019922	-1.888622
H	-1.944672	0.93523	-1.636665
H	-2.405935	-0.553615	-1.36309
C	-0.018174	-1.751913	-1.842481
H	-0.735135	-2.44605	-1.393582
H	-0.088061	-1.863501	-2.926271
H	0.989233	-2.021279	-1.515532
Br	-4.63675	0.0	0.0
