14

C	-0.586654	-0.014792	-1.393776
C	0.0	0.0	0.0
Cl	0.085934	-1.298024	-2.402812
H	1.092451	0.0	0.0
H	-1.669204	-0.133466	-1.382453
H	-0.312823	-0.942376	0.463152
N	-0.38674	1.323896	-2.066273
O	-1.363036	2.076464	-2.011291
O	0.702036	1.591429	-2.548722
C	-0.507786	1.181871	0.822368
H	-0.105953	2.123104	0.443075
H	-0.15453	1.073416	1.849604
H	-1.599899	1.254634	0.832217
Cl	3.511066	0.0	0.0
