14

C	-0.479589	0.002088	-1.427289
C	0.0	0.0	0.0
Cl	0.180015	-1.351605	-2.36761
H	1.092214	0.0	0.0
H	-1.562749	-0.020258	-1.55297
H	-0.333884	0.949968	0.43924
N	-0.056035	1.293745	-2.090103
O	1.141115	1.515999	-2.198799
O	-0.967548	2.045156	-2.442344
C	-0.567439	-1.169288	0.788492
H	-0.235786	-1.103089	1.828453
H	-1.664528	-1.192719	0.786736
H	-0.204415	-2.12099	0.393233
Cl	2.707862	0.0	0.0
