14

C	-0.428344	0.010382	-1.448728
C	0.0	0.0	0.0
Cl	-2.188715	0.32663	-1.663104
H	1.093693	0.0	0.0
H	0.097772	0.772971	-2.015302
H	-0.320604	0.954672	0.428571
N	-0.089721	-1.283101	-2.168482
O	1.083453	-1.394735	-2.446118
O	-0.890054	-2.25451	-1.999755
C	-0.539867	-1.171156	0.807811
H	-0.233066	-1.052694	1.848303
H	-1.629982	-1.244154	0.767605
H	-0.118011	-2.113357	0.454707
Cl	3.258612	0.0	0.0
