14

C	-0.562141	-0.027329	-1.404536
C	0.0	0.0	0.0
Cl	0.016569	-1.38499	-2.366498
H	1.092228	0.0	0.0
H	-1.652711	-0.06921	-1.397905
H	-0.342067	0.937523	0.44879
N	-0.268442	1.289054	-2.105265
O	0.562279	1.348523	-2.996287
O	-0.936802	2.22862	-1.673998
C	-0.501241	-1.18254	0.821882
H	-0.126325	-2.123521	0.41705
H	-1.595804	-1.227898	0.858219
H	-0.125991	-1.095561	1.843188
Cl	3.494873	0.0	0.0
