19

C	0.0	0.0	0.0
C	-0.443648	0.050937	-1.458717
F	1.38414	0.0	0.0
H	-0.083447	-0.922817	-1.817061
N	-0.274036	1.315158	0.793642
O	0.085248	1.283478	1.970234
O	-0.790054	2.276614	0.234769
N	-0.486771	-1.107356	0.703833
H	-1.493408	-1.180401	0.592216
H	-0.260733	-1.018186	1.687661
C	0.2832	1.126474	-2.269614
H	0.119864	0.927124	-3.332143
H	1.357974	1.119293	-2.08704
H	-0.109539	2.11741	-2.048764
C	-1.949365	0.118111	-1.672277
H	-2.157863	0.084588	-2.745419
H	-2.383146	1.034368	-1.277474
H	-2.510094	-0.695053	-1.215047
Br	-5.012003	0.0	0.0
