19

C	0.0	0.0	0.0
C	-0.450079	-0.007988	-1.454071
F	1.359217	0.0	0.0
H	0.150419	0.779339	-1.919056
N	-0.256191	1.415231	0.630938
O	-0.464717	1.451789	1.840758
O	-0.129635	2.390854	-0.098463
N	-0.524026	-1.020845	0.790456
H	-0.368101	-0.829077	1.772645
H	-1.523602	-1.11178	0.6319
C	-1.92245	0.307622	-1.664806
H	-2.126396	0.342574	-2.738714
H	-2.219588	1.266849	-1.242219
H	-2.604469	-0.431909	-1.242948
C	-0.070054	-1.349317	-2.080925
H	0.977348	-1.596676	-1.898982
H	-0.688398	-2.153495	-1.679436
H	-0.232938	-1.302546	-3.160923
Br	-5.012209	0.0	0.0
