14

C	0.0	0.0	0.0
C	-0.50862	-0.194375	-1.421281
Cl	1.77422	0.0	0.0
H	-1.606447	-0.239001	-1.371467
H	-0.126878	-1.133428	-1.823125
N	-0.510108	1.157284	0.583436
H	-1.536265	1.107802	0.546654
H	-0.196733	1.250899	1.54112
N	-0.34091	-1.300917	0.815047
O	-0.424028	-1.152833	2.027087
O	-0.44433	-2.357226	0.20512
C	-0.081489	0.913426	-2.269031
N	0.25003	1.780878	-2.986632
Br	-3.6869	0.0	0.0
