15

C	0.0	0.0	0.0
C	-0.344913	0.162324	-1.503839
Cl	1.750096	0.0	0.0
H	-1.429088	0.04435	-1.57048
H	-0.089913	1.189032	-1.765064
N	-0.379993	1.261725	0.782643
O	-0.265929	1.227184	2.00045
O	-0.65962	2.268265	0.132841
N	-0.722744	-1.187328	0.557262
O	-0.713002	-1.373261	1.789083
O	-0.75726	-2.14923	-0.269989
N	0.414654	-0.741157	-2.371898
H	0.127778	-1.676184	-2.103851
H	0.0856	-0.573241	-3.315226
H	-2.131047	0.0	0.0
