19

C	0.0	0.0	0.0
C	-0.181019	0.123351	-1.56037
F	1.414019	0.0	0.0
H	0.572525	-0.564194	-1.951504
C	-0.473253	1.196487	0.78924
H	0.076062	2.091966	0.503845
H	-1.545385	1.332926	0.636935
H	-0.287928	0.990152	1.844567
N	-0.480858	-1.196333	0.588066
H	-0.411875	-1.958013	-0.074902
H	-1.479458	-1.065127	0.753141
C	0.059658	1.518821	-2.096293
H	0.106016	1.507023	-3.185202
H	-0.745509	2.190104	-1.803764
H	1.009277	1.885595	-1.706468
N	-1.440613	-0.446129	-2.150002
O	-1.564464	-1.667582	-2.063685
O	-2.19218	0.298694	-2.764788
Cl	-3.729678	0.0	0.0
