19

C	0.0	0.0	0.0
C	-0.252725	0.00924	-1.541855
F	1.402083	0.0	0.0
H	0.09628	0.970046	-1.923867
C	-0.515368	1.272652	0.62716
H	-1.605764	1.307968	0.549539
H	-0.07678	2.143739	0.136769
H	-0.232772	1.27372	1.681489
N	-0.472989	-1.128804	0.724604
H	-0.325227	-1.973488	0.185168
H	-1.471683	-1.018217	0.887515
C	-1.643467	-0.315046	-2.028404
H	-2.381665	0.380505	-1.63522
H	-1.659442	-0.289793	-3.122757
H	-1.953918	-1.300925	-1.687942
N	0.692491	-0.970847	-2.173536
O	0.574071	-2.157284	-1.864122
O	1.512213	-0.544133	-2.984717
Cl	-4.185003	0.0	0.0
