19

C	0.0	0.0	0.0
C	-0.279477	0.42032	-1.499817
F	1.398135	0.0	0.0
H	0.628048	0.94291	-1.815782
C	-0.476569	1.071844	0.954399
H	-0.051067	2.040697	0.68356
H	-1.567954	1.126042	0.944724
H	-0.134194	0.798026	1.953829
N	-0.488236	-1.266628	0.428076
H	-1.503199	-1.210751	0.50969
H	-0.243911	-1.99402	-0.232588
C	-1.505442	1.251916	-1.797034
H	-2.425211	0.780429	-1.447764
H	-1.574361	1.432391	-2.872049
H	-1.409313	2.218367	-1.296739
N	-0.266138	-0.825804	-2.345157
O	-1.261843	-1.107728	-3.008792
O	0.759898	-1.513203	-2.302299
Cl	-4.080094	0.0	0.0
