19

C	0.0	0.0	0.0
C	-0.445403	0.012648	-1.485068
F	1.391037	0.0	0.0
H	-1.508515	0.267859	-1.487583
C	-0.44194	1.244201	0.741439
H	-0.009261	2.135074	0.2873
H	-1.529757	1.314454	0.725061
H	-0.089237	1.152715	1.770125
N	-0.46323	-1.154148	0.70945
H	-1.478917	-1.072618	0.787298
H	-0.251226	-1.998321	0.19129
C	-0.177729	-1.290754	-2.212786
H	0.834741	-1.648296	-2.020383
H	-0.90953	-2.033106	-1.893365
H	-0.291866	-1.156354	-3.289421
N	0.260374	1.126765	-2.194465
O	-0.254407	2.245286	-2.152265
O	1.324487	0.873056	-2.762192
Cl	-3.663895	0.0	0.0
