19

C	0.0	0.0	0.0
C	-0.184766	0.099187	-1.567405
F	1.426212	0.0	0.0
H	0.637302	-0.511989	-1.950602
C	-0.462183	1.209653	0.772799
H	-1.543057	1.317635	0.661229
H	-0.223751	1.036914	1.82386
H	0.053835	2.109512	0.439727
N	-0.472585	-1.183966	0.616316
H	-1.466573	-1.042521	0.806045
H	-0.419226	-1.960435	-0.034764
C	-0.095409	1.508244	-2.111826
H	-0.960275	2.093015	-1.800957
H	-0.068331	1.497166	-3.202238
H	0.819561	1.973827	-1.742496
N	-1.372787	-0.611414	-2.162555
O	-1.392865	-1.835669	-2.015897
O	-2.1625	0.027201	-2.846578
Cl	-3.674916	0.0	0.0
