19

C	0.0	0.0	0.0
C	-0.195724	0.105512	-1.554874
F	1.400074	0.0	0.0
H	0.268543	1.048697	-1.845295
C	-0.526424	1.243144	0.672537
H	-0.306948	1.181013	1.739965
H	-1.609783	1.304787	0.536637
H	-0.046365	2.130982	0.257195
N	-0.489211	-1.162756	0.64897
H	-0.353662	-1.976314	0.060688
H	-1.486376	-1.05071	0.819489
C	-1.592855	-0.044834	-2.137358
H	-1.65771	-0.903463	-2.807654
H	-1.852362	0.846383	-2.712625
H	-2.361771	-0.167363	-1.372025
N	0.714099	-0.907576	-2.187232
O	1.625657	-0.501761	-2.905883
O	0.486385	-2.097885	-1.963326
Cl	-4.21428	0.0	0.0
