19

C	0.0	0.0	0.0
C	-0.168387	-0.010407	-1.567193
F	1.416035	0.0	0.0
H	0.587687	-0.731153	-1.886528
C	-0.489226	1.251596	0.681758
H	0.021658	2.134241	0.298318
H	-0.279772	1.155938	1.74915
H	-1.569045	1.334145	0.534246
N	-0.47539	-1.150821	0.678107
H	-1.467207	-0.998753	0.873498
H	-0.430696	-1.959396	0.069763
C	0.090111	1.333495	-2.217889
H	1.041977	1.722268	-1.851662
H	-0.710505	2.035797	-1.988819
H	0.147707	1.228397	-3.302615
N	-1.422646	-0.624725	-2.121963
O	-2.180399	0.076918	-2.780542
O	-1.540208	-1.83935	-1.954547
Cl	-3.752193	0.0	0.0
