13
Coordinates from ORCA-job run
  C   0.52337386045727      0.21355551324425     -0.00026249798112
  C   -0.75216837583231     -0.26893262498057     -0.03297850767805
  N   1.05472279607340      0.97508948263875     -1.12645973122075
  O   1.15871566558245      0.38584008071516     -2.20075609201278
  O   1.34713630902516      2.14463559153505     -0.89624859392587
  N   1.44135604059536      0.01703149071910      1.08818645935883
  O   2.60008255633752      0.38750756567446      0.93297051658481
  O   0.99999219652736     -0.56365405568409      2.08801880066546
  C   -1.53364923446185     -0.02620136118288     -1.21820080995307
  N   -2.25486244736648      0.15506030190867     -2.12985084294354
  N   -1.42148602459732     -0.87737566202173      0.97501696258186
  H   -2.28261107110550     -1.34995421345961      0.75451569934537
  H   -0.87960227123505     -1.19160210910656      1.76504863717884
