13
Coordinates from ORCA-job run
  C   0.51673468921724      0.17207381410580     -0.05547023657368
  C   -0.76241396464927     -0.28931692348169      0.03511969519173
  N   0.99645257402268      0.83185991600806     -1.26573739263379
  O   0.85130500305622      2.05113360652148     -1.31752443468096
  O   1.51753832011457      0.10897491915273     -2.11201249685213
  N   1.49552558055841      0.09134609198637      0.98927910064679
  O   2.60403014038717      0.56507469875943      0.76033662924841
  O   1.14498609337171     -0.45013132872605      2.04375502956177
  C   -1.60204486397094     -0.09336811872310     -1.11621902312150
  N   -2.31777838504135      0.06066772662813     -2.03769593906394
  N   -1.31883827545751     -0.97561781857620      1.06131791026702
  H   -0.80326132320579     -1.01218588207923      1.92742597399429
  H   -2.32123558840311     -1.06051070157573      1.08642518401600
