13
Coordinates from ORCA-job run
  C   0.52317011144066      0.18575825931863     -0.06457451012437
  C   -0.75881097494817     -0.24682971740075      0.04319716909515
  N   0.97283284076933      0.91963085026910     -1.24407983532273
  O   0.45428531432735      2.00133789728807     -1.48513987630980
  O   1.84278943218112      0.36461148540105     -1.93112053134850
  N   1.52509273780018     -0.02337810352593      0.93300327710150
  O   1.21486157752945     -0.80892926579315      1.83777764080426
  O   2.56782885138095      0.61591396714906      0.80212117182284
  C   -1.64328604354086      0.01632401740709     -1.06739515600732
  N   -2.38451976560319      0.19658418668348     -1.94277125558810
  N   -1.29164429962531     -0.99694280924516      1.07906788426387
  H   -0.72607693829000     -1.13064096806540      1.92480814016651
  H   -2.29852284342151     -1.09143979948607      1.11510588144669
