13
Coordinates from ORCA-job run
  C   0.54803078357351      0.14679452946686     -0.16359001346478
  C   -0.73367374448404     -0.27741384327251      0.06955295242676
  N   1.60025372964881     -0.77785003014386     -0.57450146204527
  O   2.69726266951239     -0.62235413610749     -0.05810658138539
  O   1.28841028697908     -1.67853703736968     -1.35221118960982
  N   0.98768218481457      1.49342168731411      0.13471100362733
  O   0.30344981096648      2.14403932782889      0.92996955756252
  O   1.95743020281051      1.91747167139264     -0.48418988274330
  C   -1.14319205673701     -1.59872609890175     -0.31630558185795
  N   -1.62380719142651     -2.64752219814882     -0.55459899788538
  N   -1.71039084355486      0.43826389630758      0.67058081407737
  H   -2.66269885362452      0.11645764339153      0.63798629243743
  H   -1.50975697847841      1.34295458824251      1.05870308886050
