13
Coordinates from ORCA-job run
  C   0.54921067713064      0.13783385974009     -0.01885469860490
  C   -0.75413631458738     -0.26062294937116      0.06874562069188
  N   1.60642563453459     -0.81022055154958     -0.34859734514056
  O   2.28473265518446     -0.53378299692448     -1.33418713264108
  O   1.72136564034841     -1.79949988887931      0.37259666707675
  N   0.99197142796404      1.49233317806982      0.19330807622417
  O   2.19265701897797      1.68263420018742      0.34472466973984
  O   0.11526675697102      2.36285662226840      0.24098790601319
  C   -1.05223272683608     -1.65483853005160     -0.13076699845711
  N   -1.38683082469753     -2.76851957843935     -0.31011046357455
  N   -1.82436041903362      0.51135863932156      0.36565911804295
  H   -1.70047851124110      1.51202582181624      0.33922461897356
  H   -2.74259101471541      0.12744217381195      0.21726996165588
