13
Coordinates from ORCA-job run
  C   0.52057928728419      0.18171023782090     -0.00585628759651
  C   -0.74567975464460     -0.31615847409985      0.07572381481847
  N   0.88015634655369      1.55010394012597      0.23216023568384
  O   -0.03172776333105      2.32043465469051      0.55235189342617
  O   2.06320103888329      1.85144446068248      0.10956127657969
  N   1.63433267726343     -0.66370831145085     -0.41839248615391
  O   2.16509844079361     -1.34504344012546      0.45606616924169
  O   1.94746307081854     -0.60542946542047     -1.60552562066707
  C   -0.91334327584525     -1.71201048467334     -0.22934778538811
  N   -1.09603855889875     -2.84735263634093     -0.48071932114887
  N   -1.86345079701483      0.33485954283552      0.47525147189234
  H   -1.80696337374399      1.33773288225602      0.56821951657420
  H   -2.75462733811828     -0.08658290630051      0.27150712273808
