13
Coordinates from ORCA-job run
  C   0.52635803811832      0.20169331323181      0.03737387042081
  C   -0.74705404671266     -0.26768953121267     -0.11704507528661
  N   1.39998072047638     -0.18391921767584      1.11423254746936
  O   2.40381568271373      0.49258684307710      1.30434553950661
  O   1.04877315990342     -1.15524650058333      1.79476570996742
  N   1.09030264871871      1.17429380305106     -0.89152903547009
  O   0.48349427659636      2.23391919787649     -1.03545980284708
  O   2.12765507730981      0.83604455278483     -1.45458163489882
  C   -1.53947887897276      0.26174655424615     -1.19637695385097
  N   -2.24503044013013      0.62810684566348     -2.06368591189152
  N   -1.34388247112719     -1.25376514213896      0.58916154939718
  H   -0.86356166601461     -1.61110712794998      1.40094563088153
  H   -2.34237210087938     -1.35666359037013      0.51885356660217
