13
Coordinates from ORCA-job run
  C   0.54429398801320      0.15647910308477      0.02625001928537
  C   -0.75256944965345     -0.25167662641502     -0.10547885369066
  N   0.93475521794661      1.44724224573997      0.53298535850144
  O   0.04288325058474      2.13731708614014      1.04053111324036
  O   2.10452439099329      1.78422563501202      0.39733315367136
  N   1.64950570911942     -0.72127508759383     -0.34071191226226
  O   2.45743664400184     -0.96882312093134      0.54998163169908
  O   1.67377966450334     -1.13954470654478     -1.49692567080921
  C   -0.99843230808494     -1.55830019142302     -0.65796281381087
  N   -1.28782518431769     -2.62147733846609     -1.07068395562415
  N   -1.86526948076122      0.45591329297847      0.19162532633675
  H   -2.74762915998594     -0.02706907619349      0.21281274326878
  H   -1.75545328235920      1.30798878461220      0.71924386019399
