13
Coordinates from ORCA-job run
  C   0.54125525140219      0.12327527539490      0.04187824905890
  C   -0.77457690422602     -0.22235705409160     -0.08265715881815
  N   0.99621451852734      1.40639517479977      0.51173741256529
  O   2.18311087226364      1.67657871781780      0.37396906125460
  O   0.14070236456663      2.15511403037065      0.99838353884553
  N   1.60340201722282     -0.79103010184986     -0.35322015926932
  O   1.63483368828899     -1.14339874444557     -1.53146979875020
  O   2.37707244262970     -1.12995472747694      0.53904363128482
  C   -1.06797549031861     -1.51999974924349     -0.63336012465722
  N   -1.34083066798247     -2.58093889889016     -1.06118323880808
  N   -1.85097251647417      0.54260686918300      0.20458554446235
  H   -1.68792333420957      1.38578095096373      0.73423276626630
  H   -2.75231224169045      0.09792825746775      0.25906027656516
