13
Coordinates from ORCA-job run
  C   0.64372409132080      0.38266674819906     -0.07282418924560
  C   -0.54361163357367     -0.49611042218123      0.14637426616464
  N   0.90789524683598      1.65284014314992     -0.66014574907696
  O   -0.08183778652779      2.24789821442586     -1.07947574581718
  O   2.07878857755529      2.02327913002702     -0.68375429221389
  N   1.51459971651330     -0.56499143412301      0.26941144310691
  O   2.67479599237659     -0.80701314366089      0.36126008068466
  O   0.43709669494728     -1.54490613098940      0.58895751012460
  C   -1.18066664647494     -0.97312813151728     -1.08338186014292
  N   -1.68997860186063     -1.36350682110292     -2.06726696257908
  N   -1.48455644641649     -0.06343939023213      1.08374920027482
  H   -1.05570073314498      0.24255120302010      1.94704849767637
  H   -2.22054847155073     -0.73713996501510      1.25004780104363
