13
Coordinates from ORCA-job run
  C   0.63988499126757      0.39271338485052     -0.03791257381353
  C   -0.54491009152993     -0.50307667350837      0.11632266852418
  N   1.50289421635912     -0.53737809506191      0.36667117337240
  O   2.65859401929225     -0.76138643291499      0.53080766447201
  O   0.42149847096821     -1.53317520195493      0.62605310378443
  N   0.92175939544964      1.66314121460983     -0.61658950106583
  O   2.08249884364065      2.05981862342051     -0.55134095932136
  O   -0.04364694082416      2.23015880318773     -1.12232282436774
  C   -1.09962760161174     -0.99831145303396     -1.14544937758613
  N   -1.53806074496402     -1.40614057585984     -2.15613455284853
  N   -1.54673477956981     -0.07724468086001      0.99283653847666
  H   -1.17283787202177      0.23140907963335      1.88065208116574
  H   -2.28131190645601     -0.76152799250793      1.11740655920771
