13
Coordinates from ORCA-job run
  C   0.52717250177459      0.16729558443989     -0.08009643740676
  C   -0.72769645279185     -0.32677632386067      0.13661806095822
  N   0.88024372297869      1.55231345781422      0.10238581797148
  O   1.85486870151607      1.96566033356901     -0.51284458430907
  O   0.14244835644268      2.22659253834409      0.83031697351340
  N   1.62266088828496     -0.68413432333222     -0.52838441851738
  O   1.44194793747218     -1.39261954293843     -1.51564176141037
  O   2.63482698564078     -0.63867734699717      0.16864963079616
  C   -1.01266132498696     -1.67847962766104     -0.27261213464367
  N   -1.29951603737933     -2.75197472995789     -0.65269128110389
  N   -1.75575183164474      0.31585177242093      0.73486364427418
  H   -1.62503247355837      1.28452547229589      0.98718526386062
  H   -2.68651097374868     -0.03957726413661      0.60425122601708
