13
Coordinates from ORCA-job run
  C   0.68698408736346      0.28934624913766     -0.22696655951426
  C   -0.42508972996314     -0.60684634190258      0.19209770904383
  N   0.80331178465279      1.63245591913869     -0.67149594503832
  O   -0.27530490847551      2.21128779533095     -0.81550585791055
  O   1.92900942218797      2.08014232645416     -0.86439445554522
  N   1.62853848283361     -0.52093378855950      0.24743444300754
  O   2.79354759142385     -0.65239382035943      0.40898606043564
  O   0.58138525542599     -1.55610047553601      0.65427828472732
  C   -1.16889096700547     -1.22192082214399     -0.91899636761663
  N   -1.81586321515620     -1.68919208511845     -1.78231243998016
  N   -1.19841545772455     -0.07179095106340      1.25930437627339
  H   -1.93695330519920     -0.70876736034742      1.53496434061845
  H   -1.60325904036359      0.81571335496935      0.98160641149897
