13
Coordinates from ORCA-job run
  C   0.68667490588907      0.28209889921756     -0.23556023928013
  C   -0.43043521177323     -0.60114441547321      0.19728849362615
  N   0.81531845855559      1.62609178793156     -0.67385528780280
  O   1.94401809145416      2.05794823951509     -0.88475226817692
  O   -0.25694069360540      2.22164218446830     -0.79515965486114
  N   1.62583247619785     -0.54947747771135      0.20493910143020
  O   2.79164549781145     -0.70404574169003      0.33527108610027
  O   0.56795443167561     -1.57304397813459      0.62490448535546
  C   -1.20901273797949     -1.18698215449413     -0.90617280078867
  N   -1.88197251241657     -1.63071928397657     -1.76203050449433
  N   -1.17078571130730     -0.06673825103200      1.28844274242790
  H   -1.90517814037590     -0.70093379596317      1.58046640832337
  H   -1.57811885412585      0.82430398734253      1.02621843814065
