13
Coordinates from ORCA-job run
  C   0.55240231520282      0.13885739178123      0.04561263938395
  C   -0.75208810485440     -0.25766299001631     -0.05514048600103
  N   0.95881688312243      1.46724119363124      0.42448133369490
  O   2.11840005082375      1.63111532264838      0.78477298779352
  O   0.08563999498989      2.34271212211467      0.39118069336612
  N   1.64399666986264     -0.79253037951495     -0.21221910412929
  O   2.47462509515767     -0.42844777835531     -1.04019925221428
  O   1.63644524615965     -1.85564996189455      0.40431795810938
  C   -1.02601100370860     -1.63231240886390     -0.38779021029584
  N   -1.35113880181396     -2.72546841998790     -0.67752968263352
  N   -1.85075736857020      0.50010701185142      0.13728322951601
  H   -2.75917501478840      0.11640991422693     -0.05554340979006
  H   -1.73215596158331      1.49562898237905      0.24077330320013
