13
Coordinates from ORCA-job run
  C   0.54337630626663      0.12418652914214      0.08040284661400
  C   -0.76599630191146     -0.22642548208742     -0.09441230619346
  N   0.98929300868087      1.39639582873224      0.57582904530276
  O   2.18795146591875      1.64446836297882      0.50592776309595
  O   0.11652981041291      2.16512161756675      0.99804268955137
  N   1.61264139704562     -0.81526939253452     -0.25636674138068
  O   2.29206195736257     -1.21367289147965      0.68248829985033
  O   1.70790421720043     -1.14828496271595     -1.43412665934958
  C   -1.03724481805467     -1.51799795198165     -0.67033818513190
  N   -1.33527753368581     -2.55300807297792     -1.14505043481685
  N   -1.85603961942365      0.47568609224491      0.29607112405618
  H   -2.74337912872533      0.23733581919421     -0.11716396757686
  H   -1.70982076108684      1.43346450391803      0.57769652597874
