13
Coordinates from ORCA-job run
  C   0.63926211655801      0.38469845667661     -0.06225983961967
  C   -0.55053789486503     -0.48367560994121      0.19007522046329
  N   0.92480349858157      1.60565380358342     -0.74350898443349
  O   -0.05784807784657      2.26022137720044     -1.07806806533115
  O   2.10952207516908      1.88170051868225     -0.91266854857966
  N   1.50814178111176     -0.55760704363856      0.29966333228749
  O   0.42624777501656     -1.51690540535532      0.67416526466686
  O   2.66827838766318     -0.81191480350079      0.36492882756568
  C   -1.17100853733091     -0.99782972668813     -1.03492279382568
  N   -1.65850901246711     -1.40534489950439     -2.02350030308320
  N   -1.50260834040642     -0.01600023092217      1.09723495663238
  H   -2.24910764237484     -0.67462630697265      1.27865396017274
  H   -1.08763612880927      0.33062987038050      1.95120697308441
