13
Coordinates from ORCA-job run
  C   0.54517308314030      0.13037206073692      0.06371453334784
  C   -0.75911382677495     -0.24843861642856     -0.08247753781118
  N   0.95891422338550      1.42042787730810      0.55043372242534
  O   2.13852255114223      1.72666368583253      0.42709434829953
  O   0.07460075312422      2.14185932004806      1.02782950483922
  N   1.63628283511776     -0.76593780201457     -0.30362407193323
  O   2.42363884843561     -1.04885314516861      0.59465135620062
  O   1.67341478724943     -1.15582683283321     -1.46910745123165
  C   -1.02462069115364     -1.54512946938465     -0.64931233791971
  N   -1.31861633655785     -2.59244243685326     -1.09676387129787
  N   -1.85789571765243      0.42865431906332      0.31843771601078
  H   -2.75547991679464      0.13143981934823     -0.02579733537102
  H   -1.73682059266155      1.37521122034573      0.64392142444132
