13
Coordinates from ORCA-job run
  C   0.52654301368446      0.18641827451955     -0.09678953055793
  C   -0.73944949257520     -0.29949121770122      0.06555947179549
  N   0.91872503821138      1.53322713535640      0.23252026116266
  O   0.11699929133562      2.19871082298907      0.89817652306678
  O   1.99450143805945      1.93439432713946     -0.19473699261465
  N   1.59399613443502     -0.65326942328981     -0.62615229368395
  O   2.58716075915793     -0.76877667803656      0.08673330505660
  O   1.40799099612071     -1.17724976638189     -1.72290022021648
  C   -1.00394140450787     -1.65485967555065     -0.34149651562671
  N   -1.29988376544711     -2.75928538553721     -0.61892546023494
  N   -1.81449100166559      0.36899998913310      0.54174355330809
  H   -2.63799391727408     -0.15992439338529      0.77540812011489
  H   -1.65115708953471      1.25210599074506      1.00085977843015
