13
Coordinates from ORCA-job run
  C   0.54628098612589      0.15875853440672      0.04403727086474
  C   -0.74166284937626     -0.25499318563658     -0.14371749914843
  N   0.90301029741583      1.45065018038353      0.57481290089733
  O   0.00078074694242      2.09716511711260      1.11916698568405
  O   2.05684013026288      1.83222837484511      0.41938316580867
  N   1.67163355090757     -0.70777538885186     -0.28391770417405
  O   1.70520245014762     -1.18498140231894     -1.41659388038844
  O   2.48554343240573     -0.89203390743388      0.61631054544755
  C   -0.96786355119813     -1.55330259449003     -0.72360715402728
  N   -1.26658413892047     -2.60452147300266     -1.15856330260845
  N   -1.86819385521754      0.44315890141530      0.12931471299136
  H   -2.74603744583732     -0.04854592339646      0.11324192408334
  H   -1.77894975365820      1.26319276696715      0.71013203456962
