13
Coordinates from ORCA-job run
  C   0.54051588561708      0.16421419736733     -0.03045098546529
  C   -0.74885191733821     -0.28536908439007      0.00774533816317
  N   0.92576579647122      1.52400517074876      0.24036279420223
  O   2.11326975384089      1.75162951971064      0.43881854186464
  O   0.01618606481896      2.36123509439259      0.28675515955635
  N   1.64586082383343     -0.73962864638831     -0.32725910818832
  O   1.77724813376188     -1.72558530695206      0.39574547264160
  O   2.34585355804402     -0.43173111439140     -1.28783107765620
  C   -0.98467496432598     -1.68867183084527     -0.21192820889047
  N   -1.26571535888925     -2.81631456131940     -0.39558569221976
  N   -1.86732563382105      0.45780416094425      0.15353705486445
  H   -2.73426609120400     -0.00890747285543      0.36104401816050
  H   -1.76286605080898      1.43731987397839      0.37004669296709
