13
Coordinates from ORCA-job run
  C   0.54091817236640      0.16282022931252     -0.02530597260184
  C   -0.74508131257201     -0.29448688617598      0.03097400885846
  N   0.95142975759066      1.46395678549566      0.43316906974146
  O   2.05718911188509      1.86628364336930      0.09144477456133
  O   0.13534224880197      2.09698886473094      1.11371914959873
  N   1.60684652386942     -0.65078229185004     -0.59808293339665
  O   2.55794032787013     -0.88363858829126      0.14270739459548
  O   1.46177917795120     -1.03623127253015     -1.75655094861006
  C   -1.03115320412377     -1.58739566510614     -0.53483956286520
  N   -1.34720601179678     -2.63681033509210     -0.96260286580599
  N   -1.79572913173034      0.29788455405800      0.64111439846658
  H   -2.72193190766061     -0.03425230409514      0.43071411190918
  H   -1.67134375245137      1.23466326617439      0.99353937554853
