13
Coordinates from ORCA-job run
  C   0.54664240219692      0.16249027821524     -0.05211827439286
  C   -0.71336114855630     -0.33026455341051      0.13770282700125
  N   0.89973016154412      1.54356580378070      0.17188802545965
  O   1.90110613300895      1.97088785797989     -0.38764674652360
  O   0.12219672468268      2.20936803284723      0.86526455040565
  N   1.61238342300850     -0.66152076576318     -0.60880770411094
  O   2.66596871339476     -0.66452600253266      0.02053595551131
  O   1.37368593414585     -1.26943351031070     -1.64982796901983
  C   -0.99875357847728     -1.68158535856467     -0.27119376639583
  N   -1.36025760312556     -2.75178435234365     -0.60208566487746
  N   -1.74679319339081      0.29602255362035      0.74213192914669
  H   -2.67003513028393     -0.09253427620392      0.64722233304369
  H   -1.63251283814790      1.26931429268587      0.98593450475227
