13
Coordinates from ORCA-job run
  C   0.55597950689043      0.13155854264081     -0.05747128493251
  C   -0.71805109490443     -0.32121671130204      0.12202825538611
  N   1.65916741724356     -0.72407834024034     -0.47348613007261
  O   1.63214661560747     -1.89616371784164     -0.10626647599138
  O   2.50971175002162     -0.19849706301624     -1.18247214952887
  N   0.90651156744413      1.52520734007365      0.14310387970139
  O   2.00359117742193      1.76455165000218      0.63169179790148
  O   0.05186057891071      2.36330958018331     -0.16239382469150
  C   -1.01797355601995     -1.72165888569610     -0.01012365234810
  N   -1.39957017140636     -2.82874801532400     -0.11924506861644
  N   -1.77861983469131      0.44741551069975      0.48770310353463
  H   -1.71408603468412      1.43666765688587      0.30686390898408
  H   -2.68966792183368      0.02265245293478      0.42106764067372
