13
Coordinates from ORCA-job run
  C   0.53831547572554      0.17479500829909     -0.02718054431694
  C   -0.74210970302743     -0.29969606092136      0.01805498281145
  N   0.89667694886904      1.54781646473643      0.21446124662452
  O   2.07977087123769      1.80643731743929      0.39789801064428
  O   -0.03102813367460      2.36495341075480      0.25231840896017
  N   1.65837543185182     -0.71291428263210     -0.32080383419639
  O   2.35102433338765     -0.40079238028464     -1.28509786914793
  O   1.80261059514134     -1.69550774018754      0.40417515296235
  C   -0.95043129483561     -1.71125525851219     -0.18000641356281
  N   -1.20548812801989     -2.84865940750263     -0.34096438607526
  N   -1.87658161428023      0.42386874326372      0.14691569580355
  H   -2.73328849236777     -0.05717946283828      0.36516213175140
  H   -1.78884629000754      1.40713364838542      0.35406741774162
