13
Coordinates from ORCA-job run
  C   0.53785526707969      0.17558547407956     -0.02538916427591
  C   -0.74248686917692     -0.28911265114016      0.09187893881423
  N   0.91240695526104      1.55633200588354      0.09652461356501
  O   -0.00829365280092      2.37762086919875      0.17670922924255
  O   2.10806564055907      1.82012521143882      0.13974547417123
  N   1.63266583045872     -0.74481340019081     -0.29423328771861
  O   2.22538512780210     -0.58442351945037     -1.35997865742394
  O   1.84966435137828     -1.62034141085463      0.54359718492525
  C   -0.95305477026028     -1.70486302445679     -0.06161253943219
  N   -1.17254713357986     -2.84812858941767     -0.22990794377210
  N   -1.85418653395415      0.43156011138597      0.35285494010097
  H   -1.78453088836425      1.43669184411301      0.32727616541765
  H   -2.75294332440251     -0.00723292058922      0.24253504638586
