13
Coordinates from ORCA-job run
  C   0.54061426147588      0.16335850892441     -0.03534798875761
  C   -0.74270118417388     -0.29500302351466      0.05969835316602
  N   1.63669394401090     -0.72930676356612     -0.39334487094445
  O   2.56041758159816     -0.79093666957355      0.41324796015056
  O   1.54159725673471     -1.34202972312249     -1.45506704869132
  N   0.91991967943396      1.53627205837205      0.17066820328363
  O   2.03373636309328      1.88274155754006     -0.20461291218145
  O   0.07149360993076      2.27699738622433      0.68201505345115
  C   -0.99482259360091     -1.67831101622333     -0.25095244127060
  N   -1.28599333768689     -2.79561466363595     -0.47676938064289
  N   -1.82283972425772      0.38903010182343      0.49759068447369
  H   -2.73673672242339      0.00466572682282      0.32611155410555
  H   -1.72137913413485      1.37813651992900      0.66676283385772
