13
Coordinates from ORCA-job run
  C   0.55656187292003      0.14640969458582      0.03845902161099
  C   -0.74590084082311     -0.26674835491460     -0.05434682066154
  N   0.94439816389212      1.47079688124311      0.44647151412647
  O   2.11322718881356      1.64982619117212      0.76972957015646
  O   0.05407018405005      2.32965620589819      0.47031517003404
  N   1.65217587175296     -0.76043281607928     -0.28895674688474
  O   2.44995145808409     -0.35246673899870     -1.12885784893763
  O   1.67745521509286     -1.84725261180992      0.28314998874601
  C   -1.01315252681556     -1.63336763996445     -0.42255023243461
  N   -1.33991404578457     -2.71363799644818     -0.75533115834874
  N   -1.85161169570671      0.48809107757645      0.09711411187100
  H   -2.74977617744239      0.04073927344044      0.16847421422128
  H   -1.74748466803332      1.44938683429902      0.37632921650101
