13
Coordinates from ORCA-job run
  C   0.54586653139926      0.15411711129001     -0.00941374438222
  C   -0.74778353284250     -0.27916476278776      0.05906338242556
  N   0.93788435099684      1.53564711807507      0.10227089218730
  O   2.12391434023738      1.77894485973791      0.28905135460782
  O   0.03390644836592      2.37676828363429      0.03632745221482
  N   1.64396124208058     -0.78292127536546     -0.21271349441154
  O   2.35797334372552     -0.56645747561151     -1.18810462475441
  O   1.75467777754933     -1.70552518824648      0.59252651506981
  C   -0.99623092993220     -1.69442673097168     -0.02905826002125
  N   -1.29079171191048     -2.83000524763958     -0.11849373417397
  N   -1.85199239764200      0.47989105671337      0.23828497540054
  H   -2.75304097365674      0.05323859676447      0.10315898131944
  H   -1.75834448837091      1.47889365440736      0.13710030451811
