13
Coordinates from ORCA-job run
  C   0.54515269572931      0.15707670254412      0.04137006211667
  C   -0.74470427072349     -0.26339831071483     -0.11966744584049
  N   0.90368667824579      1.46005154266448      0.54455496088224
  O   2.05328166366025      1.84402764964678      0.36459916994381
  O   0.00620415823186      2.11198055596642      1.09014277777065
  N   1.66923103191653     -0.70294005701378     -0.30590543172463
  O   1.68682410229216     -1.17699751140282     -1.44050751417659
  O   2.49935709692048     -0.88453177743991      0.58029727982310
  C   -0.97389034761365     -1.56619140146275     -0.68739446748836
  N   -1.25711892465614     -2.62729335223638     -1.10883108781082
  N   -1.86694746501687      0.43189732729226      0.16981609979211
  H   -2.74905247015639     -0.04948488106723      0.14200970862264
  H   -1.77102394882983      1.26580351322364      0.72951588808966
