13
Coordinates from ORCA-job run
  C   0.50943875045770      0.17775424341995     -0.17245504612433
  C   -0.72144505915693     -0.29867801504057      0.17804275041733
  N   0.88309961781452      1.56763826595516     -0.10152712916946
  O   1.90399297267614      1.91388999587657     -0.68329529410240
  O   0.11877150052780      2.31779143102843      0.51615608118357
  N   1.55663290048360     -0.71638807544108     -0.65093373008412
  O   2.60855381821287     -0.69488783162594     -0.01779249532657
  O   1.29800756907198     -1.41548238001404     -1.62880832736157
  C   -0.97399685453444     -1.70721915235712      0.02034691734051
  N   -1.25495260700202     -2.84776730552684     -0.04880587795557
  N   -1.77313842133377      0.41806430612268      0.63554125753118
  H   -1.60150342061777      1.36808037396217      0.92742891591708
  H   -2.55446076659968     -0.08179585635937      1.02610197773436
