13
Coordinates from ORCA-job run
  C   0.54731994381490      0.14871046357611      0.04166028871347
  C   -0.75001252544591     -0.27550184016731     -0.00978772410398
  N   0.94448589435800      1.48714261558758      0.39443541644001
  O   2.13460208668010      1.69255056030451      0.60077894194626
  O   0.04227594057423      2.32523272064104      0.49954149216840
  N   1.64165529741502     -0.75409640101615     -0.29022576608296
  O   1.73605363230967     -1.78893990142221      0.36823099025583
  O   2.36469902611771     -0.40338091567149     -1.21919309134912
  C   -1.00173731062809     -1.65181020525988     -0.34783060669269
  N   -1.30161835177167     -2.75083045742133     -0.64278862233099
  N   -1.85826270932184      0.45000473761725      0.26958363575170
  H   -1.75128022984506      1.45015492123042      0.33963385707295
  H   -2.74918069425707      0.07076370200145     -0.00603881178888
