13
Coordinates from ORCA-job run
  C   0.54889449903502      0.15119453119702     -0.01277780792690
  C   -0.74448857684708     -0.28045734671935      0.06758788640698
  N   0.95282408970971      1.51851013172725      0.19490072409155
  O   2.14485125099053      1.74077318548566      0.36682380570770
  O   0.05223211662837      2.36537887284853      0.22322150273118
  N   1.62922253382844     -0.76696044710454     -0.34823156604123
  O   2.30656913329384     -0.46424191884004     -1.32689694833100
  O   1.76140350886013     -1.76380141499423      0.36011308808722
  C   -1.00856403639880     -1.68147314477968     -0.13425662626361
  N   -1.32023079536968     -2.80095804280999     -0.31853464636891
  N   -1.83577532640942      0.46447701478950      0.35128716416459
  H   -1.74175046063758      1.46817940316890      0.33845241136694
  H   -2.74518793668348      0.04937917603096      0.23731101237548
