13
Coordinates from ORCA-job run
  C   0.55275164821339      0.15192906202532      0.02238976165946
  C   -0.74576906880738     -0.27208911894600     -0.04532097103936
  N   0.93221397783326      1.52655640508293      0.23125274128858
  O   0.03954697230682      2.29923984926295      0.59983435765567
  O   2.09196654628689      1.84235810146810     -0.00460593158389
  N   1.65766093990317     -0.78352566072826     -0.13456590552326
  O   2.48828654438962     -0.78787764169838      0.77036891644881
  O   1.65607388717692     -1.49935193063450     -1.13491154636865
  C   -0.99955112723144     -1.66275169700472     -0.32086968846252
  N   -1.29825150027872     -2.78023439272295     -0.53595501083974
  N   -1.85518958683487      0.45963476235143      0.18151836214032
  H   -2.75915077764626      0.06408296035003     -0.01083493907472
  H   -1.76258845531141      1.44302930119405      0.38169985369931
