13
Coordinates from ORCA-job run
  C   0.51588278078162      0.29522549591285     -0.03800610797507
  C   -0.72906501031745     -0.27287420076542     -0.04912698181963
  N   0.99889671293988      1.16024441629038     -1.10400009885760
  O   0.16626429490697      1.78740166463290     -1.75054407130699
  O   2.20861412758370      1.14123974525742     -1.30126009667186
  N   1.46447305828273     -0.00627548127794      1.01292353893015
  O   2.20217165082330      0.89782527125987      1.38892179530233
  O   1.42558314018128     -1.14815884211962      1.48911341119204
  C   -1.71452105568226      0.10968142232632     -1.03050014652292
  N   -2.64442620212758      0.30048945603251     -1.72523502631459
  N   -1.18062748859837     -1.21276663865846      0.80919109889583
  H   -2.15080837916579     -1.47308436410777      0.78096317035062
  H   -0.56143762960804     -1.57794794478304      1.51555951479770
