13
Coordinates from ORCA-job run
  C   0.54500388091209      0.14817405254989     -0.04955141012483
  C   -0.76345773454760     -0.24029624327860     -0.00491294870101
  N   1.57534837981985     -0.73148396036174     -0.58715038567863
  O   1.41978793997931     -1.14766757105390     -1.73364749230620
  O   2.50824418077064     -0.98698685324359      0.16935540307768
  N   1.02079445190641      1.42313510262264      0.42365437144477
  O   2.14930850583707      1.76803599398837      0.09379434363120
  O   0.23348201833531      2.09542656721614      1.09982448326731
  C   -1.10917766268060     -1.52708639862890     -0.55060522567287
  N   -1.47786709801283     -2.57164219107359     -0.94735509263782
  N   -1.81010021480220      0.47369840851936      0.46820908909153
  H   -2.68511079338331     -0.00182615910460      0.61001531373073
  H   -1.60725585413415      1.29951925184853      1.01036955087814
