13
Coordinates from ORCA-job run
  C   0.53184686612090      0.16458427145107     -0.09871574961594
  C   -0.73042589954448     -0.29485942672501      0.14926580132654
  N   0.91127090542266      1.55089667652664     -0.02337823725558
  O   0.10468791132487      2.31976109570737      0.51341846389000
  O   1.98128626302470      1.87717878713705     -0.52343640234506
  N   1.60078224840716     -0.74348622485930     -0.49793537445076
  O   2.59663052921072     -0.74481750324294      0.22033312022094
  O   1.41392938183631     -1.42755259335346     -1.50238883696346
  C   -0.99139214200828     -1.69840408877659     -0.03904742731900
  N   -1.28252568465770     -2.83300891338185     -0.14901322079846
  N   -1.77306931765548      0.41040352440390      0.64184685086587
  H   -1.66977027078442      1.41004480867510      0.72782467844376
  H   -2.69425079069696      0.01025958643803      0.58022633400116
