13
Coordinates from ORCA-job run
  C   0.52223054466633      0.17645186070749     -0.00195087621004
  C   -0.75218995732658     -0.30763103092154      0.02459319646189
  N   0.88626069747615      1.54037007614160      0.25646918643434
  O   2.05730698171080      1.85607278459068      0.07569720280803
  O   -0.01594790799700      2.29603686042872      0.63483307441250
  N   1.65483348693307     -0.69215614627376     -0.31262560672010
  O   2.36065890969022     -1.00561255482828      0.64228140713975
  O   1.81344182779517     -1.00235879954902     -1.49109771440338
  C   -0.93281682572321     -1.69220571420093     -0.31704668190934
  N   -1.14552854195455     -2.81377034625134     -0.60199847338834
  N   -1.87552224977378      0.34868086093496      0.40330041788867
  H   -2.76458952311993     -0.05181691066158      0.15265335314424
  H   -1.80813744237671      1.34693905988298      0.53589151434176
