13
Coordinates from ORCA-job run
  C   0.51233254069343      0.16928127398420     -0.17160944000303
  C   -0.72371989517294     -0.29217882711456      0.18079909733569
  N   0.86682788654112      1.56510936405050     -0.21683347982931
  O   0.07154696178267      2.35797970428972      0.30038693561300
  O   1.90562242971092      1.87124177928839     -0.78956301405679
  N   1.58591363274681     -0.74941459334799     -0.53011496226631
  O   1.37023231073207     -1.53702603669621     -1.44945447282628
  O   2.61417315910341     -0.65607725036194      0.13462562739088
  C   -0.95228865738243     -1.71312807208823      0.14663368214073
  N   -1.21221578316186     -2.86024961646675      0.17773341008735
  N   -1.80101856532215      0.44756542590011      0.53041514268994
  H   -1.64887374629467      1.42172176352814      0.74330053030762
  H   -2.58753227397638     -0.02582491496538      0.94268094341651
