13
Coordinates from ORCA-job run
  C   0.54238290238336      0.16481852520027     -0.00135284647217
  C   -0.74118273954672     -0.30292846457683      0.01398681139418
  N   0.89444751565986      1.54484245108099      0.20941221240678
  O   2.02575136884758      1.89784670870654     -0.10347104731449
  O   0.00683066304737      2.28555100176559      0.64926379846025
  N   1.66947771211066     -0.72169427647851     -0.26097954735271
  O   1.66314290396431     -1.34267771404226     -1.32147595307850
  O   2.53105463088985     -0.76254557719850      0.61227757353382
  C   -0.96557366388643     -1.69026593255538     -0.29660251497055
  N   -1.23970299168059     -2.80884889213690     -0.53535285052417
  N   -1.85417450944492      0.38198678039220      0.35635630320708
  H   -1.77926743777429      1.37135310361979      0.53509052959370
  H   -2.75318635457004     -0.01643771377698      0.14384753111679
