13
Coordinates from ORCA-job run
  C   0.53951264270561      0.14818388329738     -0.01254052548288
  C   -0.76298427073260     -0.25963064461768      0.02293181571952
  N   0.98121812519796      1.48466383744166      0.27777497721850
  O   0.12473868195619      2.28224160092295      0.67577031182225
  O   2.16326845279231      1.74493178178127      0.08262788146125
  N   1.60451570514754     -0.77887705449859     -0.37775455118911
  O   2.37790653750757     -1.09430759845606      0.52239045934090
  O   1.63757549346567     -1.15784921655520     -1.54773219474301
  C   -1.03767140882843     -1.62463943016923     -0.34214711770117
  N   -1.32580460924315     -2.73097683762834     -0.62082961096477
  N   -1.83442326362178      0.45612062596629      0.42777573657235
  H   -2.75814403487901      0.09446422690382      0.26160321403599
  H   -1.70970805146786      1.43567482561172      0.63012960391019
