13
Coordinates from ORCA-job run
  C   0.52809399684986      0.17200187344143     -0.10757267594506
  C   -0.73713457884065     -0.29346484811387      0.10741017535244
  N   0.91361930895218      1.55017195442865      0.07400861851003
  O   1.92919421984961      1.93555851436211     -0.49298860349132
  O   0.16843528336376      2.24807479794672      0.76963601518701
  N   1.59261523915824     -0.70487059727723     -0.58156371955903
  O   2.62547476404193     -0.68853173660504      0.08358913549463
  O   1.36924742649673     -1.38484497759018     -1.58115957101851
  C   -1.01522676181940     -1.67325162533320     -0.18830895805870
  N   -1.31258385646806     -2.79218815019962     -0.39660284089594
  N   -1.81114486722893      0.42138051143682      0.52550403695036
  H   -2.61107147439107     -0.10851566968028      0.83288150734145
  H   -1.63951869996420      1.31847995318370      0.95616688013263
