13
Coordinates from ORCA-job run
  C   0.50685734329468      0.18312201568145     -0.17906391566075
  C   -0.71487381289738     -0.30655766019054      0.18747984574357
  N   0.85889098604630      1.57906837946832     -0.13330120902569
  O   0.08061871900179      2.32946499250259      0.46769122287778
  O   1.87934339031178      1.93041321829222     -0.71384961411520
  N   1.56648752954160     -0.70579143841335     -0.63966242485634
  O   2.62002001000303     -0.65561220845241     -0.01108736221416
  O   1.31431082780843     -1.43166979420283     -1.59971135809147
  C   -0.94576825779529     -1.72155852207360      0.05899366761949
  N   -1.20830516807117     -2.86715499916052      0.00709936990201
  N   -1.77424239601127      0.40155148469118      0.63707900043014
  H   -2.55932374601890     -0.09795041337090      1.01929161613698
  H   -1.62401542521362      1.36367494522840      0.89904116125365
