13
Coordinates from ORCA-job run
  C   0.52839697509665      0.11122569577404      0.08214666053447
  C   -0.78181672063627     -0.24336586642544     -0.04726615922268
  N   0.99104343816138      1.38844104850185      0.54005684295440
  O   0.13712227147098      2.16774793961379      0.97991599005767
  O   2.19167416232497      1.62364478980244      0.44550708792129
  N   1.60156071209672     -0.78699161706601     -0.33565963048965
  O   2.27325390838928     -1.27667531608931      0.56957584733923
  O   1.76019283234154     -0.94370210480503     -1.54545669035213
  C   -1.05715560246392     -1.52765001161855     -0.63539257363617
  N   -1.31922572142519     -2.56462082091277     -1.12620073717822
  N   -1.86392549632395      0.44734908598083      0.38616783030964
  H   -1.69860406556589      1.39703294233616      0.68532722988308
  H   -2.76251669346631      0.20756423490800      0.00127830187908
