13
Coordinates from ORCA-job run
  C   0.52164813032708      0.16080774681387     -0.03717684748866
  C   -0.77530463560123     -0.25624090362545     -0.00559860700828
  N   0.96612438716611      1.48827213760692      0.27493152500963
  O   0.09560507075416      2.31417307945288      0.57157382548068
  O   2.17281018131733      1.70463952335422      0.22394298989892
  N   1.60182706649270     -0.76119924943748     -0.37308546678502
  O   2.13135680616273     -1.34800445343677      0.56787488629624
  O   1.89423037138992     -0.85000008369687     -1.56368195773792
  C   -1.01620945846057     -1.63741013883952     -0.32685059383376
  N   -1.24440162834942     -2.76487304425445     -0.57524728615677
  N   -1.87730237694734      0.49757885173064      0.22260389532908
  H   -2.73696686219261      0.02274508894029      0.44240845945494
  H   -1.73241705205886      1.43051144539172      0.57830517754092
