13
Coordinates from ORCA-job run
  C   0.49182058787857      0.19233343583873     -0.20546240460131
  C   -0.69682619085189     -0.32246328522484      0.22721619409053
  N   0.79690183303320      1.60022194066913     -0.22931942301245
  O   1.77502975959475      1.96085670168129     -0.87276959284329
  O   0.02145099740234      2.34749025034127      0.37805941769913
  N   1.56124591327406     -0.67711152774164     -0.68032788603883
  O   1.29600460148238     -1.44376486293161     -1.60434913120251
  O   2.63721469861920     -0.56822486443975     -0.09864180862203
  C   -0.88283224810109     -1.74853791699113      0.16117947684581
  N   -1.10630057465285     -2.90368885008664      0.17036621791539
  N   -1.76419778917602      0.36761174007262      0.68956202227484
  H   -2.50239586722351     -0.14538708729429      1.14169398176029
  H   -1.62811572127914      1.33966432610686      0.92179293573442
