13
Coordinates from ORCA-job run
  C   0.51115753780747      0.19007407935781     -0.15633229395436
  C   -0.71166778141975     -0.32915757577891      0.15558792964351
  N   0.83694108737321      1.59108962656123     -0.03583739583849
  O   0.10507487851578      2.27656108575846      0.68559508575919
  O   1.79401358795105      2.00245035670250     -0.68067891413648
  N   1.59562874368936     -0.64827375643593     -0.64809702995344
  O   2.64765594869945     -0.57638796258870     -0.01973427193417
  O   1.36533006710475     -1.35917533712158     -1.62377145390206
  C   -0.94867507066652     -1.72946731182253     -0.08344646086728
  N   -1.24164606622340     -2.85947026735918     -0.22655536337222
  N   -1.78760471020189      0.35231553236164      0.62171090322743
  H   -2.54748324758023     -0.18242155104170      1.00962797674178
  H   -1.61872497504929      1.27186308140691      1.00193128858659
