12
Coordinates from ORCA-job run
  C   0.67155201213487      0.53454061515877      0.23057036223183
  C   -0.55222794060975     -0.31416140913919      0.65870985286151
  Cl  1.39946708185607      1.28778779306297      1.68560224749778
  H   -1.24010909244969      0.35987147489609      1.17689402421007
  H   -0.19057325711506     -1.04948731614710      1.38311938400386
  C   1.66343344615855     -0.32841362451746     -0.41112238663688
  N   2.44112500158020     -1.06666738289438     -0.89074573499659
  C   0.23985153363587      1.58588838585422     -0.69053281166558
  N   -0.15611948985610      2.43024861356868     -1.40466299360273
  N   -1.12630042531260     -0.91244520996501     -0.52060452432891
  H   -2.07039768882242     -0.60903942882962     -0.69988527625658
  H   -1.07970118119994     -1.91912251104797     -0.51734214331779
