12
Coordinates from ORCA-job run
  C   0.66772882225286      0.53582240265588      0.23930985476543
  C   -0.47973767935729     -0.41785482503187      0.65772104960140
  Cl  1.48395397333128      1.15121422024197      1.71217764224910
  H   -0.02816193408038     -1.21414610135264      1.25599894569096
  H   -1.14743226295027      0.15508810937261      1.30753243185137
  C   1.63677154985405     -0.19357302993333     -0.57866233305958
  N   2.40165756386966     -0.82510720968595     -1.20780600302332
  C   0.11543023766738      1.66380973896540     -0.51097583175170
  N   -0.37941230538495      2.56426177927027     -1.08034551209394
  N   -1.12571106023006     -0.90391113885367     -0.53586606401539
  H   -1.05577805201854     -1.90316166267172     -0.64591574629140
  H   -2.08730885295375     -0.61244228297697     -0.61316843392294
