12
Coordinates from ORCA-job run
  C   0.40687404711159      0.67776732776676      0.02403202787492
  C   -0.63517787938801     -0.40331141581741     -0.34164429734306
  Cl  -0.30498931521297      1.78509061800629      1.24395476964640
  H   -0.18701802234718     -1.01605724475690     -1.12903907487361
  H   -1.49760612045972      0.12318695445638     -0.76931558664772
  C   1.60600395112975      0.05629818012758      0.58664434090868
  N   2.58015777435980     -0.45721204999787      0.99491613634216
  C   0.75260509142893      1.45533843713098     -1.16763153730513
  N   0.98688389494549      2.03775187271488     -2.16074762331716
  N   -0.91610157899560     -1.21512355109904      0.81748237553645
  H   -1.08403535829250     -2.17711928934112      0.56397454238828
  H   -1.70759648427958     -0.86660983919053      1.33837392678979
