12
Coordinates from ORCA-job run
  C   0.63663017898841      0.46040715707092      0.08646485667296
  C   -0.36495018329231     -0.70910414245851      0.21936672646547
  Cl  0.40220276229170      1.58880534037456      1.46195262810528
  H   -0.14866733593709     -1.40132135220677     -0.59934406549276
  H   -0.13319768619277     -1.21622443324927      1.16441247968498
  C   2.00755207493857     -0.05220981679567      0.13090524572495
  N   3.08256256009230     -0.52475316353537      0.17061515638767
  C   0.40926767748600      1.18208392675360     -1.16592947846182
  N   0.24497232630604      1.72683098935872     -2.19335630540285
  N   -1.71198855023326     -0.20589219826119      0.09975515181711
  H   -2.31225053762370     -0.86351182957023     -0.37483627327055
  H   -2.11113328682392      0.01688952251923      0.99999387776956
