12
Coordinates from ORCA-job run
  C   0.50538739217151      0.60695585926869     -0.01102442523826
  C   -0.74226943252813     -0.27578113339940     -0.24085591079043
  Cl  0.20521629589373      1.68651451843903      1.39115141299028
  H   -0.54419487078231     -0.87132065323709     -1.13659012032724
  H   -1.57306829552721      0.40597054885395     -0.46201995525644
  C   1.67289442980448     -0.22813326350574      0.27232436070216
  N   2.61144901123678     -0.90991656965045      0.45591516733175
  C   0.75279439894849      1.43504937230726     -1.19298828132441
  N   0.89940792411909      2.06903521123840     -2.17128619146772
  N   -0.93643474491111     -1.14181688188709      0.89643242807161
  H   -1.29343338769551     -2.04385611044043      0.61933518715701
  H   -1.55874872072982     -0.73370089798712      1.57860632815169
