12
Coordinates from ORCA-job run
  C   0.61464618893728      0.47046431274363      0.15700380260325
  C   -0.34436770239056     -0.74120907151804      0.13059070680176
  Cl  0.28983622406000      1.43858976614804      1.63323469480991
  H   -0.07358782710862     -1.33630381261151     -0.74620771870485
  H   -0.12454464256471     -1.33532824891814      1.02653246511230
  C   2.00228149754433      0.00506775891076      0.20021434605819
  N   3.09262569943755     -0.43163043513095      0.23206448229898
  C   0.40190642603607      1.31221901914605     -1.02064249462401
  N   0.25233343229175      1.95744752903274     -1.99055284422092
  N   -1.70508687285214     -0.27685703907403      0.01240705296321
  H   -2.14298001488997     -0.16053789962936      0.91456236622007
  H   -2.26306240850099     -0.90192187909918     -0.54920685931789
