12
Coordinates from ORCA-job run
  C   0.63626841986432      0.45199736933119      0.12836241756058
  C   -0.36653765657072     -0.72415610522491      0.15571825940302
  Cl  0.39189875098088      1.46121309176441      1.59203553905174
  H   -0.14362303694156     -1.34545762854534     -0.71626544700740
  H   -0.14106025490668     -1.30824318653617      1.05673719304076
  C   2.00598740824595     -0.06534173862904      0.14116599034034
  N   3.07850696440615     -0.54517335012548      0.15330327167324
  C   0.41832562025942      1.27627353976042     -1.06056934739106
  N   0.26105893165455      1.90717386386733     -2.03862663122284
  N   -1.71268641107881     -0.21278912694452      0.06943899335900
  H   -2.11881992284983     -0.06673545610219      0.98208431715312
  H   -2.30931881306367     -0.82676127261572     -0.46438455596047
