12
Coordinates from ORCA-job run
  C   0.63232557616915      0.30248403119005     -0.36492548985239
  C   -0.34645727726386     -0.68350280731936      0.31225247349208
  Cl  0.43131243487389      0.19387549613771     -2.14507259678141
  H   -0.14800934815309     -0.63362716441798      1.38660553337700
  H   -0.07428063879238     -1.68698397462323     -0.03817429095299
  C   0.34913689326353      1.67251065573546      0.06379035473057
  N   0.14089537666694      2.76281309516199      0.44751057078928
  C   2.01141981115485     -0.05610809431155     -0.02786313316751
  N   3.09403041421972     -0.39234683789498      0.28103555138333
  N   -1.70410102675364     -0.27878908240061      0.03962598474878
  H   -2.07613928660759     -0.73743457528310     -0.77920225686958
  H   -2.31013292877752     -0.46089074197439      0.82541729910284
