12
Coordinates from ORCA-job run
  C   0.70314238927014      0.48449802090453      0.24766871735699
  C   -0.50125258138519     -0.40351809770857      0.65097215737224
  Cl  1.57540647993901      0.99573556597710      1.72813074780128
  H   -0.09813157227143     -1.24448427703082      1.22257628320018
  H   -1.12413967801690      0.19334785294825      1.32303871568625
  C   1.61128395233320     -0.28281202785845     -0.60487931373556
  N   2.32334908340169     -0.94724547443342     -1.26160955175099
  C   0.22042624743699      1.67025028060313     -0.46027723947063
  N   -0.21608820397514      2.61952021123222     -0.99699554189144
  N   -1.19110964954157     -0.80738452525877     -0.54837755704102
  H   -1.16116192867973     -1.80189572496076     -0.70807105924515
  H   -2.14172453851107     -0.47601180441445     -0.59117635828216
