12
Coordinates from ORCA-job run
  C   0.53456513206215      0.57992615475343      0.04563701082442
  C   -0.77381281995824     -0.20055489377335     -0.21305156158168
  Cl  0.41678393372320      1.40596184165802      1.63468649647047
  H   -1.58335596847446      0.53992318525632     -0.23397586450718
  H   -0.68649523143197     -0.63610000032179     -1.21255399528100
  C   1.67547566682086     -0.33598615092957      0.06887191862742
  N   2.58824306525729     -1.07459221377496      0.04384012276164
  C   0.72246159349252      1.59372297830692     -0.99422157818021
  N   0.81674408521424      2.38507667878050     -1.85756937469221
  N   -0.91518018350080     -1.24547138218941      0.77179674840746
  H   -1.34114952180489     -2.07112901252996      0.37845154514595
  H   -1.45427975139991     -0.94077718523615      1.56908853200491
