12
Coordinates from ORCA-job run
  C   0.70446922471787      0.43933848276788      0.31859095451244
  C   -0.53517068293383     -0.45011997439062      0.59008074123657
  Cl  1.52739518317680      0.78710893481024      1.87292685037515
  H   -1.16907212973511      0.09546319688206      1.29484185810749
  H   -0.17408452130106     -1.35315020302447      1.09035444344120
  C   1.62871207928966     -0.26890598022767     -0.56710261604910
  N   2.35104082426000     -0.88877512923657     -1.25538531853962
  C   0.27796968918918      1.69826324205284     -0.29234707334706
  N   -0.11475799751222      2.70412623337856     -0.75488700431790
  N   -1.18580280487600     -0.72027289097122     -0.66756746865184
  H   -2.11850147727369     -0.34254308894476     -0.72125693477776
  H   -1.19219738700161     -1.69853282309627     -0.90924843198959
