12
Coordinates from ORCA-job run
  C   0.63095102384132      0.58322846891234      0.22768966652205
  C   -0.57412458952203     -0.29558740504485      0.64811780365615
  Cl  1.23413975289814      1.47462435886036      1.66151727227455
  H   -0.22133308387208     -0.95802085952094      1.44362477082826
  H   -1.32307595979112      0.37666219931455      1.07632706660508
  C   1.69957080983600     -0.26963188777832     -0.29275890819219
  N   2.54030421741369     -0.99612209927569     -0.67370237653051
  C   0.20375723771243      1.54305969973256     -0.79032936031052
  N   -0.19366087548347      2.31394037502859     -1.58259007355577
  N   -1.04692662802064     -1.00565567223702     -0.51394297050631
  H   -1.98848045212418     -0.75829361749418     -0.77430951443512
  H   -0.96112145288805     -2.00620356049740     -0.42964337635566
