12
Coordinates from ORCA-job run
  C   0.36351376647112      0.65046542731294     -0.05213328644592
  C   -0.77472136329888     -0.38876896029861     -0.32245800485130
  Cl  -0.15635507114757      1.76502538297978      1.25448459218859
  H   -0.46502413127435     -0.96758725984389     -1.19746957747333
  H   -1.65977764178527      0.19153527867537     -0.59473173777166
  C   1.56930936307685     -0.05313402185108      0.38232910738593
  N   2.49270945230200     -0.69084875841719      0.73065237099400
  C   0.62754558847638      1.42691107693493     -1.26139783813849
  N   0.78946323530516      2.01373449352180     -2.26678227453577
  N   -1.08458420155985     -1.27793187486946      0.75565777690830
  H   -0.30906677887178     -1.88320694995394      0.99004898396262
  H   -1.39201221769381     -0.78419383419064      1.58179988777703
