12
Coordinates from ORCA-job run
  C   0.41075911808361      0.62291355386831     -0.02648284263669
  C   -0.82266976242383     -0.30141914600935     -0.29609633748725
  Cl  0.07117443849216      1.65583239887068      1.40033070244341
  H   -1.67431284690008      0.36396524454404     -0.45865881225636
  H   -0.61790209752206     -0.82691374589396     -1.23354821220439
  C   1.58220411730432     -0.20417647723249      0.25939058995636
  N   2.47081595884242     -0.93798120769028      0.48916026332428
  C   0.65562119341834      1.47910731095178     -1.18498793982624
  N   0.79166959880468      2.14097451742109     -2.14659945288678
  N   -1.13203683161790     -1.25221076702588      0.72847189964036
  H   -1.34366067094731     -0.80800362820135      1.61098583502091
  H   -0.39466221553434     -1.93208805360260      0.85803430691240
