12
Coordinates from ORCA-job run
  C   0.68217321113244      0.34499543028261     -0.26501795096218
  C   -0.35155954799623     -0.72694695818849      0.17125372255208
  Cl  0.76010085865337      0.39186263547592     -2.05258207175329
  H   -0.28287648356718     -0.80296545111508      1.26142593204036
  H   -0.01044678824176     -1.67545231563658     -0.25460384519159
  C   0.26983643609246      1.65754048210331      0.23275488328847
  N   -0.08033242960791      2.68717405498243      0.67644874579437
  C   2.00587826185518      0.00074613298794      0.25741407122443
  N   3.03907554450458     -0.33094601863472      0.70806249566523
  N   -1.66773967142897     -0.34209961676102     -0.26732617694877
  H   -2.31770113802751     -0.24226790790222      0.49590765552012
  H   -2.04640825336848     -0.96264046759412     -0.96473746122923
