12
Coordinates from ORCA-job run
  C   0.59228086219441      0.41958060218908      0.17403210974444
  C   -0.33026620744698     -0.84390188723583      0.18841747131892
  Cl  0.25571531802827      1.41096452215084      1.63063695422593
  H   -0.01146562959929     -1.47075152585585     -0.64961020563215
  H   -0.10600973593026     -1.37667455441341      1.11593283942676
  C   1.99609573575698      0.01401972884970      0.18813442027701
  N   3.10306082463660     -0.38062525075273      0.19508670208069
  C   0.30176512737476      1.21792257861318     -1.01623925798308
  N   0.00806877781979      1.80468120081373     -1.99111396837349
  N   -1.73721009655412     -0.59619929453549      0.09332510908205
  H   -2.07844242389643     -0.03133992963633      0.85851840811053
  H   -1.99359255238373     -0.16767619018689     -0.78612058227761
