12
Coordinates from ORCA-job run
  C   0.63679881439015      0.47766492771444      0.30108695382329
  C   -0.52435916688600     -0.48100600828953      0.71570348692256
  Cl  1.49760770475480      1.02808913441993      1.77039848698434
  H   -0.06752443359693     -1.30105997138792      1.27528539846170
  H   -1.16394158704677      0.08062908107179      1.40107981289502
  C   1.56755020618267     -0.23778635376845     -0.57176740070201
  N   2.26318544657799     -0.87889835482111     -1.26897413458651
  C   0.08331349790949      1.63427624122278     -0.40294446219338
  N   -0.43700704176991      2.52714838745263     -0.96252871075819
  N   -1.30196371225971     -0.99850044669531     -0.37047487614791
  H   -0.76279572606762     -1.57261030477172     -1.00356187054969
  H   -1.79086400218815     -0.27794633214754     -0.88330268414923
