12
Coordinates from ORCA-job run
  C   0.65739726082924      0.42762989506370      0.33095834434610
  C   -0.50876397017932     -0.55318767332909      0.67344406516105
  Cl  1.58329651449918      0.78291060305836      1.82070364934883
  H   -0.05060065261290     -1.44187462409524      1.11453169428587
  H   -1.11077639459208     -0.06552402614170      1.44421131587319
  C   1.54005374489987     -0.19366250929030     -0.65629692896087
  N   2.19573697197236     -0.75768302163045     -1.45194159943160
  C   0.10343677566754      1.66954437914013     -0.20832328007433
  N   -0.41807095636721      2.63183755937845     -0.63617043723726
  N   -1.33542830157804     -0.92491281739023     -0.43591987888841
  H   -0.83140256390449     -1.43150367767282     -1.15042986656945
  H   -1.82487842863415     -0.14057408709082     -0.84376707785313
