12
Coordinates from ORCA-job run
  C   0.62602664970576      0.22425379099009     -0.33964074488558
  C   -0.33356674030471     -0.76025695021787      0.40726861541273
  Cl  0.52697135462092     -0.08268011813994     -2.10428976959735
  H   -0.15606906502790     -0.61532044485881      1.47701878665407
  H   -0.00538470546156     -1.76833252274157      0.14172108727933
  C   0.20821995847996      1.60065630043216     -0.07683568694344
  N   -0.19335863602294      2.67477278357963      0.17982192393775
  C   2.00228542203314      0.01211360729771      0.10320593575489
  N   3.08435460378405     -0.21039435227036      0.50444425395036
  N   -1.72991435385316     -0.61035442189736      0.12863883150866
  H   -2.08723330566687      0.28747874148595      0.42694560505026
  H   -1.94133118228668     -0.75193641365963     -0.84929883812170
