12
Coordinates from ORCA-job run
  C   0.64077992706873      0.28048815516895     -0.26147401765580
  C   -0.34365025464153     -0.81934844980209      0.25696685039424
  Cl  0.64663135683169      0.26705894445310     -2.05530035963202
  H   -0.22893680197255     -0.85148723759216      1.34448875856751
  H   0.01451984676324     -1.76801967554431     -0.15072184576347
  C   0.18677015015420      1.59232484470496      0.19808959081100
  N   -0.24789178197905      2.60657331740518      0.60214227617745
  C   1.99311698739393      0.00802891035086      0.22044729603251
  N   3.05393560037905     -0.26975572087783      0.64320225987126
  N   -1.72438878257609     -0.63402797372215     -0.07377921306388
  H   -2.11173248458991      0.20001321532919      0.34717945499926
  H   -1.87815376283172     -0.61284832987371     -1.07224105073806
