12
Coordinates from ORCA-job run
  C   0.68748768341470      0.47857097954517      0.29781826817937
  C   -0.52401258621295     -0.43554736113523      0.61106415905662
  Cl  1.48863332281046      0.93649540878626      1.83478541626762
  H   -1.18009638225921      0.12600654774049      1.28216645723478
  H   -0.13688689420047     -1.29785886435058      1.16124171973826
  C   1.64014934845069     -0.24467828808302     -0.54456626386245
  N   2.38741494741996     -0.87467878315303     -1.19610542692401
  C   0.22375874384014      1.68812723373024     -0.38200926781047
  N   -0.19856106586942      2.65488082904865     -0.89856125178867
  N   -1.15708613321298     -0.79443807916437     -0.63333626213223
  H   -1.12915605510242     -1.78388137622030     -0.82212158805322
  H   -2.10164492907849     -0.45199824674427     -0.71137595990559
