18

C	0.0	0.0	0.0
C	-0.402392	0.244157	-1.462044
F	1.401706	0.0	0.0
H	0.05341	1.213487	-1.723805
C	-0.378713	1.164622	0.824578
N	-0.611853	2.103325	1.490134
C	-0.527253	-1.28399	0.59324
H	-0.280133	-2.103988	-0.079908
H	-0.068226	-1.44755	1.570492
H	-1.611974	-1.219197	0.714288
C	-1.903164	0.324137	-1.652395
H	-2.123834	0.621009	-2.682727
H	-2.389536	-0.631312	-1.460784
H	-2.387369	1.040467	-0.989038
N	0.155973	-0.853898	-2.253562
H	-0.300429	-0.86917	-3.157049
H	1.146193	-0.704223	-2.39954
Br	-5.012489	0.0	0.0
