18

C	0.0	0.0	0.0
C	-0.368698	0.342584	-1.476334
F	1.395734	0.0	0.0
H	0.31471	-0.31693	-2.031312
C	-0.398721	1.063683	0.939909
N	-0.636559	1.932276	1.693725
C	-0.521285	-1.343178	0.453681
H	-0.254427	-2.102837	-0.286213
H	-0.073997	-1.609233	1.413906
H	-1.609336	-1.301682	0.55907
C	-0.015566	1.791795	-1.784485
H	0.974027	2.05588	-1.407248
H	-0.046506	1.948405	-2.863697
H	-0.751657	2.457382	-1.325278
N	-1.70982	0.070993	-1.924109
H	-1.970523	-0.894975	-1.770862
H	-2.408492	0.598262	-1.40218
Br	-4.452376	0.0	0.0
