18

C	-0.53496	0.155716	-1.443362
C	0.0	0.0	0.0
Br	0.237171	1.738233	-2.273923
H	1.096065	0.0	0.0
N	-0.031921	-1.032599	-2.279013
O	0.771428	-1.804278	-1.771588
O	-0.491888	-1.127203	-3.413767
C	-2.042737	0.197737	-1.601608
H	-2.486099	-0.724236	-1.213572
H	-2.293495	0.282968	-2.65663
H	-2.452774	1.042346	-1.052959
N	-0.450137	-1.152621	0.713244
H	-1.410757	-1.405077	0.536599
H	0.181239	-1.91855	0.531954
N	-0.476555	1.209263	0.774422
O	-1.642527	1.169013	1.180722
O	0.301784	2.136408	0.958289
Cl	3.334423	0.0	0.0
