18

C	-0.522299	-0.020847	-1.440829
C	0.0	0.0	0.0
Br	-2.461126	0.229522	-1.440787
H	1.092846	0.0	0.0
N	0.128057	1.077055	-2.297359
O	-0.558606	1.958259	-2.795009
O	1.331871	0.91938	-2.445052
C	-0.176227	-1.33931	-2.10328
H	-0.713462	-2.140127	-1.602205
H	0.899466	-1.495698	-1.99713
H	-0.447903	-1.306813	-3.161004
N	-0.461342	-1.125836	0.732209
H	0.229889	-1.359277	1.433207
H	-1.339606	-0.917623	1.189777
N	-0.381935	1.325587	0.645951
O	-0.055979	2.341246	0.041399
O	-0.971881	1.297782	1.724925
Cl	3.263163	0.0	0.0
