18

C	-0.426647	-0.04458	-1.467189
C	0.0	0.0	0.0
Br	-2.319038	-0.499905	-1.684392
H	1.09002	0.0	0.0
N	-0.166077	1.290046	-2.161571
O	-0.79339	1.544357	-3.182317
O	0.750937	1.949559	-1.68995
C	0.426392	-1.059266	-2.208852
H	1.477826	-0.79261	-2.056416
H	0.256499	-2.054394	-1.798673
H	0.168183	-1.057422	-3.268994
N	-0.391938	-1.139144	0.768343
H	0.402206	-1.734121	0.949922
H	-1.176636	-1.644519	0.38701
N	-0.507817	1.240991	0.701009
O	-0.0523	1.445795	1.817394
O	-1.359513	1.932394	0.138341
Cl	3.277719	0.0	0.0
