16

C	-0.403957	-0.012674	-1.467815
C	0.0	0.0	0.0
Cl	-0.027326	1.485655	-2.323599
H	1.101889	0.0	0.0
H	0.102178	-0.821268	-1.992021
N	-1.871511	-0.312415	-1.62414
O	-2.155757	-1.403333	-2.112242
O	-2.675763	0.526179	-1.232181
N	-0.514159	-1.266219	0.555816
H	0.143766	-2.000475	0.308914
H	-0.473343	-1.193168	1.566407
C	-0.521676	1.166001	0.815533
H	-0.268988	2.12026	0.354615
H	-0.036943	1.136997	1.795404
H	-1.604064	1.104849	0.944397
Br	3.566779	0.0	0.0
