12

C	0.0	0.0	0.0
C	-0.448722	-0.136292	-1.440657
F	1.390223	0.0	0.0
H	-1.544472	-0.077762	-1.34861
H	-0.376635	-0.828862	0.594782
H	-0.145007	-1.142667	-1.775846
C	-0.45049	1.262966	0.61205
N	-0.603095	2.284035	1.170435
N	0.126083	0.942774	-2.244316
H	-0.437147	1.077428	-3.071416
H	1.064245	0.708163	-2.535205
F	-2.605361	0.0	0.0
