12

C	0.0	0.0	0.0
C	-0.402028	-0.488553	-1.431671
F	1.383726	0.0	0.0
H	0.553737	-0.58323	-1.963764
H	-0.379326	-0.648577	0.783236
H	-0.841179	-1.480368	-1.317148
C	-0.433095	1.3823	0.255945
N	-0.565086	2.532377	0.454032
N	-1.330012	0.30634	-2.21317
H	-0.949554	1.243175	-2.311122
H	-2.122637	0.36119	-1.543123
F	-2.527194	0.0	0.0
