12

C	0.0	0.0	0.0
C	-0.458225	-0.211592	-1.455541
F	1.378929	0.0	0.0
H	0.462923	-0.374711	-2.03426
H	-0.36172	-0.800479	0.640528
H	-1.071045	-1.117209	-1.467844
C	-0.420451	1.285112	0.588812
N	-0.510496	2.329988	1.11618
N	-1.17999	0.95363	-1.958434
H	-1.468404	0.743816	-2.908001
H	-2.015449	0.893256	-1.347619
F	-2.544621	0.0	0.0
