13

C	-0.533091	0.026867	-1.432636
C	0.0	0.0	0.0
Cl	-0.044115	-1.499496	-2.243989
H	1.092793	0.0	0.0
H	-0.025008	0.823382	-1.981493
H	-0.34033	-0.909662	0.504502
C	-2.041444	0.174524	-1.531084
H	-2.358162	1.120597	-1.082992
H	-2.363354	0.1532	-2.573788
H	-2.534006	-0.646339	-1.002102
C	-0.486588	1.161591	0.738932
N	-0.897608	2.110578	1.295555
Cl	3.396309	0.0	0.0
