17

C	-0.457904	-0.168233	-1.455457
C	0.0	0.0	0.0
Br	-2.382137	-0.528529	-1.54909
H	1.105385	0.0	0.0
N	-0.199208	1.171337	-2.14982
O	0.963293	1.337773	-2.500456
O	-1.111091	1.97632	-2.27256
C	0.31424	-1.264115	-2.155534
H	0.055914	-1.303276	-3.215385
H	1.380318	-1.063909	-2.027917
H	0.071958	-2.222903	-1.695266
C	-0.404152	-1.184267	0.774865
N	-0.745889	-2.088346	1.444286
N	-0.438339	1.256601	0.570786
H	-1.357203	1.181679	0.988086
H	0.232953	1.543966	1.271126
Cl	3.264533	0.0	0.0
