17

C	-0.325622	-0.047728	-1.507065
C	0.0	0.0	0.0
Br	-0.007694	-1.834774	-2.216443
H	1.098561	0.0	0.0
N	-1.806357	0.221759	-1.766114
O	-2.128535	0.583191	-2.894772
O	-2.585021	0.066632	-0.825889
C	0.50799	0.952547	-2.276033
H	1.55709	0.771055	-2.031559
H	0.237909	1.963512	-1.962411
H	0.336647	0.860456	-3.345968
C	-0.518783	-1.14727	0.749295
N	-0.926255	-2.040878	1.393072
N	-0.374169	1.236589	0.658518
H	0.323467	1.94737	0.49439
H	-1.303974	1.553581	0.428445
Cl	3.292529	0.0	0.0
