17

C	-0.561144	0.020631	-1.434413
C	0.0	0.0	0.0
Br	0.235771	1.519502	-2.380085
H	1.094672	0.0	0.0
N	-0.142124	-1.233251	-2.1932
O	-0.62009	-1.381946	-3.31603
O	0.617445	-2.011242	-1.626685
C	-2.068956	0.120261	-1.489786
H	-2.509259	-0.774179	-1.037956
H	-2.406033	0.202458	-2.521171
H	-2.368131	1.000966	-0.922615
C	-0.513428	-1.176418	0.703418
N	-1.008588	-2.056974	1.303968
N	-0.436623	1.230406	0.685793
H	0.403908	1.731725	0.950547
H	-0.941854	1.00382	1.532386
Cl	3.27573	0.0	0.0
