14

C	-0.509571	0.239472	-1.508943
C	0.034801	-0.036119	-0.117243
Br	0.049138	1.957633	-2.180811
H	1.130088	-0.113048	-0.167187
H	-0.178847	-0.505938	-2.232592
N	-2.021015	0.191908	-1.590596
O	-2.66697	0.462821	-0.584281
O	-2.494912	-0.122379	-2.681415
C	-0.462011	-1.363796	0.275432
N	-0.867938	-2.426163	0.576227
N	-0.160625	1.012535	0.843659
H	0.766758	1.044505	1.322067
H	-0.913413	0.803244	1.484074
H	2.391799	0.423197	1.038501
