14

C	-0.375835	-0.072651	-1.518774
C	0.013139	-0.104281	-0.04298
Br	0.301686	1.478948	-2.441447
H	1.115248	-0.099054	-0.013855
H	-0.015367	-0.954674	-2.045677
N	-1.873225	-0.109391	-1.693425
O	-2.338847	-1.142884	-2.173904
O	-2.528872	0.853934	-1.305568
C	-0.509004	-1.359466	0.504818
N	-0.897509	-2.387448	0.9261
N	-0.31019	1.032994	0.776284
H	-1.033839	1.604958	0.363191
H	0.588825	1.537309	0.833742
H	2.364016	0.864082	0.350083
