14

C	-0.671307	-0.096682	-1.413574
C	0.00743	-0.170759	-0.040917
Br	-0.38887	-1.66798	-2.521093
H	1.088305	-0.261064	-0.203313
H	-1.747357	0.039656	-1.325139
N	-0.169292	1.117892	-2.146035
O	0.956845	1.09011	-2.615275
O	-0.952063	2.069896	-2.167373
C	-0.496949	-1.379758	0.640436
N	-0.924617	-2.315633	1.209337
N	-0.178907	1.01119	0.746287
H	-0.965	1.564709	0.420065
H	0.791736	1.540592	0.61054
H	2.073374	1.762704	0.278097
