17
Coordinates from ORCA-job run
  C   0.87618708484379     -0.26247109553401     -0.21671411721402
  C   -0.58593208214618      0.20464346034993     -0.31784942915221
  H   1.06992196368106     -1.06014635716918     -0.93526973811454
  H   -0.69946712463841      0.72061110445979     -1.28462497547617
  N   1.29224776511281     -0.60347677304894      1.09652288874822
  H   1.47313109195776     -1.58726403347319      1.20900264890645
  H   0.63449182294438     -0.25166051002907      1.78036984019035
  N   1.73108972029936      0.88523715022611     -0.74094416515505
  O   1.80829886424646      1.89113267507963     -0.04017076548776
  O   2.24665836257095      0.74385851660264     -1.84803114163728
  N   -0.88546369853302      1.05354527070455      0.83113918598556
  H   -0.35393367900036      1.91492767937146      0.78203010247225
  H   -1.87096790848812      1.28427825713320      0.84174871165856
  C   -1.50606184775677     -1.00650305537577     -0.29492088126232
  H   -1.31535950105207     -1.66239054077828     -1.14740222620277
  H   -2.55260991371129     -0.69350438984857     -0.34183354995756
  H   -1.36323092033037     -1.56881735867029      0.62994761169830
