15
Coordinates from ORCA-job run
  C   -0.63650023508761     -0.52267520215764     -0.09217123166912
  C   0.88267112845880     -0.37461843869142     -0.31638105143219
  H   -1.06163924576868     -0.81707648564066     -1.05762671376021
  H   1.29764869739023     -1.29996412412469     -0.72494637558117
  C   -1.28062544247938      0.77827292644830      0.39161011257919
  H   -1.15538704449407      1.56706438422141     -0.35254613824774
  H   -0.83671586233838      1.10615451539278      1.33330158094505
  H   -2.34922373279479      0.62506699638065      0.54724120062422
  C   -0.85605631234627     -1.61541421116128      0.85627045244609
  N   -1.03296653356808     -2.48449466857230      1.62611550113632
  C   1.59110306306812      0.01244644516185      0.89616628249075
  N   2.13650308468416      0.28629329862064      1.89961005511223
  N   1.07272792429728      0.66693414919707     -1.40252387170777
  O   1.59315441376585      1.73404113117522     -1.10483068277326
  O   0.63730609721280      0.33796928375007     -2.50028912016240
