15
Coordinates from ORCA-job run
  C   -0.48786330426872     -0.17948476825276      0.43939781323359
  C   0.72514425922696      0.24520330690304     -0.40583208909276
  H   -0.21811091032889     -1.11200289973540      0.94578899752694
  H   0.56572849092523      1.22212511579246     -0.86755564802032
  C   -1.72994757331682     -0.38655401794435     -0.43205720497369
  H   -1.98158546019180      0.52781734297551     -0.97325771067501
  H   -1.55934767636124     -1.19070948684529     -1.14958076304524
  H   -2.58015475293877     -0.65756267850894      0.19496896348714
  C   -0.72512541458996      0.84460988700491      1.45959480789264
  N   -0.92958158318053      1.67908418943008      2.26035532402888
  C   1.03845691833678     -0.75927680414010     -1.41625620796706
  N   1.25798889135185     -1.57196345851066     -2.23527792916000
  N   1.92578115028406      0.40806909573214      0.50394175125254
  O   2.43931379521417      1.51953548409524      0.53955526600475
  O   2.25730316983768     -0.58689030799588      1.13721462950760
