15
Coordinates from ORCA-job run
  C   -0.65936077830063     -0.48726684157535      0.11959526748766
  C   0.83846482438772     -0.50305775458625     -0.25004166108142
  H   -1.17669811828564     -1.03281715668783     -0.67679872295016
  H   1.18406947121121     -1.53157986266125     -0.38444917962871
  C   -1.21492825402374      0.93412214979465      0.22985310736819
  H   -0.68046194285852      1.50357310992323      0.99234138850112
  H   -2.27070470874488      0.89725692461808      0.50125616497376
  H   -1.12814455221133      1.45380798885907     -0.72622029575137
  C   -0.83141912518943     -1.23015411646267      1.36859464321570
  N   -0.96895567994219     -1.81703038849681      2.37651269932361
  C   1.66325360845358      0.19135467989041      0.72936902919916
  N   2.30392027735806      0.72627625180405      1.55563660585042
  N   0.96713808036758      0.14709723540995     -1.61440700658138
  O   1.54495797266770      1.22288255791910     -1.69742760910266
  O   0.42886892511051     -0.47446477774841     -2.52381443082393
