15
Coordinates from ORCA-job run
  C   -0.58086992619962     -0.54226791077379      0.13340779237235
  C   0.74173673219022     -0.26119195478415     -0.60893666140830
  H   -0.90257285643324     -1.53384566812276     -0.20760487558025
  H   0.55731029192116     -0.26588187207125     -1.68538359882656
  C   -1.66200101927650      0.48888715180313     -0.20562919423182
  H   -1.40968637769329      1.47172641409010      0.19358336562317
  H   -2.61189992033807      0.17709901538869      0.23044050700724
  H   -1.78218408734284      0.57325683782182     -1.28748726410229
  C   -0.36853842558876     -0.62595705852947      1.58058538664715
  N   -0.25152157779603     -0.68864404633490      2.74738962841021
  C   1.78592178403450     -1.21747491602690     -0.26394398195770
  N   2.60083015989377     -2.02493850761960     -0.01262167097617
  N   1.20191798786058      1.14167392784119     -0.28644516704249
  O   1.78934714161648      1.30427142178449      0.77607814070558
  O   0.89121009315161      2.00328716553343     -1.10343240664013
