18

C	-0.575192	-0.014224	-1.427987
C	0.0	0.0	0.0
Br	0.385507	1.250225	-2.547751
H	1.095761	0.0	0.0
N	-0.316276	-1.416838	-1.977381
O	-1.287802	-2.176008	-1.991162
O	0.826526	-1.715571	-2.286079
C	-2.057751	0.292067	-1.513887
H	-2.625528	-0.370772	-0.860638
H	-2.411039	0.159812	-2.536822
H	-2.221772	1.325833	-1.211042
C	-0.419991	-1.225964	0.82513
H	-1.502696	-1.361245	0.876331
H	-0.028873	-1.10071	1.835899
H	0.0412	-2.122764	0.409029
C	-0.450853	1.22282	0.65974
N	-0.846168	2.179353	1.216733
Cl	3.294977	0.0	0.0
