18

C	-0.382151	-0.138128	-1.475947
C	0.0	0.0	0.0
Br	-2.322196	-0.360458	-1.722517
H	1.104863	0.0	0.0
N	-0.01053	1.172826	-2.1868
O	1.02371	1.154869	-2.847816
O	-0.732678	2.145492	-2.007222
C	0.347124	-1.285461	-2.141003
H	0.196457	-1.256029	-3.22051
H	-0.037932	-2.231072	-1.761862
H	1.412217	-1.19837	-1.911375
C	-0.391261	-1.218017	0.846372
H	-1.473196	-1.354406	0.892911
H	0.08155	-2.118282	0.453412
H	-0.005661	-1.06398	1.855375
C	-0.519622	1.206678	0.632752
N	-0.945973	2.122735	1.233591
Cl	3.260494	0.0	0.0
