16

C	0.0	0.0	0.0
C	-0.453803	0.178608	-1.438819
Br	2.042571	0.0	0.0
H	-1.536316	0.01084	-1.39144
H	0.005368	-0.614578	-2.032468
N	-0.423388	1.082656	0.806847
H	-0.275687	0.903891	1.790736
H	0.003483	1.960392	0.54652
N	-0.434598	-1.276276	0.476919
H	-1.4593	-1.233255	0.433334
H	-0.164677	-1.392723	1.448345
C	-0.190602	1.552372	-2.037962
H	-0.796232	2.309584	-1.534674
H	-0.48192	1.559085	-3.091412
H	0.865687	1.829553	-1.977471
Cl	-3.765424	0.0	0.0
