16

C	0.0	0.0	0.0
C	-0.414774	-0.140043	-1.463204
Br	2.057208	0.0	0.0
H	-1.499752	0.020341	-1.432836
H	0.047483	0.667797	-2.041403
N	-0.451832	1.214306	0.514457
H	-0.217096	1.335439	1.487598
H	-0.23123	2.017773	-0.05132
N	-0.43025	-1.025791	0.899103
H	-1.45479	-0.964986	0.893148
H	-0.142448	-1.935246	0.562025
C	-0.10347	-1.488668	-2.094574
H	-0.693816	-2.278423	-1.62535
H	-0.373603	-1.476089	-3.153506
H	0.956587	-1.740101	-2.015631
Cl	-3.759307	0.0	0.0
