16

C	0.0	0.0	0.0
C	-0.23985	-0.159316	-1.524884
Br	1.972727	0.0	0.0
H	0.26931	-1.085759	-1.802524
H	0.309067	0.662174	-1.990936
N	-0.471083	1.289439	0.447234
H	-1.488458	1.259591	0.335854
H	-0.288044	1.384885	1.441816
N	-0.464554	-1.172195	0.704766
H	-0.316805	-1.040174	1.70053
H	-1.477601	-1.188707	0.561061
C	-1.652103	-0.183272	-2.093632
H	-2.209329	0.729326	-1.898342
H	-1.554988	-0.302831	-3.179632
H	-2.2603	-0.999204	-1.713321
Cl	-4.049698	0.0	0.0
