16

C	0.0	0.0	0.0
C	-0.21133	0.231166	-1.525438
Br	1.994846	0.0	0.0
H	0.278358	1.180754	-1.760292
H	0.370413	-0.547957	-2.028041
N	-0.514542	1.092301	0.75922
H	-0.473005	0.834164	1.740074
H	-1.506262	1.169818	0.520138
N	-0.444732	-1.263743	0.524673
H	-1.464774	-1.217886	0.563354
H	-0.175098	-2.02211	-0.092343
C	-1.618764	0.226874	-2.102633
H	-2.233939	1.048306	-1.744131
H	-2.168326	-0.679893	-1.862643
H	-1.531493	0.308208	-3.191913
Cl	-4.013368	0.0	0.0
