16

C	0.0	0.0	0.0
C	-0.207503	-0.188211	-1.531698
Br	1.994727	0.0	0.0
H	0.378772	0.600928	-2.012954
H	0.278016	-1.133792	-1.78788
N	-0.445975	1.247273	0.562733
H	-0.155313	2.028023	-0.017018
H	-1.467604	1.20786	0.574537
N	-0.517605	-1.114477	0.723893
H	-1.509845	-1.177804	0.482874
H	-0.471659	-0.886013	1.712254
C	-1.61233	-0.161053	-2.114269
H	-2.154824	0.745322	-1.854497
H	-1.525582	-0.217265	-3.204707
H	-2.236159	-0.984956	-1.778094
Cl	-3.984766	0.0	0.0
