11

C	-0.488065	-0.070325	-1.433465
C	0.0	0.0	0.0
F	-0.124444	1.072856	-2.129131
H	1.093151	0.0	0.0
H	-1.579986	-0.13972	-1.514964
H	-0.301953	-0.918921	0.516665
C	0.093027	-1.24028	-2.121012
N	0.528088	-2.171208	-2.686291
C	-0.59193	1.13774	0.674633
N	-1.073323	2.059346	1.223596
F	2.533372	0.0	0.0
