11

C	-0.457533	-0.044537	-1.447791
C	0.0	0.0	0.0
F	-0.116272	1.151516	-2.066521
H	1.092631	0.0	0.0
H	-1.544281	-0.146538	-1.55361
H	-0.358431	0.940137	0.431333
C	0.166177	-1.152364	-2.196417
N	0.580605	-2.044364	-2.83599
C	-0.55944	-1.116009	0.734786
N	-1.019646	-2.023291	1.324737
F	2.536585	0.0	0.0
