17

C	-0.48442	0.047822	-1.442032
C	0.0	0.0	0.0
Br	-0.114964	1.816379	-2.252382
H	1.096157	0.0	0.0
H	-1.577194	-0.014634	-1.46656
C	0.18052	-1.001437	-2.317014
H	1.266062	-0.930768	-2.209349
H	-0.090546	-0.86884	-3.365943
H	-0.138757	-2.000997	-2.008954
C	-0.453361	-1.31113	0.639069
H	0.041727	-2.171959	0.188902
H	-1.540745	-1.425195	0.570589
H	-0.176387	-1.305126	1.697208
N	-0.585295	1.099348	0.780267
H	-0.21781	1.969295	0.407321
H	-0.195206	1.026215	1.715501
Br	3.699435	0.0	0.0
