17

C	-0.297988	-0.001279	-1.499227
C	0.0	0.0	0.0
Br	-2.260051	0.01078	-1.859149
H	1.099975	0.0	0.0
H	0.028941	-0.951576	-1.92814
C	0.348563	1.157785	-2.231965
H	1.423885	1.125624	-2.014854
H	0.191457	1.087304	-3.310974
H	-0.05714	2.111968	-1.88923
C	-0.49642	-1.248693	0.708529
H	-0.075821	-1.265793	1.71491
H	-1.588322	-1.253228	0.784804
H	-0.177793	-2.15321	0.182068
N	-0.435336	1.188112	0.725362
H	0.157238	1.971599	0.48542
H	-1.391673	1.41771	0.476213
Br	3.646827	0.0	0.0
