14
Coordinates from ORCA-job run
  C   0.96928297596527     -0.68616710593452     -0.01564816612169
  C   -0.31098793282516      0.07949849280683     -0.34441094061577
  F   1.04044414240151     -0.94316880414084      1.33590341496718
  H   -0.34149294027173      0.23939323478883     -1.42417606825723
  H   0.93284862543057     -1.64866503452108     -0.53727371264536
  C   2.17968002360788      0.03268757137769     -0.43734808614730
  N   3.15159568581797      0.58469501286018     -0.79529153612568
  N   -0.20781904601089      1.45899846343961      0.24524148173500
  O   0.20557660939208      2.34374702593433     -0.50194780123534
  O   -0.51598546711503      1.59014116724404      1.42620078747786
  C   -1.54550122725205     -0.63052410953174      0.17109126414088
  H   -2.43932557538574     -0.04988561193658     -0.06085776848172
  H   -1.63489509043375     -1.60711281159973     -0.31025444018781
  H   -1.48442078332091     -0.76463749078701      1.24877157149699
