14
Coordinates from ORCA-job run
  C   0.98126162290872     -0.71245067087542     -0.10841181600797
  C   -0.27420319365817      0.11942504499501     -0.33774570353863
  F   0.99378870905708     -1.27552969683398      1.14649896535630
  H   -0.32024603576707      0.38903237364404     -1.39602509040444
  H   0.95808104130046     -1.53484070121622     -0.83268710115081
  C   2.21109746451634      0.05945656283625     -0.33389756827689
  N   3.17825784377085      0.67611873331725     -0.58131751914727
  N   -0.21491445665616      1.43070022407997      0.39344260953816
  O   -0.93924846728963      2.31819609825535     -0.04738131019030
  O   0.49757449944514      1.49959646064130      1.39100803735869
  C   -1.53585797666895     -0.60778576614573      0.09862782477480
  H   -2.40995381230722      0.00032626534730     -0.13439411410329
  H   -1.50362378613452     -0.80296609171185      1.17050641678296
  H   -1.62101345251687     -1.56027883633328     -0.42822363099133
