14
Coordinates from ORCA-job run
  C   0.96869164763685     -0.41506293397555     -0.73512087616847
  C   -0.42659636148488      0.14092163775729     -0.44035112238608
  F   0.80286753093569     -1.69634017151277     -1.23105456772454
  H   -0.96973743793585      0.17204429188311     -1.39078239066565
  H   1.47718442570814      0.17856048069954     -1.49342484779365
  C   1.78876968661289     -0.46716693253902      0.48270685906837
  N   2.42537895657221     -0.50820391334497      1.46774297069110
  N   -0.28843100240714      1.58492220058888     -0.02443974159860
  O   -1.16986561675174      2.05493121223201      0.68406931681256
  O   0.67993158069522      2.20019263233285     -0.46919612721701
  C   -1.18295517769126     -0.65889670596802      0.59697549483617
  H   -2.19926428855665     -0.28414797427570      0.70068499644591
  H   -0.68981402494949     -0.59810391948120      1.56869412485299
  H   -1.21915991838399     -1.70264990439644      0.28249591084689
