14
Coordinates from ORCA-job run
  C   0.79148148573378     -0.00222933303856      0.34053387038933
  C   -0.25663295815123      0.85009498971107     -0.37368162264534
  Br  2.41972705540511      1.19678437352885      0.61537170563295
  H   0.16218496284492      1.13138382466237     -1.34600244999614
  H   -0.38933689785387      1.77395433417837      0.19284110153682
  N   1.09241325753641     -1.17692534800328     -0.38484754908885
  H   1.77342781829274     -1.76150819842098      0.08274207657866
  H   1.41250221684391     -0.95778621339983     -1.32041156723097
  C   0.36484914273050     -0.35136376510583      1.69631913796107
  N   -0.01325660245946     -0.63748363297006      2.77146692867519
  C   -1.58484222828721      0.11664805837047     -0.53789345896553
  H   -2.29931930645352      0.76164975842080     -1.05422519793208
  H   -1.46282927263946     -0.79963129222730     -1.11499326892476
  H   -2.01136867354264     -0.14558755570608      0.43278029400966
