14
Coordinates from ORCA-job run
  C   0.72871988039154     -0.15175936495200      0.25166994442476
  C   -0.44212333266183     -0.08028415097418     -0.72750725346488
  Br  1.48766466036598      1.73056928155174      0.44901310696785
  H   -0.04378882098022      0.27548285443919     -1.68374109423881
  H   -0.76054562192041     -1.11870391063407     -0.86910796094669
  N   1.70040919784642     -1.08056319983263     -0.19014207464995
  H   2.02011543534342     -0.85584165069804     -1.12442818607835
  H   2.49349536378795     -1.13787544215394      0.43642259683583
  C   0.28318631772964     -0.50756007214856      1.59950511799443
  N   -0.08460400476960     -0.82486661324439      2.66946112837967
  C   -1.61700780538077      0.77810166008280     -0.28192087427080
  H   -2.01996474156718      0.43005329085406      0.67162965322091
  H   -1.33151985727947      1.82457298565991     -0.17517368788909
  H   -2.41603667090548      0.71767433205008     -1.02368041628488
