14
Coordinates from ORCA-job run
  C   0.67342984835432      0.07335987763356      0.44266897269573
  C   -0.84309604670469     -0.02790314512020      0.26114685572801
  Br  1.22419398093364      1.96205238284545      0.55365544625970
  H   -1.08581903662968     -1.09764133967677      0.31553600166228
  H   -1.31955554946245      0.44519365228070      1.12360548047623
  N   1.36069944132103     -0.51127838743963     -0.68368757474153
  H   1.07622940433228     -1.48144626715380     -0.78143912289785
  H   2.36481550525087     -0.48042252623181     -0.54880933911987
  C   1.05189581760083     -0.52047635807569      1.73662206158319
  N   1.34729304615914     -1.06769430303868      2.73507907719382
  C   -1.35940497768704      0.56367737660552     -1.04371017019452
  H   -1.17462198610962      1.63732667643442     -1.08726213594791
  H   -0.87886385397023      0.10145516683627     -1.90525003320778
  H   -2.43719559338839      0.40179719410065     -1.11615551948949
