14
Coordinates from ORCA-job run
  C   0.80169687440531      0.02509527495607      0.29641625827993
  C   -0.37231353025887     -0.09400759391278     -0.68441970448507
  Br  1.37869266571973      1.91389877627645      0.36082870940878
  H   -0.58055645208023     -1.16874890195996     -0.76374441329731
  H   -0.00463135675216      0.23721783244731     -1.66153862853962
  N   1.97091743183797     -0.75591842091724     -0.03722737955147
  H   2.24876354340262     -0.56234072518867     -0.99317274977296
  H   1.75862239631392     -1.74431823667048      0.05347452846011
  C   0.36831116973800     -0.34123424793319      1.64808395461923
  N   -0.02379535055958     -0.68610642676895      2.70066499195817
  C   -1.64081694845610      0.65474962764180     -0.29883588642211
  H   -1.46889997113301      1.73061232064644     -0.25916045703631
  H   -2.01182626671211      0.32789115582292      0.67498292447493
  H   -2.42316420546550      0.46320956556029     -1.03635214809627
