14
Coordinates from ORCA-job run
  C   0.70259808731637      0.03750873794905      0.40068571596147
  C   -0.82474035294624      0.04678465110909      0.30723905774749
  Br  1.39972615548884      1.88045609480493      0.40297670212460
  H   -1.14395422689157     -0.99807773241470      0.41889419792930
  H   -1.21427483452537      0.58710892914162      1.17374940988006
  N   1.27809482319400     -0.64016460154844     -0.73638797359652
  H   2.28779174913956     -0.68098062355089     -0.65779357473014
  H   0.91760461717938     -1.58891243528601     -0.77656078364523
  C   1.10834891737058     -0.53469324652282      1.69617972117493
  N   1.40171332715861     -1.06115863852546      2.70620907237009
  C   -1.36983103389899      0.62711201508841     -0.99122793000609
  H   -2.45915306203632      0.54724175396182     -0.99712295671677
  H   -0.97674618633830      0.09615640896276     -1.85742988897980
  H   -1.10717798021055      1.68061868683067     -1.09041076951340
