14
Coordinates from ORCA-job run
  C   0.69402486179296      0.06065322810171      0.56105659611182
  C   -0.80628327543318     -0.07616879687465      0.24897160574661
  Br  1.11579528008080      1.97393864299249      0.81618569856735
  H   -1.01871303495252     -1.15283673506013      0.26399547161045
  H   -1.37286241366374      0.37297671712819      1.06930635328160
  N   1.61846517213060     -0.44852978734500     -0.42492802653964
  H   1.49208458786302     -1.45003350550522     -0.53091186418367
  H   1.46925879462011      0.00705927978865     -1.31683939769900
  C   0.97158452693003     -0.60387921161712      1.83888668850524
  N   1.14096901560997     -1.18724567519120      2.84463175044760
  C   -1.23407466901383      0.51634063220794     -1.08667787075664
  H   -2.30899230775802      0.38001471966136     -1.22061612218195
  H   -1.02270567924557      1.58517647790082     -1.13617357566234
  H   -0.73955085896064      0.02253401381215     -1.92588730724743
