15
Coordinates from ORCA-job run
  C   -0.46434190446052     -0.49335644165392     -0.07484008043402
  C   0.69068120790121      0.53454616833987     -0.07552617437081
  Cl  0.12890399140682     -2.04010333667716      0.59321811200229
  H   0.34699265038900      1.43706365298117     -0.59018865116665
  C   -0.93556900057758     -0.71734493267338     -1.44224180664139
  N   -1.39627266299772     -0.88515250701615     -2.51042187281157
  C   -1.61843436301900      0.01924203469077      0.78456129870558
  H   -1.29291989708480      0.13471180381666      1.81892439945034
  H   -1.97329853837212      0.97912207009576      0.40029663978604
  H   -2.43811272597244     -0.69865909578281      0.74958000492068
  N   1.86223428560301      0.02992591845224     -0.89614685428073
  O   1.71328984272627      0.12238300545476     -2.10930695728303
  O   2.82306518348320     -0.43085040999366     -0.29525210784269
  C   1.12496926073079      0.85542685232224      1.27601895597640
  N   1.42781267024387      1.15204521764362      2.37132509398956
