15
Coordinates from ORCA-job run
  C   -0.49868289029686     -0.46023811953115     -0.06722704611030
  C   0.72880513217428      0.47956569862005     -0.08148630427595
  Cl  -0.03061529228352     -2.02263230241764      0.66243165186958
  H   0.46224442401950      1.38524372057684     -0.63491499278308
  C   -0.96335019240213     -0.69717639126631     -1.43470549139199
  N   -1.41530192171932     -0.86805381866814     -2.50605750841701
  C   -1.62518061703571      0.16389991029588      0.75414131229866
  H   -1.30815886945869      0.29066269351012      1.78973503493755
  H   -1.90280127909967      1.13332226218067      0.33235202869288
  H   -2.49428282252644     -0.49357246293718      0.72819543723378
  N   1.87413257525051     -0.13930407396389     -0.85983672217253
  O   2.78959960534329     -0.64320082768388     -0.22372737827019
  O   1.75231556605455     -0.08352396703021     -2.07828642809820
  C   1.16262832098274      0.81815167250050      1.26593454152312
  N   1.46964826099747      1.13485600581433      2.35445186496367
