15
Coordinates from ORCA-job run
  C   -0.52451267378907     -0.54706573642430     -0.27990748549830
  C   0.84902069995396      0.13807383202021     -0.50255182521493
  Cl  -0.24606688642729     -2.31480662999387     -0.25768915931202
  H   1.28336065575484     -0.22372805247381     -1.43681126370162
  C   -1.33125409620061     -0.22402071298959     -1.45841257345180
  N   -1.97897870116785      0.06063601059274     -2.39727580469033
  C   -1.24989858461068     -0.12337184082713      0.99098513434146
  H   -0.67200821616431     -0.40175774641758      1.86983778617265
  H   -1.40649543224239      0.95719610725236      0.98972838854020
  H   -2.21830886140749     -0.62346080404689      1.02484855659984
  N   1.83412887726780     -0.25166606013016      0.57863287862601
  O   2.73133385396253     -1.01222820889096      0.23759701383807
  O   1.64391140374450      0.22060594758892      1.69395302687240
  C   0.70885569289324      1.58828442159084     -0.51524702478328
  N   0.57591226843281      2.75530947314922     -0.53968764833835
