15
Coordinates from ORCA-job run
  C   -0.57940670086259     -0.41138067510691     -0.34078387641942
  C   0.92972796180526     -0.07732400170068     -0.33096412865231
  Cl  -0.76455608847116     -1.73344477621108     -1.53852217709270
  H   1.48486125712969     -0.99131631148524     -0.11205082153352
  C   -1.36797844292752      0.73287043018002     -0.79366999535365
  N   -2.03885169829203      1.63777438504698     -1.12925154316156
  C   -1.05641441967073     -0.89285462968159      1.02440520885645
  H   -2.08600100634209     -1.24136005358870      0.94152745324035
  H   -1.02277239733208     -0.07723073818805      1.74922649933411
  H   -0.42700554582641     -1.71341427839434      1.37272778805383
  N   1.20800943734251      0.86315851271689      0.82160225026602
  O   1.69257459896574      0.34843293894029      1.82425051873239
  O   0.87975006021308      2.03380733633176      0.66998315032878
  C   1.38410138666262      0.52581562936300     -1.57524438232267
  N   1.76496159760569      0.99546623177766     -2.58223594427610
