15
Coordinates from ORCA-job run
  C   -0.48460207650051     -0.47105575526981     -0.08813202892659
  C   0.72548366779631      0.49052072893862     -0.04305233578596
  Cl  -0.04676537152797     -2.00100878061005      0.72368519362967
  H   0.48328332024315      1.37490106520856     -0.64035984347200
  C   -0.84406948801125     -0.75871442777130     -1.47737847533277
  N   -1.21643847845729     -0.97305484419839     -2.57135591630283
  C   -1.67790385931867      0.15797139343431      0.62834830075755
  H   -2.53273713689941     -0.51509630972035      0.55948695218674
  H   -1.93860123563645      1.10935625669231      0.15722623824007
  H   -1.43991390612205      0.32139631176583      1.68002157953728
  N   1.93306917222855     -0.12863382710664     -0.71946585729433
  O   1.89883973515261     -0.10687549364356     -1.94467461672034
  O   2.80647698258593     -0.60209691850525     -0.00559951685915
  C   1.05539894561780      0.87487138908164      1.32141691213405
  N   1.27747972884925      1.22651921170409      2.41983341420861
