15
Coordinates from ORCA-job run
  C   -0.46800279879896     -0.55347546524130     -0.34560001484758
  C   0.83402215479585      0.28317452557620     -0.45999733817873
  Cl  -0.00990596964706     -2.27558970176150     -0.49886017332388
  H   1.29581969504856      0.09845167176734     -1.43095411711096
  C   -1.26855821878333     -0.18839991388061     -1.51619413406707
  N   -1.87043710007148      0.12735426814254     -2.47580105480343
  C   -1.25983575880085     -0.33990259049149      0.93937616936162
  H   -1.54051288965516      0.71105065882635      1.03689410657405
  H   -0.66697206631613     -0.63860624597968      1.80181128214346
  H   -2.16660715682162     -0.94641677604813      0.89899090926681
  N   1.86381907569784     -0.15651434657304      0.55914359688407
  O   1.61849468513190      0.08784820369046      1.73474047103838
  O   2.85055474077608     -0.72732671209892      0.11206755461379
  C   0.54291325251965      1.69785508301641     -0.26632305372213
  N   0.24620835492470      2.82049734105535     -0.09029420382841
