16
Coordinates from ORCA-job run
  C   -0.61262620095849     -0.40450999409160      0.00129755249030
  C   0.91270735013475     -0.48629149864283      0.12268916048433
  Br  -1.21134225405093     -2.20831935332714     -0.43312676312687
  H   1.18441460125573     -1.25008723506247      0.85404455876835
  C   -1.14255764164430      0.57275069370257     -1.01862972578486
  H   -0.86478368843904      1.58878869132870     -0.74020457704828
  H   -2.22748593011800      0.50520190279718     -1.06472027019159
  H   -0.73055816353928      0.32922826307651     -1.99901066745019
  N   -1.17151100492731     -0.12125257450154      1.39646191395413
  O   -2.22671051832658      0.49145876092440      1.45297710841186
  O   -0.53235293129228     -0.57047983196992      2.34019271640111
  N   1.53028701773005      0.79783277399148      0.67924591706209
  O   2.74731908003255      0.77757058313646      0.78186938324562
  O   0.77435718227327      1.70585919546167      0.99950469574107
  C   1.53996419044530     -0.75906313355870     -1.16296723756590
  N   2.03087891142457     -0.96768724326478     -2.20962376539119
