16
Coordinates from ORCA-job run
  C   -0.60758277171764     -0.40509153266042      0.07670716057484
  C   0.92318071833964     -0.47132253670660      0.10048617180703
  Br  -1.21785927519416     -2.24067953607557     -0.16502579201385
  H   1.24972567343058     -1.16927422312582      0.87401060221876
  C   -1.21385884316419      0.48249552644796     -0.98185015015911
  H   -0.86567881281745      0.16109173151692     -1.96461062659747
  H   -0.92841020059371      1.51921345020034     -0.80641596175932
  H   -2.29873895873742      0.40654594801283     -0.94954963818747
  N   -1.07291192313152     -0.00851005215333      1.47880719313005
  O   -2.12133447657628      0.61329400629848      1.55631992739499
  O   -0.37251577378749     -0.38532106868797      2.41076271445799
  N   1.56581090372014      0.85727733488341      0.50271623986744
  O   0.82536149734002      1.78453812879780      0.80384591578146
  O   2.78719457287312      0.85208089374713      0.51508716188882
  C   1.46410933380697     -0.85070010332746     -1.19734549908179
  N   1.88250833620939     -1.14463796716770     -2.25494541932238
