16
Coordinates from ORCA-job run
  C   -0.56561728524780     -0.46425483748991      0.04448890667866
  C   0.97237558889956     -0.43338231037776      0.03192846109725
  Br  -1.14033289363291     -2.21727100102595     -0.56272884450223
  H   1.34424430203460     -1.07527132509979      0.83540314681405
  C   -1.19334630667255      0.62389930025361     -0.79092994460427
  H   -0.95629403235511      1.60495921828782     -0.37517941232856
  H   -0.81577963888258      0.55512748024445     -1.81321496406969
  H   -2.27563550810392      0.51243319529284     -0.80278972230841
  N   -1.02101578546623     -0.38283822748889      1.50938311002502
  O   -0.42452640511098     -1.09287483430625      2.30553012906041
  O   -1.96245530907445      0.35989066738332      1.74906833013528
  N   1.41750116294975      0.98271282907927      0.38130745579159
  O   1.00962196155453      1.39232970025510      1.46190866629896
  O   2.10777613427774      1.59014287473415     -0.42474134282495
  C   1.52688769377571     -0.81587421146266     -1.25683980439861
  N   1.97559632105464     -1.13772851827933     -2.29359417086449
