12

C	0.0	0.0	0.0
C	-0.536398	0.036527	-1.409723
F	1.348366	0.0	0.0
H	-1.635524	0.054556	-1.328204
H	-0.391107	0.794393	0.632246
H	-0.223257	-0.867262	-1.93499
N	-0.377197	-1.29473	0.685287
O	-0.484996	-1.241945	1.905616
O	-0.427678	-2.308473	-0.004523
C	-0.03513	1.215398	-2.10489
N	0.374205	2.158681	-2.671092
Cl	-3.443612	0.0	0.0
