12

C	0.0	0.0	0.0
C	-0.543809	0.021558	-1.404979
F	1.35745	0.0	0.0
H	-0.215269	-0.877095	-1.930204
H	-0.384059	0.80052	0.628388
H	-1.643668	0.016445	-1.312001
N	-0.36932	-1.287959	0.698993
O	-0.480185	-1.222072	1.918059
O	-0.409197	-2.309554	0.0201
C	-0.08887	1.211521	-2.110694
N	0.260287	2.169991	-2.691715
Cl	-3.46392	0.0	0.0
