12

C	0.0	0.0	0.0
C	-0.537498	-0.346633	-1.364791
F	1.357558	0.0	0.0
H	-1.63677	-0.310087	-1.284983
H	-0.384162	0.937396	0.395019
H	-0.221825	-1.357172	-1.62759
N	-0.372152	-1.060395	1.010861
O	-0.425697	-2.222713	0.621254
O	-0.470542	-0.679505	2.17208
C	-0.045423	0.602637	-2.355633
N	0.362621	1.358583	-3.155693
Cl	-3.448984	0.0	0.0
