12

C	0.0	0.0	0.0
C	-0.547637	-0.358014	-1.357568
F	1.354677	0.0	0.0
H	-1.646813	-0.307233	-1.273574
H	-0.385131	0.940223	0.387762
H	-0.251042	-1.378176	-1.604922
N	-0.375626	-1.05056	1.020685
O	-0.541075	-0.653772	2.168582
O	-0.368982	-2.221239	0.651406
C	-0.052239	0.567616	-2.367324
N	0.333301	1.285174	-3.21311
Cl	-3.468295	0.0	0.0
