16

C	0.015888	-0.062878	-0.004208
C	-0.348587	0.022557	-1.552356
Br	2.034146	-0.012728	0.02805
H	0.520352	-0.327917	-2.121863
N	-0.452322	0.996097	0.818164
H	-0.086537	1.877969	0.47066
H	-1.485439	0.967053	0.574034
C	-0.439182	-1.391397	0.559024
H	-0.09793	-2.236821	-0.042248
H	-0.070096	-1.486577	1.580363
H	-1.530671	-1.337216	0.552628
C	-0.574403	1.413158	-1.941371
N	-0.630468	2.536905	-2.276257
C	-1.46118	-0.838659	-1.972368
N	-2.109775	-1.672521	-2.488847
F	-2.621252	0.473778	-0.364167
