16
Coordinates from ORCA-job run
  C   -0.53391560584671      0.16933641559482     -0.34539833899196
  C   0.75779879281755     -0.61719721843568     -0.13971416571084
  Br  -0.39493886245525      1.31509696316517     -1.90699106546236
  H   0.55549183957216     -1.34413246659280      0.65317901228922
  H   0.94085768187221     -1.17669403514072     -1.06144514697381
  N   -0.71611160028757      1.02988548998464      0.90674384054454
  O   -0.59096796381790      2.24416408385960      0.85365712468400
  O   -0.93313072196284      0.37144807077024      1.92245469203516
  C   -1.75672463805834     -0.71727995400326     -0.49188883365572
  H   -1.64152674893597     -1.34185560337644     -1.37866603807533
  H   -1.85385332912526     -1.35181479467265      0.38952515340473
  H   -2.66044013131099     -0.11605918505309     -0.60517490637567
  C   1.97048050599000      0.22865376174309      0.22839751302176
  H   1.83718343958990      0.71265539217419      1.19831622806608
  H   2.85602422483214     -0.40629552132692      0.29732622204355
  H   2.16277311712687      1.00008860130981     -0.51832129084336
