16
Coordinates from ORCA-job run
  C   -0.59946797916492      0.35254558177816     -0.41213654943926
  C   0.89460595936442      0.21279440259714     -0.66263089127048
  Br  -1.40497617408234      1.34441164561876     -1.89155670039048
  H   1.30418466331014      1.20701350104580     -0.84532375021001
  H   1.01352097174327     -0.36454091290945     -1.58403579706769
  N   -0.78570743401935      1.23825703012881      0.82067782738247
  O   -1.57383965756470      0.85439968528545      1.68026153153556
  O   -0.11740717657832      2.26405080784047      0.86953592512252
  C   -1.34134619425198     -0.95171133468324     -0.23244551890741
  H   -1.18017228575657     -1.56936698156158     -1.11771399352823
  H   -2.40868810279287     -0.78127043417650     -0.10682779809024
  H   -0.97416850475755     -1.47905832379028      0.64866154500207
  C   1.63818131088382     -0.45736847008421      0.49125843960258
  H   1.51760899058106      0.09971600730235      1.42294224194699
  H   2.70617940208603     -0.48475552308090      0.26554715633606
  H   1.31049221099985     -1.48511668131078      0.65478633197556
