17

C	-0.282577	-0.053568	-1.510793
C	0.0	0.0	0.0
Cl	-1.994845	-0.559038	-1.878841
H	1.105288	0.0	0.0
C	-0.171286	1.298238	-2.093387
N	-0.038409	2.369328	-2.55965
N	0.615071	-1.009716	-2.093786
H	0.636724	-0.923683	-3.101337
H	1.552058	-0.856127	-1.715004
C	-0.482284	-1.251643	0.706582
H	0.01284	-1.322	1.679085
H	-1.565077	-1.216161	0.852819
H	-0.225866	-2.138524	0.12732
N	-0.591709	1.195404	0.592195
H	0.047706	1.971207	0.454665
H	-0.652376	1.050973	1.593423
Cl	3.41954	0.0	0.0
