17

C	-0.28197	-0.04695	-1.510584
C	0.0	0.0	0.0
Cl	-1.995155	-0.550231	-1.880225
H	1.105235	0.0	0.0
C	-0.170686	1.308135	-2.086386
N	-0.036212	2.379164	-2.552623
N	0.614926	-0.999473	-2.100577
H	0.635177	-0.90649	-3.108367
H	1.552624	-0.84562	-1.722342
C	-0.482767	-1.25353	0.702616
H	-1.565467	-1.217339	0.84982
H	0.012915	-1.328215	1.674571
H	-0.228178	-2.138561	0.119772
N	-0.590939	1.193385	0.596378
H	-0.654202	1.045036	1.596971
H	0.049518	1.969559	0.46433
Cl	3.420702	0.0	0.0
