17

C	-0.5496	0.004929	-1.435864
C	0.0	0.0	0.0
Cl	0.270912	1.391985	-2.345605
H	1.097728	0.0	0.0
C	-0.187128	-1.203129	-2.181738
N	0.044929	-2.186239	-2.781317
N	-1.963813	0.148628	-1.406072
H	-2.333698	0.349041	-2.325792
H	-2.156566	0.911431	-0.761702
C	-0.492722	-1.225732	0.754624
H	-0.017664	-1.242165	1.73925
H	-0.201192	-2.143338	0.241434
H	-1.578979	-1.211453	0.869908
N	-0.517004	1.222907	0.643714
H	-0.502353	1.070637	1.645625
H	0.153565	1.96344	0.462646
Cl	3.444371	0.0	0.0
