17

C	-0.55246	-0.024313	-1.436397
C	0.0	0.0	0.0
Cl	0.27842	1.336654	-2.380455
H	1.097678	0.0	0.0
C	-0.202211	-1.251436	-2.156442
N	0.058976	-2.238997	-2.734032
N	-1.965666	0.132122	-1.404629
H	-2.148792	0.909484	-0.775549
H	-2.336944	0.316487	-2.325206
C	-0.493316	-1.209504	0.781185
H	-1.579165	-1.192258	0.895993
H	-0.01856	-1.204438	1.766507
H	-0.201372	-2.137282	0.287633
N	-0.513562	1.237931	0.619558
H	-0.49964	1.103789	1.622578
H	0.161155	1.969395	0.420446
Cl	3.445651	0.0	0.0
