17

C	-0.55222	-0.011674	-1.435689
C	0.0	0.0	0.0
Cl	0.269155	1.362263	-2.36352
H	1.097711	0.0	0.0
C	-0.197489	-1.230946	-2.167956
N	0.032307	-2.225724	-2.749137
N	-1.966515	0.135061	-1.404934
H	-2.336856	0.326185	-2.326798
H	-2.156401	0.906303	-0.769801
C	-0.49099	-1.218816	0.766638
H	-0.1935	-2.140639	0.264361
H	-0.01976	-1.222955	1.753386
H	-1.577864	-1.20711	0.87764
N	-0.517302	1.229196	0.630788
H	-0.50758	1.085996	1.63415
H	0.154975	1.966848	0.445452
Cl	3.445745	0.0	0.0
