17

C	-0.525351	0.041413	-1.442432
C	0.0	0.0	0.0
Cl	0.037671	1.515206	-2.276744
H	1.095603	0.0	0.0
C	-0.024814	-1.10414	-2.22914
N	0.256982	-2.071031	-2.836628
N	-1.98671	0.071415	-1.444759
H	-2.307508	0.238207	-2.39247
H	-2.320334	-0.847469	-1.170402
C	-0.447184	-1.289644	0.69357
H	0.052101	-1.339979	1.663446
H	-0.163685	-2.185473	0.134444
H	-1.529881	-1.300361	0.871254
N	-0.426247	1.207836	0.68587
H	-1.305046	1.069844	1.165733
H	0.290475	1.473523	1.347696
Cl	3.428858	0.0	0.0
