17

C	-0.294931	-0.063089	-1.509315
C	0.0	0.0	0.0
Cl	-2.041097	-0.490967	-1.800046
H	1.098349	0.0	0.0
C	-0.09977	1.264547	-2.115183
N	0.059057	2.288737	-2.667475
N	0.52204	-1.013362	-2.23741
H	0.341169	-1.938517	-1.862141
H	1.494732	-0.789073	-2.01187
C	-0.44394	-1.245399	0.754631
H	-1.531648	-1.276728	0.868983
H	-0.123598	-2.166952	0.263287
H	0.018909	-1.227722	1.743818
N	-0.504276	1.236335	0.573478
H	-1.306258	1.063133	1.164299
H	0.223074	1.67317	1.123927
Cl	3.378517	0.0	0.0
