11

C	0.0	0.0	0.0
C	-0.449071	-0.336387	-1.456166
Br	1.932135	0.0	0.0
H	0.459301	-0.468735	-2.057201
H	-0.350818	-0.746501	0.704227
H	-0.359415	0.977498	0.3025
C	-1.152153	0.772154	-2.112374
N	-1.473225	1.691802	-2.768616
C	-1.139529	-1.625654	-1.566233
N	-1.455855	-2.73853	-1.768685
Br	-3.225294	0.0	0.0
