11

C	0.0	0.0	0.0
C	-0.506535	0.057872	-1.446195
Br	1.93	0.0	0.0
H	-1.616737	0.068905	-1.343502
H	-0.357145	-0.909865	0.47578
H	-0.357584	0.868445	0.547305
C	-0.097784	-1.116425	-2.218198
N	0.212903	-2.054471	-2.853036
C	-0.058566	1.266613	-2.139498
N	0.286208	2.232449	-2.712384
Br	-3.489941	0.0	0.0
