11

C	0.0	0.0	0.0
C	-0.443166	0.16045	-1.488368
Br	1.932175	0.0	0.0
H	0.468535	0.22789	-2.095599
H	-0.35502	-0.936015	0.417473
H	-0.355762	0.82576	0.607075
C	-1.137645	1.425286	-1.753352
N	-1.442923	2.51061	-2.085155
C	-1.134284	-1.020408	-2.017379
N	-1.441356	-2.012562	-2.566762
Br	-3.207817	0.0	0.0
