11

C	0.0	0.0	0.0
C	-0.441747	0.068334	-1.496377
Br	1.931998	0.0	0.0
H	0.47037	0.095497	-2.105842
H	-0.357174	0.860558	0.554951
H	-0.354066	-0.909236	0.47336
C	-1.134254	1.314617	-1.840847
N	-1.43983	2.378982	-2.233778
C	-1.132191	-1.143283	-1.952408
N	-1.433904	-2.166685	-2.445394
Br	-3.202907	0.0	0.0
