13
Coordinates from ORCA-job run
  C   -0.49837070910746      0.47669822989322      0.24855622634430
  C   0.85057084743309      0.41675962961382      0.28184771552461
  H   1.36943963763516      1.23534141826826      0.77842523283610
  C   -1.13141407030100      1.60980801728700      0.86776108153517
  N   -1.68028155050237      2.52378387890818      1.36526913200212
  C   -1.44339324917624     -0.51897833861384     -0.37064880562531
  H   -2.12835493688501     -0.91056078985851      0.38577208344334
  H   -0.91406328266178     -1.35611031110514     -0.82234619546388
  H   -2.04954673556225     -0.03640392315710     -1.14153627059783
  C   1.72084707399999     -0.65610782558070     -0.29074378548728
  H   2.41341207941858     -0.22862506279135     -1.02198618296918
  H   2.33238906899801     -1.10571414150017      0.49731057755951
  H   1.15976582671129     -1.45089078136365     -0.77968080910166
