13
Coordinates from ORCA-job run
  C   -0.53431124168008      0.05847377104353      0.11957286915589
  C   0.61778280196978     -0.47408279029149     -0.33685901084037
  H   0.55634650877881     -1.45470801573556     -0.80798600348737
  C   -0.52116116745016      1.34921383189089      0.75098029216274
  N   -0.53826380543434      2.40389676527801      1.27260703268068
  C   -1.87700107610025     -0.61470008466479      0.01617182447370
  H   -1.77865794788181     -1.58315788669785     -0.47686050642668
  H   -2.57554020974017      0.00002041948467     -0.55723015280737
  H   -2.31139338865724     -0.76850722002888      1.00719263076792
  C   1.97113259986408      0.15581777379137     -0.25764105076306
  H   2.39442141256282      0.27917771272427     -1.25888703227874
  H   2.65879078883443     -0.48442307759039      0.30287391126674
  H   1.93785472493415      1.13297880079623      0.22606519609592
