13
Coordinates from ORCA-job run
  C   -0.52563442063992      0.49551291183243      0.12666374195669
  C   0.79177654192569      0.56936999119652     -0.16219908322410
  H   1.22605596525166      1.56529236208490     -0.23640147909051
  C   -1.23906916526922      1.73052294174518      0.31002125384801
  N   -1.85163722944500      2.72270824552421      0.46635222702160
  C   -1.35929930014728     -0.74889614713440      0.28324437790956
  H   -1.80173356681156     -0.78416695663272      1.28210744081207
  H   -0.77242023422099     -1.65354718583804      0.13426779263359
  H   -2.18073645163569     -0.74665894579960     -0.43778698350862
  C   1.73017425222982     -0.57172677558360     -0.39352799947557
  H   1.25114031393184     -1.54615905093903     -0.31210750763343
  H   2.17861197600572     -0.49495513696833     -1.38860844101663
  H   2.55277131882493     -0.53529625348754      0.32697465976733
