13
Coordinates from ORCA-job run
  C   -0.54417543562966      0.06409915537022      0.05510797492154
  C   0.66701552491671     -0.52294403969947     -0.03228631449589
  H   0.69684463948281     -1.60905768149707      0.04898002817192
  C   -0.65208998194883      1.49353013836131     -0.04289758556151
  N   -0.76998288947560      2.66177718228949     -0.12002193861107
  C   -1.83503118184304     -0.68525709760556      0.25308549896234
  H   -2.33373933773692     -0.36347235016845      1.17102919524883
  H   -1.64537772461881     -1.75806138739212      0.31562556126320
  H   -2.52147453452826     -0.49949994296172     -0.57691529555527
  C   1.97308194164324      0.17720504083565     -0.22941389649459
  H   2.46100135023453     -0.17435640138560     -1.14343636780893
  H   1.85006161134846      1.25886297428296     -0.29691049359738
  H   2.65286601815538     -0.04282559042964      0.59905363355682
