14

C	-0.314053	-0.114839	-1.50988
C	0.0	0.0	0.0
Cl	0.018933	1.466925	-2.293394
H	1.097168	0.0	0.0
H	-1.37446	-0.310272	-1.69241
C	0.596942	-1.174144	-2.107216
H	0.539035	-1.174321	-3.197474
H	1.611109	-0.954756	-1.757181
H	0.300375	-2.16124	-1.739092
C	-0.455744	-1.211246	0.665675
N	-0.824118	-2.20749	1.171109
C	-0.571223	1.169159	0.641793
N	-1.028934	2.111796	1.175264
F	2.513732	0.0	0.0
