14

C	-0.312579	-0.099829	-1.510998
C	0.0	0.0	0.0
Cl	0.021298	1.488876	-2.279257
H	1.0972	0.0	0.0
H	-1.373044	-0.29164	-1.696369
C	0.597286	-1.154884	-2.116617
H	1.610013	-0.940829	-1.761053
H	0.298473	-2.145577	-1.759332
H	0.542648	-1.142431	-3.205744
C	-0.454184	-1.217712	0.65371
N	-0.805205	-2.223468	1.152431
C	-0.57117	1.163027	0.65263
N	-1.027831	2.099	1.198347
F	2.514267	0.0	0.0
