14

C	-0.313127	-0.085429	-1.510706
C	0.0	0.0	0.0
Cl	0.091712	1.494113	-2.269621
H	1.097129	0.0	0.0
H	-1.380507	-0.231979	-1.70104
C	0.557036	-1.173752	-2.116354
H	0.216518	-2.152254	-1.765172
H	0.511971	-1.155687	-3.206161
H	1.575625	-0.998799	-1.756429
C	-0.463908	-1.217633	0.647287
N	-0.840689	-2.215292	1.1438
C	-0.565523	1.162921	0.658022
N	-1.009847	2.10268	1.207783
F	2.512551	0.0	0.0
