14

C	-0.358014	-0.180689	-1.482959
C	0.0	0.0	0.0
Cl	0.248163	-1.77396	-2.036772
H	1.096618	0.0	0.0
H	0.23453	0.558919	-2.025602
C	-1.834802	-0.074658	-1.806774
H	-2.392485	-0.846229	-1.271087
H	-2.007643	-0.203683	-2.878157
H	-2.209516	0.907002	-1.505111
C	-0.563488	-1.037537	0.842165
N	-1.018481	-1.88374	1.52097
C	-0.440085	1.313229	0.438182
N	-0.779181	2.396074	0.749504
F	2.459711	0.0	0.0
