18

C	0.0	0.0	0.0
C	-0.487677	0.320524	-1.412996
F	1.38887	0.0	0.0
H	-1.579262	0.262586	-1.358959
N	-0.489513	0.950109	0.944613
H	-1.509724	0.958269	0.832336
H	-0.293375	0.620783	1.883766
C	-0.323067	-1.414532	0.364327
N	-0.501248	-2.539105	0.653729
C	0.025806	-0.705339	-2.419094
H	-0.333084	-1.710349	-2.185909
H	1.119215	-0.721982	-2.442495
H	-0.333713	-0.448512	-3.419227
C	-0.065218	1.735351	-1.801802
H	1.02483	1.826945	-1.809405
H	-0.438241	1.964083	-2.804381
H	-0.4669	2.471793	-1.106822
Cl	-3.616397	0.0	0.0
