18

C	0.0	0.0	0.0
C	-0.55303	0.137049	-1.411429
F	1.415781	0.0	0.0
H	-1.633931	-0.014515	-1.280496
N	-0.476003	1.00434	0.866175
H	-0.259341	1.929501	0.52801
H	-0.149034	0.874451	1.813028
C	-0.332538	-1.327565	0.57343
N	-0.468933	-2.399278	1.031718
C	0.033214	-0.928905	-2.331621
H	-0.149313	-1.934135	-1.944566
H	-0.438999	-0.864002	-3.315323
H	1.111921	-0.795443	-2.454786
C	-0.317228	1.541224	-1.963376
H	0.73579	1.831828	-1.883383
H	-0.594933	1.568831	-3.019933
H	-0.943799	2.276137	-1.454013
Cl	-3.952619	0.0	0.0
