18

C	0.0	0.0	0.0
C	-0.486171	0.372978	-1.400921
F	1.38885	0.0	0.0
H	-1.577295	0.303766	-1.353459
N	-0.491159	0.913458	0.97906
H	-1.511292	0.924973	0.865924
H	-0.296599	0.549098	1.905699
C	-0.32294	-1.427808	0.309599
N	-0.499479	-2.562953	0.555512
C	0.040056	-0.607252	-2.445459
H	-0.323964	-0.31756	-3.435051
H	1.133578	-0.608479	-2.469843
H	-0.304921	-1.625258	-2.250452
C	-0.075595	1.806002	-1.731868
H	1.013569	1.90907	-1.726059
H	-0.491205	2.511739	-1.013346
H	-0.441975	2.069041	-2.728371
Cl	-3.612463	0.0	0.0
