18

C	0.0	0.0	0.0
C	-0.476487	0.384482	-1.402606
F	1.389214	0.0	0.0
H	-1.568507	0.338663	-1.35625
N	-0.498909	0.905705	0.979884
H	-1.517383	0.92738	0.852115
H	-0.323661	0.532667	1.906596
C	-0.326785	-1.428482	0.296454
N	-0.520388	-2.563438	0.530924
C	0.028251	-0.605293	-2.448627
H	-0.356947	-1.611174	-2.267663
H	1.121481	-0.646891	-2.456832
H	-0.30885	-0.293361	-3.440814
C	-0.033099	1.808342	-1.730355
H	-0.417328	2.092269	-2.714025
H	1.058659	1.879814	-1.752113
H	-0.409112	2.517213	-0.993615
Cl	-3.611906	0.0	0.0
