18

C	0.0	0.0	0.0
C	-0.400347	-0.230236	-1.493388
F	1.387787	0.0	0.0
H	0.570873	-0.428738	-1.961022
N	-0.517477	1.206226	0.548536
H	-0.364649	1.212859	1.551682
H	-1.531559	1.188433	0.402846
C	-0.308394	-1.196487	0.844164
N	-0.476748	-2.125364	1.543593
C	-0.992363	1.016313	-2.147814
H	-1.063026	0.844194	-3.227244
H	-0.36536	1.893548	-1.974697
H	-1.999258	1.208376	-1.771977
C	-1.279517	-1.457377	-1.728993
H	-2.221997	-1.367915	-1.189195
H	-1.509645	-1.542709	-2.795581
H	-0.775159	-2.378756	-1.421711
Cl	-3.85362	0.0	0.0
