13
Coordinates from ORCA-job run
  C   -0.54483223771883      0.05452658517019      0.88551742441290
  C   0.59756775455648      0.55347487762055      0.01040164774310
  Cl  -1.41022321697586      1.40648104769397      1.58325312224189
  H   1.18608178132251      1.25568148851376      0.60977626490442
  H   -0.15040128753828     -0.57440532256486      1.68371048232828
  N   -1.47211965214984     -0.83967795357958      0.07473984776814
  O   -0.92079296496875     -1.43359784395693     -0.84723684184391
  O   -2.62979779103937     -0.94895528553540      0.43940463668759
  C   0.13655953647831      1.21205802283471     -1.20210027424346
  N   -0.25859951858954      1.79459394280156     -2.14170187651022
  N   1.57473164665489     -0.57235898677193     -0.30679357548334
  O   2.06779455656075     -0.59388231137969     -1.42141173250355
  O   1.82503139340753     -1.31493826084635      0.63344087449818
