13
Coordinates from ORCA-job run
  C   -0.92145366092866     -0.18092871332660     -0.13252973632354
  C   0.38081608906914      0.61336642011722     -0.08923698009756
  Cl  -0.97745133420375     -1.27691546349329     -1.48534984535342
  H   0.43860148314837      1.12376620551087      0.87702184961955
  H   -1.75644336172849      0.51832393301133     -0.20368504411162
  N   -1.13545728335565     -0.88302522563449      1.21153237097657
  O   -1.40505043918636     -2.06834302982512      1.22921197765445
  O   -1.05761585642668     -0.11812808266951      2.16549262966401
  C   0.44341309039202      1.57032949457688     -1.18301860337063
  N   0.43442784405700      2.36331537977385     -2.04907108299720
  N   1.57063464895954     -0.32954782668891     -0.12188948105339
  O   1.49900673795668     -1.25836459979832      0.67230400437073
  O   2.48557204224683     -0.07384849155391     -0.88978205897795
