13
Coordinates from ORCA-job run
  C   -0.92183069509142      0.15920007277000      0.16018265714330
  C   0.58305419748364      0.41165950197790      0.13956027777757
  Cl  -1.63586249581423      0.31565065973028     -1.42085121195684
  H   0.99535864714193      0.10340886804399      1.10521649008571
  H   -1.38896938592983      0.87702646420602      0.83661094639405
  N   -1.20082259595575     -1.20054304048416      0.80785843344043
  O   -1.92802660612778     -1.99330101759936      0.24179489135821
  O   -0.67126203698637     -1.32110941079798      1.90618964432205
  C   0.87383447782188      1.81253427840615     -0.12209237662459
  N   1.07075401787862      2.95867900964647     -0.28508453181312
  N   1.24888106970768     -0.48391091748228     -0.89104939995047
  O   0.92336355677974     -1.66180129908227     -0.81933128029356
  O   2.05152784909188      0.02250683066525     -1.66000453988274
