17

C	-0.520643	0.014397	-1.44051
C	0.0	0.0	0.0
F	-1.850912	0.421021	-1.468858
H	1.089333	0.0	0.0
C	0.293287	0.92199	-2.346157
H	1.354169	0.67895	-2.252784
H	-0.044	0.779936	-3.374685
H	0.137369	1.954961	-2.045558
C	-0.460074	-1.363493	-1.96728
N	-0.380723	-2.443298	-2.421827
N	-0.506359	-1.178782	0.767597
O	-1.667635	-1.524837	0.550572
O	0.26582	-1.68796	1.571672
N	-0.450184	1.214001	0.757325
O	-0.229229	2.293795	0.223384
O	-0.961635	1.046389	1.859006
Br	3.333008	0.0	0.0
