17

C	-0.470111	0.052384	-1.448896
C	0.0	0.0	0.0
F	-1.855227	0.154231	-1.505042
H	1.089566	0.0	0.0
C	0.146308	1.248003	-2.158641
H	-0.106159	1.196016	-3.218869
H	-0.253601	2.17024	-1.738077
H	1.231027	1.231185	-2.024934
C	-0.073083	-1.177656	-2.157762
N	0.249397	-2.100339	-2.806724
N	-0.483248	-1.188594	0.763181
O	-1.112389	-2.057212	0.165457
O	-0.182207	-1.198559	1.949469
N	-0.513475	1.207118	0.720658
O	-1.616843	1.119312	1.253983
O	0.195776	2.207498	0.680857
Br	3.31851	0.0	0.0
