16

C	0.0	0.0	0.0
C	-0.503851	0.370338	-1.412045
F	1.384536	0.0	0.0
H	-1.608991	0.344582	-1.340676
C	-0.414217	1.045866	1.021439
H	-1.501588	1.115327	1.050151
H	-0.044652	0.724684	1.999564
H	0.027587	2.017382	0.788422
N	-0.454153	-1.336408	0.253739
H	-0.18288	-1.591925	1.19774
H	-1.476488	-1.311409	0.226151
C	-0.044997	-0.599155	-2.410111
N	0.323781	-1.334762	-3.246995
C	-0.074783	1.713343	-1.806546
N	0.261694	2.793687	-2.120024
Cl	-3.578414	0.0	0.0
