16

C	0.0	0.0	0.0
C	-0.218868	-0.222172	-1.538821
F	1.383862	0.0	0.0
H	0.451469	0.524522	-1.983391
C	-0.446584	1.376934	0.442908
H	0.004188	2.155738	-0.179628
H	-1.536152	1.428734	0.402151
H	-0.114922	1.527165	1.475546
N	-0.503823	-1.108196	0.7363
H	-1.517816	-1.112861	0.574082
H	-0.376721	-0.924702	1.727124
C	-1.497067	-0.031421	-2.239641
N	-2.284714	0.120633	-3.099242
C	0.337583	-1.530475	-1.917101
N	0.812122	-2.538348	-2.287066
Cl	-3.576895	0.0	0.0
