12
Coordinates from ORCA-job run
  C   1.04336496923987     -0.06612639307163     -0.32161548656030
  C   -0.43766853762301     -0.47133500438295     -0.20544094780606
  Br  1.39183270713203      0.60609591126741     -2.12300516398062
  H   -0.62148087142641     -1.22245913514801     -0.98926023545905
  H   1.68010389789340     -0.94640212585731     -0.21071291292810
  C   1.41048117437595      0.93984684634198      0.66422325826852
  N   1.73781229598580      1.72438414417042      1.47477404219964
  N   -1.28200880251284      0.70707475659528     -0.27651765847188
  H   -1.29796070168239      1.06107143645755     -1.22530757239319
  H   -2.22971561230799      0.48417075153202      0.00042411360451
  C   -0.62294976986489     -1.13306031339231      1.09270421232814
  N   -0.77081074920952     -1.68226087451245      2.11973435119840
