12
Coordinates from ORCA-job run
  C   0.91358343475186      0.54142745430141      0.02742879033125
  C   -0.44834698988853     -0.12022278519329      0.32494438553412
  Br  1.69455037705865      1.29190246527238      1.64199239637275
  H   -0.29806578320704     -0.85408529273465      1.13011855997414
  H   0.76297374894994      1.35962089769895     -0.67871616073029
  C   1.81400643556117     -0.45083001915177     -0.54280110749786
  N   2.49542096546335     -1.29302001898754     -0.99765554127212
  N   -0.94053075833370     -0.67712074173790     -0.92921632064567
  H   -1.94444519925816     -0.80261736026201     -0.90088107992921
  H   -0.50928068070496     -1.57769218598321     -1.10110146210988
  C   -1.38673198044218      0.89397631722706      0.81432101868820
  N   -2.15313356995040      1.68866126955058      1.21256652128457
