12
Coordinates from ORCA-job run
  C   1.08264044754392     -0.17333823280756     -0.30530125862801
  C   -0.41732168831585     -0.52210111799763     -0.21734618052015
  Br  1.62522611923567      0.03670048226933     -2.15901741640815
  H   -0.59085338150175     -1.36651947905436     -0.89086971861497
  H   1.68105143877291     -0.99344654322968      0.09723118127298
  C   1.35993282125381      1.04757677230292      0.43981120681063
  N   1.52913151073835      2.03248356982986      1.05784302318198
  N   -1.22497500109963      0.59236917335614     -0.65982937773472
  H   -1.24163171987240      1.32674134075167      0.03865453947952
  H   -2.17654557835827      0.29588195493194     -0.83337173554278
  C   -0.69352823341278     -0.97450051410434      1.16431291260957
  N   -0.93512673498398     -1.30184740624829      2.26688282409412
