16
Coordinates from ORCA-job run
  C   0.85942877832503      0.30157501337863      0.38844941829377
  C   -0.65067725964056      0.12671800410007      0.14603485775317
  Br  1.27971013120969      0.54809029650849      2.27182261460081
  H   -1.13521270494803      0.96138989857219      0.66227481095231
  C   1.62208078386760     -0.81580468729198     -0.14099161981649
  N   2.17351290614071     -1.77692307405209     -0.53387612053353
  N   1.31225305937721      1.58824808235117     -0.31413657617620
  O   2.41133109724575      1.57621631531125     -0.84693695770617
  O   0.53408334613257      2.53001553380490     -0.24870864470621
  C   -1.15617943830647     -1.19804608031033      0.69356171847447
  H   -0.93061545211277     -1.31659034408648      1.75317793755371
  H   -2.24031764314798     -1.24315440589352      0.56815600397107
  H   -0.70830734129530     -2.03178090171120      0.14671734190420
  N   -0.80781769694637      0.20271564568516     -1.29711168180535
  H   -1.18217262399632      1.09346424432011     -1.59157605819418
  H   -1.38109994190476     -0.54613354068640     -1.65785704456539
