16
Coordinates from ORCA-job run
  C   0.68949371053819      0.70222604321174      0.18239890662970
  C   -0.38045263493213     -0.41297124540590      0.26965471024970
  Br  -0.07554100843476      2.40814627805997     -0.30063149938161
  H   0.18090790644477     -1.28630140210907      0.61962242930761
  C   1.39404636339035      0.84522735715487      1.44687110352603
  N   1.97109511062087      0.95050960741315      2.46547958481294
  N   1.71298158918390      0.24776999288515     -0.87668027023841
  O   2.37567519270654     -0.72018037984004     -0.51965970965010
  O   1.73752374686635      0.79841040626823     -1.96374427638379
  C   -1.00520849043235     -0.72862226779056     -1.08508842033174
  H   -0.27237822376713     -1.07401314861503     -1.81760761692566
  H   -1.51713559221543      0.14541838316675     -1.49345070833958
  H   -1.74077814647252     -1.52453936872491     -0.94934386494745
  N   -1.30494981389124     -0.03423184713477      1.32063807633342
  H   -2.05491383575172      0.53811612152181      0.95252995580123
  H   -1.70836587385369     -0.85596453006141      1.75001159953772
