16
Coordinates from ORCA-job run
  C   0.71602464099796      0.65250475615909      0.25273285279158
  C   -0.42285790623656     -0.39607381211192      0.22927377101375
  Br  0.08978175433858      2.41752227014093     -0.21678403435388
  H   0.05968747224120     -1.31325045300018      0.58436669820796
  C   1.34065764835676      0.70966596833112      1.56504102133527
  N   1.85350585723862      0.74305977449081      2.62218977850378
  N   1.77963742402011      0.16911376707578     -0.75311479277723
  O   1.91177276292521      0.75322000803731     -1.81461390134963
  O   2.35488076749346     -0.85113925902105     -0.39026571074312
  C   -0.96987306610392     -0.63002033073999     -1.17480793665391
  H   -1.39536455168757      0.28713791918052     -1.58783334808789
  H   -0.21044697663186     -1.00161082052099     -1.86636894819705
  H   -1.76182532408069     -1.37993087688977     -1.11665905543035
  N   -1.39293327561978      0.00723886690034      1.22804189212603
  H   -2.08406516852632      0.63152112387427      0.83081598177629
  H   -1.86758205872520     -0.79995890190627      1.60898573183843
