16
Coordinates from ORCA-job run
  C   0.85028822651643      0.29968843930254      0.40946865213838
  C   -0.65390896925294      0.11955763546032      0.13581960153667
  Br  1.23316157202067      0.51405044505721      2.30476816194926
  H   -1.15342662076714      0.94040608102595      0.65987823924716
  C   1.63073942502215     -0.80309447630087     -0.12495244157949
  N   2.19618134385167     -1.75423063712402     -0.52192707247197
  N   1.30689259830908      1.60192782068827     -0.26105977577131
  O   0.52212849092686      2.53780884417065     -0.19045885614512
  O   2.41492581425968      1.60659821185926     -0.77519443140873
  C   -1.16031670121723     -1.21873976544842      0.64858508323912
  H   -0.69503471548736     -2.03963213602518      0.09667313049834
  H   -0.95615535949930     -1.35438952044996      1.71057475167453
  H   -2.24123558685007     -1.26919890265850      0.49965452270632
  N   -0.78595300982971      0.22306013526596     -1.30784233949891
  H   -1.15970233968148      1.11753340377986     -1.59131707234960
  H   -1.34858416832129     -0.52134557860307     -1.69367015376463
