16
Coordinates from ORCA-job run
  C   0.76170281155503      0.55176850718105      0.55175062889533
  C   -0.68275929897167      0.01589500128534      0.37734480203200
  Br  0.82301694254713      2.29395570358346      1.37889685489479
  H   -1.00819280682173     -0.20904686001053      1.39908989821928
  C   1.54967854993272     -0.36884776410951      1.35867845781603
  N   2.10856878939496     -1.13202190466311      2.05700472758476
  N   1.39816769636931      0.64882921923826     -0.84058022686110
  O   0.88107028485821      1.44454599895664     -1.61214765736901
  O   2.31363936845430     -0.12560227642044     -1.08968310556535
  C   -0.64685480089650     -1.28495432540121     -0.43320434109526
  H   -1.64287964466262     -1.73236694496473     -0.41913600184728
  H   -0.38877419956516     -1.08331709038724     -1.47642442516607
  H   0.05966167402107     -2.01627635131960     -0.03360061723669
  N   -1.56483625640806      1.04153611042270     -0.13277874366929
  H   -2.52632443848792      0.78030867029442      0.04108326336822
  H   -1.43588467131908      1.17659430631450     -1.12729351400036
