16
Coordinates from ORCA-job run
  C   0.84616581418496      0.34123835751255      0.38774624808579
  C   -0.65388896392685      0.08019379722924      0.15891414488316
  Br  1.27896817437003      0.54519594015032      2.27348016047938
  H   -1.18070387645180      0.86300995592592      0.71341595067675
  C   1.66912391645289     -0.70606096171841     -0.19230974760301
  N   2.26957732800635     -1.61596944489767     -0.63222610411469
  N   1.20539609586513      1.67854809915375     -0.27270016119135
  O   2.29230638496551      1.75436622272489     -0.82494466155685
  O   0.37262822321440      2.56720073760552     -0.15734509973330
  C   -1.06789527869447     -1.29226332823584      0.66469211175465
  H   -2.14850498621761     -1.40109325877956      0.54807966422631
  H   -0.82306585207925     -1.43201590458465      1.71753840300620
  H   -0.57516183995362     -2.07751392468065      0.08533499990927
  N   -0.83950678389363      0.20082428614053     -1.27704501904556
  H   -1.35782823799525     -0.57550141179948     -1.66201568450389
  H   -1.28461011784681      1.07084083825355     -1.53161520527285
