16
Coordinates from ORCA-job run
  C   0.85127481241498      0.33884304634644      0.37494119076089
  C   -0.65120861653042      0.06733946322898      0.17826286781007
  Br  1.33217864813883      0.48957684864135      2.25415650343846
  H   -1.17208046332686      0.82592517706160      0.77083932765892
  C   1.67023575695104     -0.68063233890983     -0.25819646316794
  N   2.27363091689743     -1.57018223415999     -0.73429225985257
  N   1.17928820718881      1.69966356452727     -0.25251953646691
  O   0.33903905362413      2.57419774858271     -0.09129226100881
  O   2.25244791151708      1.80573876447001     -0.82625710380085
  C   -1.03509106121039     -1.32572460251816      0.64998665135514
  H   -2.11748550975761     -1.44390875198708      0.56241722305064
  H   -0.75670520891780     -1.49744625625533      1.68971428615234
  H   -0.55132104518435     -2.08506115287895      0.02995119989367
  N   -0.87631619082743      0.22934870534581     -1.24865357991285
  H   -1.32745037302041      1.10715267183976     -1.46344575435445
  H   -1.41043683795705     -0.53383065333459     -1.63861229155575
