16
Coordinates from ORCA-job run
  C   0.77019645862590      0.51235388150471      0.52717487909636
  C   -0.68516744137118      0.01504971317613      0.36521702259534
  Br  0.86949283858411      2.22533520275871      1.42608093474108
  H   -0.99192608039506     -0.20452185395316      1.39444497570379
  C   1.55209077030045     -0.45183271351321      1.28969410141702
  N   2.10253196920488     -1.26474945759033      1.93688394979272
  N   1.45376447916933      0.69785926069496     -0.83450314670909
  O   2.64630190088589      0.43402680565449     -0.89986129576530
  O   0.74786145056792      1.12207588500348     -1.74063953049091
  C   -0.70521598620300     -1.29176025238273     -0.43700614255872
  H   -0.02431293245946     -2.04574523997498     -0.03407770102798
  H   -0.45304325340911     -1.10754688305726     -1.48331136953407
  H   -1.71635947526609     -1.70326712646609     -0.40512312313817
  N   -1.55833553948871      1.06131305465896     -0.11940613456001
  H   -2.51397426536373      0.85487729099086      0.13805880818522
  H   -1.49490489338214      1.14853243249546     -1.12462622774729
