16
Coordinates from ORCA-job run
  C   0.70946376829547      0.51023457453719      0.54598854804479
  C   -0.74031902670254     -0.06975031342053      0.34837857857797
  Br  0.67409770751507      2.24305625200649      1.40845944840021
  H   -1.06888407695474     -0.29337815534506      1.36954172719716
  C   1.52151562300332     -0.38524770137899      1.35192829645770
  N   2.10009105241816     -1.13274332922323      2.05182170206136
  N   1.34260864754125      0.65361130009442     -0.83490883723080
  O   2.18080752406252     -0.18557155110184     -1.14346832408552
  O   0.88428925200762      1.53135966850100     -1.55428148407426
  C   -0.65853618075814     -1.36425423447743     -0.45342171002683
  H   -0.40100185080252     -1.16154316689921     -1.49682559089421
  H   0.07432118564155     -2.06257138682160     -0.04663678839742
  H   -1.64272335978580     -1.83222938506026     -0.43839956651531
  N   -1.70617853385454      0.81182015507818     -0.24521380987969
  H   -1.42381802156856      1.09344614435100     -1.17593647898352
  H   -1.84473371005813      1.64476112915989      0.31197428934838
