16
Coordinates from ORCA-job run
  C   0.83251051900936      0.50413381255198      0.23523774027294
  C   -0.52715323334532     -0.23608135462761      0.23158811768824
  Br  0.71716994062453      2.24136840642806     -0.59971359485560
  H   -0.32568765195093     -1.15468563831151      0.79360979796810
  C   1.32887019484725      0.66779054153529      1.59267929059231
  N   1.73410877854552      0.78684691785075      2.68960521730805
  N   1.82605011898696     -0.39699201924812     -0.52330230534324
  O   2.09585769356658     -1.42956371430022      0.08026440659096
  O   2.19128726457270     -0.07952758717564     -1.64205948056368
  C   -0.98890898452412     -0.60119796895498     -1.17512919225316
  H   -0.28762477636551     -1.25982429202699     -1.69208920324249
  H   -1.13610155290003      0.29351581952967     -1.78375684574189
  H   -1.94392211511462     -1.12564347208498     -1.09952641255247
  N   -1.44926293792467      0.56472620277896      1.01275073022768
  H   -1.91881836776790      1.24722159883937      0.43049977957619
  H   -2.14737489025980     -0.02208725278404      1.44934195432805
