16
Coordinates from ORCA-job run
  C   0.79057325419939      0.34139297728164      0.40806052689633
  C   -0.71691857955093      0.04445394626300      0.17908088607062
  Br  1.25116335158562      0.46854378194218      2.28943475378745
  H   -1.24994532812738      0.80955931147125      0.75036176839641
  C   1.62871488682843     -0.65737314558277     -0.23372452563431
  N   2.22033240988149     -1.53084090596904     -0.75369865525972
  N   1.08446491654585      1.71257348378171     -0.21197654979244
  O   0.36173125198547      2.62498503515802      0.16262253900543
  O   1.97711842435487      1.77503556440180     -1.04758215207974
  C   -1.08786403636115     -1.34364422161848      0.67622110919873
  H   -2.16209414469489     -1.47390511036708      0.54285452398426
  H   -0.84071363858532     -1.48393647511207      1.72830412395203
  H   -0.57694283433429     -2.11426491520199      0.09246224537834
  N   -1.08809493815152      0.17932520998939     -1.20930353776842
  H   -0.60071070205622     -0.47421263771744     -1.80965750084299
  H   -0.98981429351943      1.12130810127988     -1.56245955529199
