16
Coordinates from ORCA-job run
  C   0.78218178268246      0.55733318092100      0.51528016603895
  C   -0.67089455216143      0.03037389344896      0.39832528045886
  Br  0.88314781369231      2.31712436139614      1.30086709663108
  H   -0.96614661091300     -0.16696683248423      1.43489560453832
  C   1.58838458253077     -0.35136819194116      1.31775255589357
  N   2.16662498033066     -1.10158078290833      2.01442588913185
  N   1.37565903758329      0.61798195236751     -0.89808783370075
  O   0.84294826030431      1.40312170154880     -1.66997054135971
  O   2.27567322950489     -0.17068798025946     -1.15863830662711
  C   -0.67111386146926     -1.28953043323782     -0.38147033232530
  H   -0.44235388569006     -1.11538864542500     -1.43642902202278
  H   -1.67028642147029     -1.72682173815399     -0.32737904449116
  H   0.04027531210553     -2.01812498106620      0.01452993092214
  N   -1.56028201698503      1.05174113131419     -0.10861742671267
  H   -2.51824571967043      0.79719599325502      0.09313448151500
  H   -1.45557193037469      1.16659737122455     -1.10861849789028
