16
Coordinates from ORCA-job run
  C   0.78168356207090      0.53469178372867      0.48376438131992
  C   -0.66922262190403      0.01103897228176      0.33044280953563
  Br  0.78500422844227      2.20728459942884      1.46691239189857
  H   -1.06053157648386      0.00786246098384      1.35946592846702
  C   1.63466396468042     -0.40764424497605      1.18906769567371
  N   2.28598668933479     -1.18027037741624      1.79039021508089
  N   1.36601410953808      0.75430526047660     -0.92375020438017
  O   1.39081612759903      1.87777422564711     -1.38611548108242
  O   1.71035248541698     -0.28747953634495     -1.47152002630204
  C   -0.73559222475675     -1.40945185021257     -0.21571388883085
  H   -0.42411107432142     -1.43748833617015     -1.25933488598837
  H   -0.11629540827876     -2.09880979833571      0.35870804722688
  H   -1.77127196566713     -1.75364617435889     -0.14840948529131
  N   -1.36584635905938      0.90749004782451     -0.57186139558165
  H   -2.23360174785413      0.48473759768063     -0.87496340436695
  H   -1.57904818875702      1.79160536976260     -0.12708269737885
