16
Coordinates from ORCA-job run
  C   0.73339228433345      0.52140994342821      0.50210911090096
  C   -0.72847713860574     -0.04956072587907      0.37632362518890
  Br  0.74502472167277      2.28346078280826      1.30376551273671
  H   -1.02252285270340     -0.23363326816012      1.41568937992630
  C   1.56494472486959     -0.35393263363875      1.31038542293299
  N   2.16053592168045     -1.08291900955372      2.01549147748651
  N   1.31829307457014      0.60901587969296     -0.90410637944899
  O   0.84196447834894      1.46531527170808     -1.63777566642366
  O   2.13801118781265     -0.24853874322769     -1.21172226244023
  C   -0.68643855227203     -1.37227626136221     -0.38146754905690
  H   0.05469881570154     -2.06269458157595      0.02377459638543
  H   -0.46457089602719     -1.20924455022931     -1.43985970486572
  H   -1.67337742991309     -1.82994267194766     -0.31482563580393
  N   -1.70604851855309      0.82069595521928     -0.21369056429786
  H   -1.45440720739106      1.06743602544105     -1.16289858488880
  H   -1.81902261352394      1.67340858727664      0.31880722166828
