16
Coordinates from ORCA-job run
  C   0.79154108104601      0.56874441732988      0.21065787041843
  C   -0.48872255264863     -0.31355736607118      0.15009463567892
  Br  0.52265951730573      2.34448506161425     -0.47387670581415
  H   -0.13714970593285     -1.30048537756290      0.48507462606006
  C   1.25579973067723      0.65935520373648      1.58744161246654
  N   1.56791571897647      0.71101975103374      2.71983514677294
  N   1.87235833498643     -0.17497429700521     -0.59716017954459
  O   2.29412437411288     -1.18283424582994     -0.03949291902735
  O   2.16024248645847      0.22378878720004     -1.71301616634328
  C   -1.03954961745496     -0.43003011416494     -1.26065327884360
  H   -1.82654379347791     -1.18826910443417     -1.27101945506196
  H   -1.46723611241484      0.52171604665005     -1.57953316504950
  H   -0.27767388261526     -0.72854540883338     -1.98166150057002
  N   -1.46692422298161      0.27493938705812      1.04007376892449
  H   -2.40737230992747      0.07109744390408      0.73130960097193
  H   -1.35546904610969     -0.05545018462493      1.98992610896115
