16
Coordinates from ORCA-job run
  C   0.77245858788742      0.50646761565303      0.16357971618421
  C   -0.57426104479660     -0.29669146404194      0.20570563818682
  Br  0.62295264255414      2.13965768297077     -0.85311167452034
  H   -0.32984741522379     -1.16871439885498      0.82274306314782
  C   1.19333655834546      0.83602555907577      1.51623422211182
  N   1.45773428560584      1.09299739362809      2.63303705173354
  N   1.83234353371181     -0.42413182420057     -0.44650476346960
  O   2.23270308861353     -0.21631482178864     -1.57886310571163
  O   2.11702721947304     -1.36921271138510      0.28190724013161
  C   -0.99440548685955     -0.76292740944350     -1.17846874918491
  H   -1.23211451947604      0.08440545604772     -1.82489789890040
  H   -0.22625997017580     -1.36452419649076     -1.66671217700123
  H   -1.89214668051239     -1.37144414919384     -1.06619308088597
  N   -1.64996782249252      0.41047944034534      0.84815120595394
  H   -1.43197554693613      0.65424200397219      1.80654592269213
  H   -1.89757742971840      1.24968582370642      0.33884738953219
