16
Coordinates from ORCA-job run
  C   0.83542919622919      0.32365842300076      0.38441025748957
  C   -0.66004836329453      0.06614751438665      0.05439129417447
  Br  1.18425766883800      0.27768705086615      2.28803387011002
  H   -1.19565047160647      0.96119365711203      0.41199020034657
  C   1.70419835609400     -0.63724589028460     -0.28119388590867
  N   2.42562263597327     -1.42106994548767     -0.77837632459944
  N   1.24919909440398      1.73648772452327     -0.14129881141901
  O   0.88915707336087      1.97432625083883     -1.28824380100345
  O   1.89489081844218      2.47417993305713      0.57992462478214
  C   -1.18620855508487     -1.16599000137797      0.78273456169044
  H   -2.21179025087771     -1.35093032443449      0.45256570696858
  H   -1.20260760462041     -1.03974351976530      1.86202973906746
  H   -0.58477859974426     -2.04099440625597      0.52644844895382
  N   -0.78131352007547     -0.18791737386168     -1.36966346517740
  H   -1.67057442122639     -0.62621608424094     -1.56710362007742
  H   -0.69078305681137      0.65542699192378     -1.91664879539767
