16
Coordinates from ORCA-job run
  C   0.79143981443562      0.52993591354304      0.47184575017792
  C   -0.66329206524661      0.01077931343060      0.34193304263642
  Br  0.81757129339680      2.19673831897678      1.46448287910240
  H   -1.03599620135929      0.00381663016917      1.37786782095672
  C   1.65387213242708     -0.41921092886009      1.15644506113429
  N   2.31118957101566     -1.19808071591610      1.74283341772726
  N   1.35127360556816      0.75644799077719     -0.94451269298202
  O   1.68575469284772     -0.28231711019864     -1.50377033449591
  O   1.36895449557685      1.88254712719712     -1.40079208723464
  C   -0.74266247807753     -1.40715341156088     -0.20898662331242
  H   -0.44294206090344     -1.43285028797246     -1.25603643393494
  H   -1.77925421404015     -1.74684430376545     -0.13212471417881
  H   -0.12087504117106     -2.10134673024988      0.35681339790621
  N   -1.37329919464081      0.91290390663706     -0.54408306854919
  H   -1.57017936041006      1.79805795987531     -0.09379410011237
  H   -2.25055498941894      0.49657632791723     -0.82812131484091
