16
Coordinates from ORCA-job run
  C   0.78012405323541      0.43632712682888      0.42683696815112
  C   -0.66983094894984      0.03527256376835      0.10058709917041
  Br  1.03441671632626      0.80308018330403      2.32050237110321
  H   -1.30180824557012      0.80660404985419      0.55172194538053
  C   1.72919470617172     -0.57495039379391     -0.00607359919708
  N   2.43804256774245     -1.45872684968464     -0.32002296623047
  N   1.08872112583752      1.75119718367074     -0.30090441655655
  O   2.20988250585782      1.88102176978754     -0.76795186585713
  O   0.18174521301179      2.57203098988356     -0.31947430146190
  C   -1.01576317848074     -1.33046960462189      0.67121837543543
  H   -2.07140251806004     -1.53694925827960      0.48099537069760
  H   -0.84730595468455     -1.37971967869755      1.74696743072289
  H   -0.41744896071308     -2.10779531145368      0.18853071170839
  N   -0.74144479904214      0.04197157119918     -1.35127340724009
  H   -1.22347626063241      0.85685038122475     -1.70309948833781
  H   -1.17464602205005     -0.79474472298995     -1.71456022748857
