16
Coordinates from ORCA-job run
  C   0.79970431950074      0.34223501628679      0.38973910822937
  C   -0.71100584961620      0.03079338008767      0.20271846762191
  Br  1.32050035307682      0.43150554162610      2.25754967215952
  H   -1.23449326666460      0.77632197848177      0.80765601543294
  C   1.62794644006355     -0.63145418194555     -0.30152420114830
  N   2.21290327893222     -1.48569410060130     -0.85946818310967
  N   1.05494442126638      1.73033427942032     -0.20786225770771
  O   0.33868550327478      2.62549626914314      0.21717118602372
  O   1.91145257337489      1.82184975204415     -1.07787351911957
  C   -1.04902796809928     -1.37231644168926      0.68077312462239
  H   -0.77022308822095     -1.53033795801056      1.72227090834496
  H   -0.54491494039576     -2.12371903806779      0.06697966181867
  H   -2.12460559623418     -1.51483619115670      0.57419712440180
  N   -1.12825102428139      0.19211177609623     -1.16987933975110
  H   -0.64720319284325     -0.43682837055359     -1.80118601912293
  H   -1.05641196313378      1.14453828883858     -1.50126174869601
