16
Coordinates from ORCA-job run
  C   0.82063797795303      0.38525138961655      0.39782903523885
  C   -0.66215779880986      0.07176212550097      0.12819726434907
  Br  1.17280923481568      0.71081060788030      2.28346128331981
  H   -1.22966421555109      0.87160372117105      0.61407988953582
  C   1.69163877478421     -0.67226924521145     -0.08581638937131
  N   2.33546844540695     -1.59028254536994     -0.43896397287119
  N   1.17457700620528      1.69034040485649     -0.32661538520179
  O   0.31583565586102      2.56127129384562     -0.29991317649861
  O   2.28235169041984      1.76316091357935     -0.83607580953729
  C   -1.06215988585137     -1.27934312209914      0.69841788420557
  H   -0.52668671763588     -2.08339524450791      0.18669469452839
  H   -2.13412892195365     -1.42450888687922      0.54652167267262
  H   -0.85700185761614     -1.34981427636059      1.76664072327892
  N   -0.79320159682980      0.10184079898374     -1.31892174938972
  H   -1.24200313391597      0.94720472297935     -1.64150343124617
  H   -1.28631465728224     -0.70463265798518     -1.67403253301298
