16
Coordinates from ORCA-job run
  C   0.79238102977015      0.53502735172050      0.51891238636812
  C   -0.67180745933427      0.04070674398904      0.40081255637544
  Br  0.93490032172463      2.28693962084800      1.31649854890816
  H   -0.96711510512700     -0.16312380611162      1.43614998812210
  C   1.57823651488268     -0.39830303978991      1.31334398767872
  N   2.14842245395423     -1.17868008257566      1.98297676302422
  N   1.39000020390146      0.59664483618610     -0.89340095794905
  O   2.31273520353760     -0.16739387269043     -1.14584279247808
  O   0.84497569935473      1.36883321245329     -1.66992658821821
  C   -0.69973923360574     -1.27038324667522     -0.39372092118057
  H   -1.70847931558176     -1.68597734235283     -0.34657171225614
  H   -0.46532897596286     -1.08971074856637     -1.44629793157731
  H   -0.00583536306119     -2.01895005714983     -0.00379504439510
  N   -1.54319428483645      1.08494274994556     -0.09008885818811
  H   -1.43471644057416      1.21462705697618     -1.08767178940739
  H   -2.50543524904206      0.84380062379321      0.10762236517322
