16
Coordinates from ORCA-job run
  C   0.84394784530134      0.34618646517937      0.38426195799079
  C   -0.65624011982266      0.11666591616265      0.12754550553578
  Br  1.22273971767157      0.71050896103363      2.25761073727565
  H   -1.17201828156385      0.96469912394721      0.58875730608538
  C   1.64619717609296     -0.77813924721994     -0.06633027502560
  N   2.23033135801021     -1.74515266700593     -0.39148136516262
  N   1.27522123426972      1.60299929861510     -0.38313269443478
  O   0.47301336706670      2.52660901436616     -0.38044765548100
  O   2.38219027805935      1.58975118202144     -0.89929760097075
  C   -1.13600376958479     -1.18905568377986      0.74025258900473
  H   -0.92712122368613     -1.24120391668643      1.80871532391091
  H   -2.21600334078992     -1.27130919017193      0.59905240705640
  H   -0.65564656357349     -2.03969852626438      0.24968932578292
  N   -0.79069501246498      0.10919627699080     -1.31968149689562
  H   -1.18471402008266      0.97135438952956     -1.66820030305480
  H   -1.33619864490336     -0.67441139671745     -1.64831376161739
