16
Coordinates from ORCA-job run
  C   0.70761460951936      0.53073482964921      0.52809168081287
  C   -0.73336099415499     -0.08171823852271      0.36110626819029
  Br  0.65036655121904      2.27175070534435      1.37183059602602
  H   -1.03947611784885     -0.30117567546597      1.39004247528504
  C   1.55190708318975     -0.33851047711934      1.32963883652271
  N   2.15719073725038     -1.06519706138996      2.02880784188690
  N   1.31425308377119      0.67104887501307     -0.86510515966273
  O   0.82300792582997      1.52870536363361     -1.58699508077680
  O   2.16808453952068     -0.15074241602406     -1.17726594585384
  C   -0.63688188274784     -1.38243354607357     -0.42881098808934
  H   -0.39957075573467     -1.18547630715011     -1.47793667203438
  H   0.11648198967378     -2.06104413180941     -0.02650869739739
  H   -1.61110642090040     -1.86989522976481     -0.39383522681702
  N   -1.72678530205660      0.77328892161864     -0.22457138175175
  H   -1.46377895980669      1.05612867655977     -1.16059149431083
  H   -1.87894608672411      1.60553571150128      0.33010294797026
