16
Coordinates from ORCA-job run
  C   0.72433713047196      0.53908879865445      0.49646457692515
  C   -0.72635388337476     -0.06167740227534      0.37864552801205
  Br  0.70271825240837      2.30613104440783      1.28688071710757
  H   -1.01344577235246     -0.24562093032865      1.41997834357879
  C   1.57539903490285     -0.31433888506988      1.30778420693680
  N   2.18827479332972     -1.02596016067814      2.01592417012783
  N   1.30319877144462      0.62938565996614     -0.91210060578551
  O   2.13837736283749     -0.21421173173999     -1.21684297788945
  O   0.80807676984234      1.47148683803758     -1.64973343637159
  C   -0.66026875290438     -1.38776924676587     -0.37140187569990
  H   -0.44472375468346     -1.22671947961715     -1.43140631867180
  H   -1.63781394182027     -1.86439828476813     -0.29920485331017
  H   0.09533270059204     -2.06108304665644      0.03588061103480
  N   -1.72276484581804      0.78552668548261     -0.21325479443010
  H   -1.47842994310058      1.03296000206735     -1.16422931480882
  H   -1.85191392177545      1.63820013928364      0.31561602324433
