16
Coordinates from ORCA-job run
  C   0.84281550408192      0.35145902324556      0.38316417595624
  C   -0.65648098691686      0.10951483802514      0.13098241158787
  Br  1.22639824814341      0.70491857998871      2.25724933878864
  H   -1.17742792726389      0.94996764379403      0.60011999338205
  C   1.65334675453014     -0.76176513838638     -0.08008450351370
  N   2.24486199195892     -1.72093558913721     -0.41493446003763
  N   1.25845726555202      1.61809967851946     -0.37665041672836
  O   0.44684513324960      2.53340559437343     -0.36444913919337
  O   2.36350853119365      1.61978700017802     -0.89698898641604
  C   -1.12153817845354     -1.20466683532522      0.73669588833551
  H   -0.90966612533033     -1.26160580356193      1.80431752479705
  H   -0.63416957356730     -2.04735154525779      0.23933914505882
  H   -2.20104899079571     -1.29679468970513      0.59756725487792
  N   -0.79644219652182      0.11112800126269     -1.31601557663891
  H   -1.20292195962593      0.97126529343182     -1.65539295669379
  H   -1.33653749023428     -0.67542605144520     -1.64691969356229
