16
Coordinates from ORCA-job run
  C   0.78523436299415      0.53517637212857      0.30663088907995
  C   -0.44890567846725     -0.38769980482289      0.08737677152761
  Br  0.34465396079541      2.40581256197409      0.30104382798623
  H   -0.00965899570560     -1.39444059521709      0.02934289046191
  C   1.42118473808667      0.20367688131192      1.57341499549381
  N   1.87540033752361     -0.09506892868325      2.61597334494097
  N   1.78297359073151      0.20140275788865     -0.81819026592862
  O   1.89213108819756      0.96666886951648     -1.76154294064755
  O   2.32930667755162     -0.88847942774605     -0.68218579179634
  C   -1.17170546163947     -0.08118735790053     -1.21303240979466
  H   -0.49718957795801     -0.06435581711466     -2.06975681738910
  H   -1.67666587712264      0.88374709085653     -1.14769304665598
  H   -1.92059903326982     -0.85676747114445     -1.39182382976180
  N   -1.32953487758237     -0.21565826862295      1.22305631410246
  H   -1.08602703716714     -0.83679490247572      1.98360854449871
  H   -2.29259821696825     -0.37803195994865      0.96377752388240
