16
Coordinates from ORCA-job run
  C   0.70717592487354      0.51481761147976      0.54488188832727
  C   -0.74122616537709     -0.07023951608620      0.34668354786980
  Br  0.66423981516053      2.25162160233209      1.39903690308130
  H   -1.07131724581884     -0.28995701149754      1.36814608269451
  C   1.51986227724536     -0.37420638236580      1.35714134787599
  N   2.09951137573643     -1.11663799478450      2.06159505097699
  N   1.34258074622840      0.65274814897892     -0.83531512216484
  O   0.88379921740782      1.52626861867135     -1.55972194439356
  O   2.18243440603405     -0.18686022304045     -1.13831376231878
  C   -0.65318998407097     -1.36847488465160     -0.44857983286951
  H   -1.63584748425929     -1.83977900858287     -0.43282858574241
  H   0.08129070403236     -2.06198182142077     -0.03658383825500
  H   -0.39445482034764     -1.17045207463497     -1.49250959585917
  N   -1.70764481813667      0.80579642206561     -0.25308934858283
  H   -1.85376222246882      1.63863141940387      0.30233040870443
  H   -1.42245172623918      1.08770509413308     -1.18287319934418
