16
Coordinates from ORCA-job run
  C   0.81439469616070      0.34738597706913      0.35291531072416
  C   -0.70401217203666      0.04454190799465      0.22506785780974
  Br  1.39532517339623      0.49362280235223      2.19931076292905
  H   -1.20157343429089      0.81282363166272      0.82357631292087
  C   1.61178565049286     -0.65580030172926     -0.33234371836886
  N   2.17095113167679     -1.53319217371220     -0.88088484927751
  N   1.06314343843451      1.71296950472209     -0.29779310443407
  O   1.89923140138753      1.76915790048497     -1.19047510275420
  O   0.36376599600259      2.62735058978556      0.11445497612317
  C   -1.03749229678215     -1.34030766717758      0.75659357441843
  H   -0.72046088176208     -1.47164413741659      1.79095018177002
  H   -2.11788283418954     -1.47369167070654      0.69629005075632
  H   -0.56453769977309     -2.11451930720580      0.14626479105594
  N   -1.16574835769041      0.16664493285677     -1.13728962182146
  H   -0.71661725362814     -0.49159840905248     -1.76198283179615
  H   -1.09027255739827      1.10525642007232     -1.50465459005544
