17
Coordinates from ORCA-job run
  C   -0.60042662298615     -0.08449389305891     -0.34960909150895
  C   0.85699579773332     -0.15801795648955      0.11503884358389
  F   -0.68392278474210      0.72966581334014     -1.43616844985290
  H   0.90178207159556     -0.89636249628100      0.92084256665021
  C   -1.59481505811008      0.35789577702041      0.69510344085910
  H   -1.52325500713694     -0.26522470134596      1.58584222954525
  H   -1.41278834253207      1.40075625142387      0.95359387318815
  H   -2.60192049232455      0.27875647304093      0.28111596015659
  N   -1.00032996312047     -1.48464854452376     -0.80644534804555
  O   -1.38879435453329     -1.62881156167402     -1.95532526825725
  O   -0.90612464489485     -2.35037316779827      0.05929696893238
  C   1.37368133167890      1.19801398144478      0.60540677782705
  H   2.43663421720201      1.12499851817951      0.83832018038821
  H   0.84993292321994      1.50664820979904      1.51090716339929
  H   1.24112968518631      1.95853029344590     -0.16490419902532
  C   1.68649175666233     -0.65327381066132     -0.98796821254305
  N   2.36672948710215     -1.03305918586177     -1.86604743529711
