17

C	-0.530812	0.022686	-1.398135
C	0.0	0.0	0.0
Br	-2.555161	0.04285	-1.48918
H	1.093767	0.0	0.0
C	-0.098628	1.187234	-2.15669
N	0.235851	2.148866	-2.74559
N	-0.05144	-1.228685	-2.142362
O	1.078417	-1.115859	-2.608129
O	-0.758313	-2.221735	-2.159611
N	-0.343023	-1.254419	0.641289
H	0.48252	-1.562746	1.147997
H	-1.112826	-1.144295	1.289687
C	-0.376659	1.246146	0.783762
H	-1.442256	1.263018	1.038921
H	-0.128884	2.16174	0.239751
H	0.21814	1.241753	1.702065
H	2.605555	0.0	0.0
