17

C	-0.48861	-0.121148	-1.438929
C	0.0	0.0	0.0
Br	0.313302	1.229098	-2.597107
H	1.094491	0.0	0.0
C	-0.195339	-1.429008	-2.011057
N	0.051397	-2.456886	-2.523871
N	-2.007744	0.066013	-1.463525
O	-2.447575	1.211247	-1.460914
O	-2.678911	-0.960176	-1.356559
N	-0.376431	-1.219984	0.698979
H	-1.091097	-1.052918	1.396352
H	0.45916	-1.576522	1.152743
C	-0.447148	1.271328	0.697334
H	0.144891	1.354779	1.613589
H	-0.258545	2.160314	0.093681
H	-1.512335	1.253908	0.959798
H	2.676563	0.0	0.0
