17

C	-0.459023	0.048117	-1.447786
C	0.0	0.0	0.0
Br	-0.089374	1.759129	-2.321532
H	1.095745	0.0	0.0
C	0.191923	-0.99518	-2.236415
N	0.725863	-1.80682	-2.897481
N	-1.977043	-0.166519	-1.56157
O	-2.684732	0.603231	-0.920704
O	-2.377886	-1.103698	-2.242346
N	-0.381899	-1.332356	0.466801
H	0.453691	-1.774149	0.842548
H	-1.082344	-1.276363	1.195922
C	-0.441814	1.123029	0.917721
H	0.17267	1.038985	1.819324
H	-0.25229	2.105351	0.483876
H	-1.499592	1.060052	1.187592
H	2.711967	0.0	0.0
