17

C	-0.57286	-0.028366	-1.420984
C	0.0	0.0	0.0
Br	0.246722	-1.421413	-2.500835
H	1.093459	0.0	0.0
C	-2.012773	-0.264395	-1.412467
N	-3.169615	-0.469857	-1.355683
N	-0.321098	1.323913	-2.092836
O	-1.259212	2.119847	-2.05684
O	0.798597	1.543	-2.523596
N	-0.398552	-1.250582	0.633575
H	0.438186	-1.652496	1.044488
H	-1.080955	-1.092841	1.363311
C	-0.446118	1.241145	0.758347
H	-1.535858	1.313867	0.854764
H	0.000224	1.17729	1.754244
H	-0.068568	2.157751	0.300356
H	2.759847	0.0	0.0
