17

C	-0.47019	-0.010651	-1.448781
C	0.0	0.0	0.0
Br	0.211624	1.521452	-2.451635
H	1.100753	0.0	0.0
C	-0.043937	-1.219753	-2.145536
N	0.318072	-2.149488	-2.766114
N	-1.997193	0.041158	-1.488405
O	-2.532953	1.12455	-1.269766
O	-2.582369	-1.034253	-1.618945
N	-0.366643	-1.288761	0.572419
H	0.470478	-1.681183	0.994845
H	-1.085788	-1.197913	1.278702
C	-0.464372	1.189858	0.816622
H	-1.530019	1.135818	1.068839
H	-0.282512	2.137356	0.307952
H	0.122482	1.185554	1.739957
H	2.672292	0.0	0.0
