17

C	-0.579807	-0.01086	-1.420279
C	0.0	0.0	0.0
Br	0.219967	-1.401044	-2.518971
H	1.094989	0.0	0.0
C	-2.022521	-0.235019	-1.398807
N	-3.177752	-0.438555	-1.313311
N	-0.325651	1.346875	-2.08351
O	-1.24943	2.156008	-2.002919
O	0.777813	1.556013	-2.556793
N	-0.400926	-1.256794	0.618689
H	0.432843	-1.664125	1.031594
H	-1.089464	-1.106828	1.344742
C	-0.44326	1.230453	0.777718
H	-0.071464	2.154559	0.32959
H	0.011157	1.152478	1.770091
H	-1.533446	1.29956	0.883322
H	2.755497	0.0	0.0
