16

C	-0.461487	-0.071127	-1.449501
C	0.0	0.0	0.0
Br	0.043896	1.569396	-2.410271
H	1.095133	0.0	0.0
H	0.137393	-0.850164	-1.931181
C	-1.948493	-0.300777	-1.65377
H	-2.199216	-0.321944	-2.71697
H	-2.242427	-1.257211	-1.211051
H	-2.524823	0.496655	-1.178128
C	-0.347479	-1.289231	0.756578
H	0.203401	-1.288985	1.700466
H	-1.414782	-1.406385	0.96401
H	0.008247	-2.148037	0.17893
C	-0.545315	1.151848	0.696193
N	-1.016065	2.058587	1.280173
H	2.739424	0.0	0.0
