16

C	-0.491324	-0.036244	-1.443123
C	0.0	0.0	0.0
Br	-2.659765	0.332894	-1.248607
H	1.09479	0.0	0.0
N	0.123562	0.822172	-2.300647
H	-0.150703	0.782957	-3.269003
H	0.34097	1.732356	-1.920907
C	-0.546541	-1.392682	-1.971521
N	-0.55361	-2.447068	-2.491486
N	-0.47635	-1.094024	0.748446
H	0.144725	-1.27593	1.525034
H	-1.421328	-0.946622	1.078132
N	-0.347146	1.360708	0.613429
O	-0.044377	2.367454	-0.026259
O	-0.8574	1.36718	1.726811
Br	3.361298	0.0	0.0
