15
Coordinates from ORCA-job run
  C   0.65757409765103     -0.38158580201753      0.45331463412173
  C   -0.61202891234004     -0.04189861210345     -0.33143246993373
  F   0.70787860502701      0.44659131935037      1.57237825908531
  H   -0.66753929452354     -0.74182325467690     -1.17457658417212
  H   0.55616292561509     -1.40699278910625      0.82717955892046
  C   1.93824241607614     -0.21493100960350     -0.32951868745541
  H   2.79087509620353     -0.48370087954196      0.29573499369021
  H   2.05473334222681      0.82223477661537     -0.64804049406455
  H   1.93762632728584     -0.85896824478588     -1.21218745752194
  C   -0.51667609212977      1.30985950726055     -0.89066976842710
  N   -0.44201114860768      2.39481696021857     -1.33201510962786
  C   -1.86986103679594     -0.18236372451531      0.53114585331757
  H   -2.76625918735692      0.03593621351222     -0.05098315656289
  H   -1.94454111871896     -1.20315173090664      0.91353541020701
  H   -1.82417601961261      0.50397727030031      1.37613501842331
