15
Coordinates from ORCA-job run
  C   0.82898437379199     -0.17787502772798     -0.50327412006958
  C   -0.68174777126963     -0.30851649488621     -0.30241253404580
  F   1.22496009091423     -1.21488600032228     -1.34485673736440
  H   -0.86500649272355     -1.30642954764092      0.11350013258765
  H   1.04804843815263      0.75729825900168     -1.03023725707190
  C   1.62451788647238     -0.27746374158963      0.77804327193939
  H   2.68652085669778     -0.33127012498774      0.53384388679315
  H   1.46555458905786      0.59171657100570      1.41778817536704
  H   1.35162751795018     -1.18159514311362      1.32753892698835
  C   -1.35187735406821     -0.24329876913561     -1.60467295286749
  N   -1.89963344893638     -0.15054403622178     -2.63855728365237
  C   -1.24894388247208      0.75984479767228      0.63802057903669
  H   -0.86405527224964      0.62638662510769      1.64949156429823
  H   -2.33692720150799      0.69413484269488      0.67681288459762
  H   -0.98302232980957      1.76049779014354      0.28897146346342
