15
Coordinates from ORCA-job run
  C   0.86141329762571     -0.03679883739719     -0.47636772053378
  C   -0.63356140585543     -0.34002226263581     -0.36484139901411
  F   1.39639516635094     -0.92800239561797     -1.40409313573892
  H   -0.72697209416313     -1.38905897976686     -0.05971586125329
  H   1.00039479659768      0.96899796841677     -0.88833243319076
  C   1.61387638566868     -0.19898844488635      0.82468919859000
  H   1.41696706464419     -1.18196430506367      1.25952167679192
  H   2.68413182887959     -0.11834342689561      0.62870098625462
  H   1.34037908289882      0.57267376364889      1.54578345379248
  C   -1.25611992568880     -0.20745280221626     -1.68540079267673
  N   -1.77109512448510     -0.06439308571387     -2.73037161395027
  C   -1.34585477373181      0.56183318298343      0.64848078528690
  H   -1.17296010965904      1.61502708777631      0.41462081166042
  H   -2.42163727133404      0.38365783731120      0.62710824073064
  H   -0.98835691774829      0.36283470005700      1.65921780325087
