15
Coordinates from ORCA-job run
  C   0.66229669470338     -0.84436211070700     -0.09220979679419
  C   -0.75149606419132     -0.34097766139665     -0.41725498054206
  F   0.53008113730227     -1.74937711670055      0.96225267805994
  H   -1.35180911519154     -1.23059089439296     -0.64045620972523
  H   1.03901157456062     -1.41491188061877     -0.94716475418846
  C   1.64599781670357      0.22946919315292      0.30789546941431
  H   2.62261676055330     -0.22139736533722      0.49049003621141
  H   1.75037849279984      0.97405109568406     -0.48412905704370
  H   1.32498559428675      0.72514478168148      1.22471276758725
  C   -0.70223316364845      0.47700673817084     -1.62993450290439
  N   -0.65038247117666      1.15540944585271     -2.58687828358388
  C   -1.40472613531723      0.42210150884383      0.73836551165229
  H   -2.45422170407131      0.61920338694805      0.51453143453311
  H   -0.91163276872971      1.37875831432873      0.91352374599670
  H   -1.34886664858351     -0.17952743550948      1.64625594132688
