15

C	-0.585164	-0.038539	-1.397161
C	0.0	0.0	0.0
F	-0.376767	1.152863	-2.093013
H	1.095056	0.0	0.0
H	-1.672237	-0.188014	-1.342959
C	-0.026811	-1.141526	-2.200995
N	0.389393	-2.023054	-2.853968
N	-0.413255	-1.277195	0.615576
H	0.44139	-1.721667	0.931171
H	-0.994279	-1.110897	1.428478
C	-0.507888	1.21052	0.757612
H	-0.257568	2.132275	0.229862
H	-1.598355	1.180705	0.910331
H	-0.016543	1.242474	1.733863
F	2.65367	0.0	0.0
