15

C	-0.581054	-0.05855	-1.397924
C	0.0	0.0	0.0
F	-0.3607	1.120506	-2.112686
H	1.100779	0.0	0.0
H	-1.67013	-0.199507	-1.348233
C	-0.028353	-1.177574	-2.183483
N	0.350899	-2.054945	-2.863971
N	-0.413276	-1.267619	0.633298
H	0.435692	-1.694427	0.986018
H	-1.025081	-1.093052	1.422028
C	-0.504424	1.22362	0.739048
H	-0.25201	2.136358	0.196054
H	-0.011956	1.269635	1.714012
H	-1.594922	1.199705	0.893566
F	2.652382	0.0	0.0
