15

C	-0.471956	-0.053205	-1.441595
C	0.0	0.0	0.0
F	-0.176893	1.1163	-2.139829
H	1.095511	0.0	0.0
H	-1.568679	-0.168125	-1.494336
C	0.123347	-1.19241	-2.168462
N	0.52092	-2.11816	-2.770545
N	-0.387077	-1.237394	0.686929
H	-1.240723	-1.64777	0.319916
H	0.369988	-1.89963	0.565847
C	-0.573337	1.214673	0.700988
H	-1.671351	1.177792	0.762797
H	-0.278436	2.134002	0.19042
H	-0.174206	1.238346	1.716257
F	2.645209	0.0	0.0
