15

C	-0.460132	0.012962	-1.429324
C	0.0	0.0	0.0
F	-1.868368	-0.0414	-1.539566
H	1.102077	0.0	0.0
H	-0.071414	-0.878078	-1.926262
C	-0.036364	1.215116	-2.169209
N	0.251653	2.169467	-2.788462
N	-0.389737	-1.297733	0.569058
H	0.372125	-1.581339	1.173802
H	-1.231489	-1.213006	1.127856
C	-0.503882	1.196274	0.793737
H	-1.597819	1.201485	0.887801
H	-0.191038	2.139335	0.335482
H	-0.064616	1.158977	1.794161
F	2.639546	0.0	0.0
