14

C	0.0	0.0	0.0
C	-0.42816	-0.152581	-1.462589
F	1.395289	0.0	0.0
H	-1.525786	-0.180287	-1.445489
H	-0.328677	-0.86964	0.572174
N	-0.485598	1.182757	0.614631
H	-1.451696	1.005725	0.889515
H	-0.513152	1.910214	-0.093459
C	0.076773	-1.417611	-2.027011
N	0.467187	-2.428752	-2.481411
N	0.019872	1.021599	-2.208851
H	1.022616	0.972544	-2.342272
H	-0.426196	1.045056	-3.115998
Br	-3.729481	0.0	0.0
