14

C	0.0	0.0	0.0
C	-0.321112	-0.034189	-1.520535
F	1.388096	0.0	0.0
H	0.071868	-0.999383	-1.865633
H	-0.303597	-0.947045	0.467206
N	-0.520158	1.17452	0.614253
H	-0.400743	1.115587	1.619095
H	-1.526402	1.185129	0.444091
C	0.501498	0.999417	-2.179808
N	1.126455	1.8159	-2.744312
N	-1.67844	0.102809	-1.994253
H	-2.31923	-0.508275	-1.493204
H	-2.030216	1.033443	-1.803798
Br	-4.255025	0.0	0.0
