14

C	0.0	0.0	0.0
C	-0.395166	0.285969	-1.460603
F	1.40368	0.0	0.0
H	0.165513	-0.425963	-2.077246
H	-0.335199	-1.001223	0.280939
N	-0.554054	0.947235	0.873298
H	-0.539705	0.676269	1.842996
H	-0.171016	1.872558	0.740169
C	0.123457	1.628316	-1.800183
N	0.540354	2.70213	-2.026623
N	-1.794249	0.19964	-1.795937
H	-2.090016	-0.767821	-1.828417
H	-2.390827	0.621029	-1.083266
Br	-4.67128	0.0	0.0
