14

C	0.0	0.0	0.0
C	-0.30114	0.007716	-1.570357
F	1.401702	0.0	0.0
H	0.228453	0.92178	-1.885175
H	-0.349239	-0.915649	0.461893
N	-0.285141	1.220156	0.708968
H	-1.050996	1.724369	0.294659
H	-0.613902	0.995237	1.635331
C	-1.516519	0.06322	-2.429818
N	-2.418518	0.041768	-3.192441
N	0.346533	-1.209241	-2.094248
H	0.183601	-1.24768	-3.10041
H	1.336125	-1.112018	-1.930608
Br	-3.27751	0.0	0.0
