18

C	-0.168407	-0.002536	-1.530362
C	0.0	0.0	0.0
Cl	-1.923257	0.034752	-2.029288
H	1.103205	0.0	0.0
N	0.412745	1.234929	-2.025077
H	0.391386	1.231872	-3.03962
H	1.391929	1.221346	-1.732708
N	0.385336	-1.235627	-2.05094
H	1.340812	-1.293837	-1.693934
H	0.438061	-1.176201	-3.063051
C	-0.552725	-1.236448	0.676891
H	-0.180044	-2.148825	0.214075
H	-1.646766	-1.243726	0.621005
H	-0.259082	-1.212395	1.727605
N	-0.490656	1.197119	0.660877
H	-0.005617	1.994937	0.267669
H	-1.470924	1.311056	0.416558
Br	3.585167	0.0	0.0
