18

C	-0.34191	0.092766	-1.490429
C	0.0	0.0	0.0
Cl	-0.16656	-1.730292	-2.231196
H	1.102225	0.0	0.0
N	-1.668932	0.51309	-1.753419
H	-2.314784	-0.015623	-1.181586
H	-1.903801	0.367096	-2.72768
N	0.606333	0.913698	-2.11685
H	0.506768	0.933829	-3.122564
H	1.553753	0.644352	-1.85441
C	-0.53992	-1.201696	0.749122
H	-0.369504	-1.042578	1.817378
H	-1.618973	-1.317876	0.601626
H	-0.034108	-2.11848	0.45181
N	-0.524801	1.230281	0.636474
H	-0.37531	1.993853	-0.015612
H	0.093066	1.416432	1.420892
Br	3.637737	0.0	0.0
