18

C	-0.444418	-0.110786	-1.449165
C	0.0	0.0	0.0
Cl	0.076939	1.649465	-2.292048
H	1.09405	0.0	0.0
N	0.27421	-1.10556	-2.115161
H	1.270752	-0.965916	-1.962551
H	0.076081	-1.118959	-3.106855
N	-1.840239	-0.199789	-1.574691
H	-2.235555	0.522361	-0.980727
H	-2.139819	-0.051329	-2.529614
C	-0.455729	-1.236098	0.769503
H	-1.54211	-1.244365	0.88548
H	-0.141745	-2.142114	0.252562
H	0.014554	-1.22805	1.758203
N	-0.604521	1.187717	0.611611
H	-0.379952	1.161164	1.599906
H	-0.127253	2.000256	0.234212
Br	3.623111	0.0	0.0
