18

C	-0.579195	-0.010774	-1.419843
C	0.0	0.0	0.0
Cl	0.114639	-1.472781	-2.331446
H	1.093328	0.0	0.0
N	-2.020977	-0.150602	-1.350776
H	-2.257485	-1.0848	-1.035
H	-2.401265	-0.054821	-2.286853
N	-0.166388	1.155789	-2.113716
H	-0.191059	1.915721	-1.442131
H	-0.753277	1.349214	-2.914348
C	-0.451834	-1.191368	0.840042
H	-0.22227	-2.140531	0.351916
H	-1.525077	-1.145171	1.060598
H	0.08995	-1.169569	1.78842
N	-0.379613	1.291517	0.594153
H	-1.289955	1.22471	1.034027
H	0.313534	1.534272	1.291464
Br	3.66882	0.0	0.0
