18

C	-0.251301	-0.023649	-1.509367
C	0.0	0.0	0.0
Cl	-2.067903	-0.053039	-1.8149
H	1.100618	0.0	0.0
N	0.239302	1.162191	-2.174833
H	-0.09111	1.953307	-1.627338
H	1.252324	1.135472	-2.049047
N	0.317833	-1.219549	-2.061169
H	0.370956	-1.097396	-3.066854
H	1.269224	-1.2953	-1.700329
C	-0.515725	-1.219015	0.745927
H	-0.19576	-2.142958	0.263341
H	-1.610037	-1.213302	0.780328
H	-0.129812	-1.206548	1.769337
N	-0.443471	1.277394	0.553898
H	-1.368947	1.174153	0.953754
H	0.194104	1.547115	1.292539
Br	3.555517	0.0	0.0
