14

C	-0.560991	0.046075	-1.410248
C	0.0	0.0	0.0
Cl	0.19566	-1.183179	-2.435534
H	1.089681	0.0	0.0
H	-0.314218	0.898515	0.54054
N	-1.96754	-0.11564	-1.450429
H	-2.313794	0.03406	-2.389934
H	-2.415124	0.521898	-0.802914
N	-0.176198	1.411275	-2.056915
O	-0.684845	1.631724	-3.153971
O	0.537368	2.178065	-1.424298
C	-0.498177	-1.177422	0.701924
N	-0.88978	-2.108849	1.298918
Br	3.472657	0.0	0.0
