14

C	-0.292802	0.01525	-1.490875
C	0.0	0.0	0.0
Cl	-0.080442	1.754985	-2.077088
H	1.093964	0.0	0.0
H	-0.391609	0.880304	0.5041
N	0.491211	-0.926676	-2.142058
H	0.396109	-0.898732	-3.146642
H	1.463477	-0.857152	-1.839807
N	-1.763465	-0.24331	-1.816383
O	-2.586947	0.076128	-0.967198
O	-2.00908	-0.713308	-2.921729
C	-0.491724	-1.220751	0.625001
N	-0.885492	-2.200979	1.13658
Br	3.436114	0.0	0.0
