14

C	-0.32451	-0.057103	-1.497671
C	0.0	0.0	0.0
Cl	-0.016022	1.553259	-2.186265
H	1.093248	0.0	0.0
H	-0.40138	0.894763	0.475127
N	0.403137	-1.024172	-2.241251
H	1.39267	-0.88293	-2.034162
H	0.134321	-1.955935	-1.943914
N	-1.827678	-0.339615	-1.645143
O	-2.588946	0.504147	-1.187
O	-2.154605	-1.416877	-2.132483
C	-0.483859	-1.202151	0.664908
N	-0.880467	-2.18556	1.170484
Br	3.428646	0.0	0.0
