15

C	-0.549721	0.053018	-1.418307
C	0.0	0.0	0.0
Cl	0.219988	-1.174653	-2.46138
H	1.090676	0.0	0.0
H	-1.614942	-0.18347	-1.403814
C	-0.364144	1.375446	-2.008864
N	-0.237328	2.441822	-2.485213
N	-0.466941	-1.270929	0.646282
O	0.145734	-1.632443	1.644853
O	-1.464061	-1.834241	0.185529
C	-0.496021	1.146369	0.87034
H	-0.109623	1.003541	1.879917
H	-0.100813	2.087953	0.490214
H	-1.589434	1.190856	0.899799
Br	3.448473	0.0	0.0
