15

C	-0.428881	0.029259	-1.455542
C	0.0	0.0	0.0
Cl	-2.227293	0.028375	-1.625267
H	1.093554	0.0	0.0
H	-0.09664	0.991723	-1.851881
C	0.117833	-1.007141	-2.327034
N	0.51583	-1.758448	-3.136437
N	-0.449201	-1.26219	0.659487
O	-0.790014	-1.202848	1.84037
O	-0.422727	-2.291896	-0.010836
C	-0.456691	1.217822	0.776416
H	-0.10611	2.111668	0.255371
H	-1.540932	1.260137	0.886984
H	0.002569	1.20525	1.762525
Br	3.37441	0.0	0.0
