15

C	-0.459314	-0.009083	-1.459016
C	0.0	0.0	0.0
Cl	0.098252	1.469868	-2.293305
H	1.094915	0.0	0.0
H	0.006499	-0.847452	-1.973453
C	-1.914287	-0.106146	-1.57657
N	-3.084101	-0.189421	-1.645561
N	-0.389998	-1.32244	0.597001
O	-0.509628	-1.384398	1.816844
O	-0.521245	-2.280052	-0.167506
C	-0.54021	1.133956	0.840313
H	-0.110902	1.075648	1.838389
H	-1.630791	1.098125	0.916787
H	-0.238135	2.081743	0.394828
Br	3.406234	0.0	0.0
