15

C	-0.455083	-0.001111	-1.460527
C	0.0	0.0	0.0
Cl	0.089649	1.490757	-2.278404
H	1.093312	0.0	0.0
H	0.022727	-0.829339	-1.979413
C	-1.908303	-0.111096	-1.586719
N	-3.078447	-0.174884	-1.669257
N	-0.385282	-1.327488	0.588078
O	-0.481698	-1.403394	1.809019
O	-0.532402	-2.275846	-0.185243
C	-0.545801	1.127105	0.845213
H	-1.637247	1.093555	0.909029
H	-0.127883	1.056345	1.847064
H	-0.236296	2.078424	0.413423
Br	3.403644	0.0	0.0
