15

C	-0.550969	0.047455	-1.41944
C	0.0	0.0	0.0
Cl	0.22367	-1.17569	-2.463853
H	1.09065	0.0	0.0
H	-1.615273	-0.194797	-1.404386
C	-0.372745	1.370572	-2.009974
N	-0.259702	2.443837	-2.472978
N	-0.464546	-1.267649	0.655187
O	0.117168	-1.590029	1.684544
O	-1.425649	-1.870985	0.170199
C	-0.490046	1.153011	0.863657
H	-0.087084	2.091016	0.481447
H	-0.107324	1.011456	1.874854
H	-1.583591	1.207699	0.890063
Br	3.445558	0.0	0.0
