15

C	-0.547329	0.064311	-1.418939
C	0.0	0.0	0.0
Cl	0.252299	-1.123036	-2.484355
H	1.090664	0.0	0.0
H	-1.607027	-0.198969	-1.410663
C	-0.39881	1.401834	-1.986134
N	-0.300817	2.479114	-2.443606
N	-0.461368	-1.278952	0.636513
O	0.107868	-1.604497	1.671987
O	-1.408175	-1.888569	0.131856
C	-0.493098	1.139425	0.880091
H	-0.094029	2.083996	0.509855
H	-0.109627	0.985128	1.888742
H	-1.586718	1.190257	0.907152
Br	3.442145	0.0	0.0
