15

C	-0.420672	0.040343	-1.459042
C	0.0	0.0	0.0
Cl	-2.214379	0.078009	-1.643147
H	1.093606	0.0	0.0
H	-0.06377	0.997432	-1.846718
C	0.113224	-1.004209	-2.330355
N	0.466889	-1.766564	-3.150836
N	-0.452482	-1.265005	0.651675
O	-0.418497	-2.292651	-0.020335
O	-0.795878	-1.21123	1.830583
C	-0.458326	1.211928	0.783904
H	-1.543052	1.252144	0.893386
H	-0.001244	1.191822	1.771334
H	-0.107787	2.11004	0.270467
Br	3.373728	0.0	0.0
