16

C	0.0	0.0	0.0
C	-0.575897	-0.022727	-1.388477
F	1.39952	0.0	0.0
H	-1.68571	-0.085398	-1.190828
H	-0.316027	-0.916356	0.499223
C	-0.486018	1.20767	0.759569
H	-0.106575	1.173195	1.784832
H	-0.145637	2.121034	0.270004
H	-1.582106	1.161335	0.761276
N	-0.189893	-1.333884	-2.060957
O	0.186032	-1.293869	-3.238073
O	-0.320278	-2.372625	-1.415956
N	-0.217316	1.112067	-2.169156
H	-0.729209	1.107718	-3.040391
H	0.771278	1.079561	-2.386388
H	-3.172539	0.0	0.0
