16

C	0.0	0.0	0.0
C	-0.549814	-0.086955	-1.409387
F	1.39663	0.0	0.0
H	-1.636942	-0.26282	-1.252946
H	-0.316705	-0.903756	0.526079
C	-0.508216	1.220883	0.718237
H	-0.15365	1.216192	1.752301
H	-1.606054	1.162754	0.695272
H	-0.15376	2.13361	0.23141
N	0.04456	-1.327034	-2.026806
O	0.853446	-1.209253	-2.945086
O	-0.293897	-2.400243	-1.527187
N	-0.332552	1.029686	-2.277071
H	0.580295	1.438823	-2.122798
H	-1.052574	1.715872	-2.093962
H	-3.211041	0.0	0.0
