16

C	0.0	0.0	0.0
C	-0.382907	0.017555	-1.553831
F	1.391278	0.0	0.0
H	0.285438	-0.695685	-2.036952
H	-0.266343	-0.944964	0.454328
C	-0.310664	1.22044	0.912329
H	-1.379092	1.423046	1.025284
H	0.105985	1.031705	1.91596
H	0.178118	2.127958	0.539594
N	-0.088845	1.312162	-2.254811
O	-0.842563	2.238406	-2.010903
O	0.992184	1.423212	-2.803118
N	-1.732451	-0.221419	-2.053842
H	-2.002076	-1.131241	-1.843879
H	-2.331023	0.292277	-1.374342
H	-2.104	0.0	0.0
