16

C	0.0	0.0	0.0
C	-0.497296	-0.054339	-1.431725
F	1.396439	0.0	0.0
H	-1.597538	-0.152383	-1.340748
H	-0.33293	-0.907297	0.509092
C	-0.491165	1.223254	0.725854
H	-1.589015	1.185798	0.705918
H	-0.129902	1.205069	1.757675
H	-0.114369	2.13032	0.244625
N	0.039002	-1.337153	-2.015298
O	0.966427	-1.278102	-2.821194
O	-0.459412	-2.38157	-1.597052
N	-0.112071	1.033219	-2.283734
H	0.841698	1.310213	-2.083957
H	-0.73387	1.811918	-2.113863
H	-3.19455	0.0	0.0
