15
Coordinates from ORCA-job run
  C   0.75791100232909      0.23617854635855      0.53970932830943
  C   -0.21118013127053     -0.64254789510078     -0.28033650550380
  F   0.85512728305875     -0.40426122718902      1.77966096064491
  H   0.28613095194910     -1.61939217810221     -0.34713763123552
  N   2.03442738586008      0.36687715717457     -0.04472068090485
  H   2.22423205318447     -0.28132760370867     -0.79334518205580
  H   2.31751333162260      1.30487248823725     -0.27571090201139
  C   0.16190860445895      1.56179094296021      0.79597058365033
  N   -0.33359363672037      2.61119931295581      0.97234313408315
  C   -0.32979475928152     -0.09392324278460     -1.63182977054003
  N   -0.43526031867330      0.34330275639474     -2.71669004180851
  C   -1.57986910881417     -0.81252713598334      0.37965213579821
  H   -2.09903849408666      0.14547751177242      0.44309610411509
  H   -1.45454160820621     -1.21766340770515      1.38316410217223
  H   -2.19397255541029     -1.49905602527978     -0.20482563471345
