15
Coordinates from ORCA-job run
  C   0.73882816823218      0.24433968387178      0.44949631436189
  C   -0.23846894479680     -0.56289812270559     -0.42246557382826
  F   0.92435758193301     -0.52258181305498      1.61783772700443
  H   0.27910214415381     -1.50487468245983     -0.64666646562485
  N   1.94314044642395      0.49746811703348     -0.23309392152140
  H   2.38325413768575     -0.35930053895630     -0.54410028343934
  H   2.58988384236922      1.04561146018981      0.31911406907624
  C   0.13442598986312      1.51792686912665      0.88528965464574
  N   -0.36162886369429      2.51951609580583      1.24398657111275
  C   -0.47775467710973      0.14072590786414     -1.68279436308695
  N   -0.72366668727919      0.68489144858638     -2.69348674454433
  C   -1.55425321259388     -0.86780302710240      0.29698599385684
  H   -2.18411302205597     -1.49569109931868     -0.33446749236537
  H   -1.35427390860546     -1.39252275830835      1.23065120076635
  H   -2.09683299452571      0.05419245942805      0.51371331358626
