15
Coordinates from ORCA-job run
  C   0.76350495249933      0.13243227159966      0.49097265038091
  C   -0.25958981034473     -0.64407372024495     -0.35526716936989
  F   0.93660730874790     -0.57152366217199      1.66915927677582
  H   0.20675362735180     -1.62245564393801     -0.51739280674349
  N   2.02798800273516      0.18247355963314     -0.16635171262640
  H   2.68295985626024      0.75167980626610      0.35668470948223
  H   1.94528877167830      0.55108121520805     -1.10615514928927
  C   0.21673570448669      1.45913351310740      0.87787703177313
  N   -0.18672244559158      2.52956132308830      1.14642807865546
  C   -0.40882324496878      0.01668249578512     -1.65158710274618
  N   -0.51253916040090      0.56962390888577     -2.68255905402248
  C   -1.60483967882060     -0.80498071971864      0.35445420593024
  H   -2.26216340881804     -1.44306600689289     -0.23762883665125
  H   -2.09295977286540      0.16141178291004      0.49163264129513
  H   -1.45120070194938     -1.26898012351710      1.32873323715603
