15
Coordinates from ORCA-job run
  C   0.48188598036107      0.58079970555155      0.40901353944527
  C   -0.37410279078088     -0.24903129059917     -0.56537348236107
  F   -0.32744946452275      1.05089325868925      1.42026853218657
  H   0.29471492674614     -0.62135818966304     -1.35191299773497
  N   1.47793132508695     -0.24954609634705      1.01977746297462
  H   2.11333227599648     -0.62129675142920      0.32343375305790
  H   2.01391047208385      0.29403836855402      1.68727303031445
  C   1.04215032910780      1.77189783038633     -0.28128596717812
  N   1.56074958387305      2.66613355993668     -0.84004901610096
  C   -1.36509521878157      0.62026723824311     -1.20346301700351
  N   -2.18296106764535      1.29375910763287     -1.70919407366743
  C   -1.05694035587800     -1.42206315231811      0.14446299511151
  H   -1.64511637329803     -1.99402139767386     -0.57458302823791
  H   -0.31084798039718     -2.07042124140710      0.60040722065968
  H   -1.72216164195158     -1.05005094955626      0.92322504853400
