15
Coordinates from ORCA-job run
  C   0.53271116224081      0.62273364745357      0.32730791062934
  C   -0.33854972571912     -0.22046764717271     -0.62228651453826
  F   -0.32635685083306      1.18366220582241      1.28543400276932
  H   0.31284231004449     -0.54540605334806     -1.44045500964985
  N   1.55464854816931     -0.16373220060706      0.90911711200467
  H   2.19829351447186      0.40902151800255      1.44103538077454
  H   1.16129275974261     -0.87275034163927      1.51488274737205
  C   1.14636117647412      1.74940246490299     -0.40241874860979
  N   1.64292676160914      2.63860858186239     -0.98607404090071
  C   -1.39705107338490      0.62004812379017     -1.18662021560302
  N   -2.26555657575390      1.26585949686914     -1.64098573762988
  C   -0.94038248773189     -1.44318946374418      0.07829882671204
  H   -1.64595432390417     -1.94055556801385     -0.58797279172042
  H   -0.16074796723094     -2.16315961279888      0.33205633921073
  H   -1.47547722819436     -1.14107515137921      0.97968073917924
