15
Coordinates from ORCA-job run
  C   0.96527466815436      0.16558385901958      0.16028597450984
  C   -0.15369297284901     -0.78056914548404     -0.29942445200742
  F   2.16585414879410     -0.32691155004128     -0.30451379856086
  H   0.10126929210533     -1.76745185118705      0.10347600039888
  N   0.80576607218468      1.47229548083189     -0.39216178025142
  H   1.58065790831765      2.06568559028779     -0.11944105494540
  H   -0.05983107899050      1.90277228590603     -0.09435958721656
  C   1.04616459579107      0.13524776755023      1.64699932218927
  N   1.06361342979825      0.16267180893575      2.82171303837460
  C   -0.13116666430061     -0.87462449013847     -1.76057786115970
  N   -0.17086986993029     -0.97740411675983     -2.92894504736340
  C   -1.53982744851333     -0.36466868525881      0.20231565002340
  H   -1.86188240188501      0.57040360858264     -0.25947163019243
  H   -2.27070899073530     -1.12913569382048     -0.06372751622987
  H   -1.54062068794139     -0.25489486842394      1.28883274243108
