15
Coordinates from ORCA-job run
  C   0.96048149270868      0.05563984038267      0.23324865313523
  C   -0.20083861915389     -0.72276521180719     -0.40267353221839
  F   2.14391547520048     -0.47942767090151     -0.22643114205159
  H   -0.06158260886274     -1.76958213711463     -0.10911484040795
  N   0.94299987833693      1.43033259267035     -0.15543507084431
  H   1.75833385935379      1.90621847223658      0.21353019189504
  H   0.11122361964617      1.90140033457656      0.17666704504794
  C   0.94156487682041     -0.16317544478529      1.70631370679322
  N   0.88017196318816     -0.27931878746803      2.87404735202875
  C   -0.08272361994800     -0.64926912549603     -1.86036277640839
  N   -0.04091476363693     -0.61522420531646     -3.03265690632892
  C   -1.57630859031927     -0.23724061465813      0.06385871855025
  H   -1.78304463637009      0.76927954159704     -0.30366509290971
  H   -2.35133839997214     -0.89547365617490     -0.33024040915504
  H   -1.64093992699155     -0.24939392774104      1.15391410287387
