15
Coordinates from ORCA-job run
  C   0.51949190855199      0.65679496933746      0.38089756397165
  C   -0.35806188355275     -0.23303135842543     -0.53137347017999
  F   -0.35389359865834      1.23721421670209      1.29997020785140
  H   0.30431374375945     -0.65579170236468     -1.29544110432528
  N   1.54691389100299     -0.03708522122062      1.05915612110017
  H   2.48586982862673      0.17762495094451      0.76882362059233
  H   1.39048226737752     -1.02275892027035      1.18604326551353
  C   1.11409165901224      1.75464658100618     -0.40727706770276
  N   1.61393296025445      2.59697417993705     -1.05447786978356
  C   -1.36295991224531      0.58914224425390     -1.20900477416840
  N   -2.18715494880081      1.22418618497132     -1.75268247800696
  C   -1.04601690040892     -1.35895315832105      0.25012412001168
  H   -0.32231168681107     -2.07327082005403      0.64781325544157
  H   -1.71494786088670     -1.90933337716385     -0.41238310103186
  H   -1.62974946722147     -0.94535876933250      1.07181171071646
