15
Coordinates from ORCA-job run
  C   0.75059759683822      0.13715505537306      0.51080623998821
  C   -0.24113437053620     -0.64200537888247     -0.36982190458314
  F   0.90812733691002     -0.58109411071952      1.68229422207037
  H   0.24403531605875     -1.61047650800558     -0.53601183941864
  N   2.02860136011736      0.21587941652340     -0.11682982413139
  H   1.96178814252342      0.59878677649531     -1.05233882198001
  H   2.66337382451935      0.78546904389272      0.43021850353218
  C   0.17332143174368      1.44942573595086      0.90312971610528
  N   -0.25898278925461      2.50821030005200      1.17271099957051
  C   -0.37193065269590      0.03563583148925     -1.65942780094436
  N   -0.46209089582253      0.59904482823943     -2.68603608271961
  C   -1.59917456650484     -0.83431480698594      0.30686786718661
  H   -2.10427633931056      0.12246726035952      0.44958236390233
  H   -1.46020646652788     -1.31295888544352      1.27625821638585
  H   -2.23404892805827     -1.47122455833851     -0.31040185496417
