15
Coordinates from ORCA-job run
  C   0.99991781581954      0.21630955093595      0.17141563005359
  C   -0.09053155981853     -0.77812111704680     -0.30158785353713
  F   2.19310253536479     -0.27714827464079     -0.34176026494168
  H   0.24759855511751     -1.78137608780285     -0.02152975597945
  N   0.84253904975652      1.56174309002782     -0.23930118092208
  H   0.38616408175206      2.16145066976955      0.42884516318544
  H   0.46354670873108      1.65834043301064     -1.17146495674651
  C   1.09011730692942      0.16344845572969      1.64492755643561
  N   1.12466910110870      0.10297402322306      2.81660449840761
  C   -0.15360321378982     -0.70488255266724     -1.76210375562080
  N   -0.23408685094730     -0.58288689016521     -2.92729597860459
  C   -1.46038979255355     -0.48574462885673      0.31261368318605
  H   -1.79764954299262      0.51647488684033      0.04344212787104
  H   -2.19611349670346     -1.20201975349446     -0.05486491744470
  H   -1.41528069777436     -0.56656180486298      1.40006000465762
