15
Coordinates from ORCA-job run
  C   0.74057419178687      0.23947509123352      0.56298769644584
  C   -0.19504614966787     -0.63915127646812     -0.29638599627971
  F   0.82668388931722     -0.42751247524909      1.78717347308931
  H   0.32004293934919     -1.60614411608406     -0.37231889978978
  N   2.03254150182786      0.41608822960364      0.01887389243715
  H   2.24273288158087      1.34944027810442     -0.29574560730897
  H   2.28815447234193     -0.27515423437545     -0.67031150603456
  C   0.11670490849857      1.54962239857171      0.83096712020057
  N   -0.39584068962187      2.58793935239713      1.02441205809672
  C   -0.28748987967480     -0.06212075045594     -1.63804600332863
  N   -0.36794639145694      0.40935507118086     -2.71045077258762
  C   -1.57636323329792     -0.84526670941379      0.32606132982688
  H   -2.11450500348961      0.10210006717473      0.39257534304927
  H   -1.46834651920596     -1.26511731244783      1.32560987652339
  H   -2.16389691828757     -1.53255361377174     -0.28440200433987
