15
Coordinates from ORCA-job run
  C   0.59441162241223      0.59405319755857      0.26891632621968
  C   -0.40292371537504     -0.21124038126346     -0.58449343838567
  F   -0.14379208288443      1.21514606403274      1.28905748176360
  H   0.15753176009766     -0.59048999852617     -1.44559056515361
  N   1.61939231944249     -0.24133597943384      0.77260567869278
  H   2.34058911303474      0.30191499638931      1.23085606110865
  H   1.24303168179204     -0.91405111143737      1.42850699550256
  C   1.20121308082596      1.67484878397064     -0.53247265359124
  N   1.69256391193897      2.52504306398768     -1.17544053017023
  C   -1.45268014900857      0.68173787105674     -1.08076308567101
  N   -2.31472063435526      1.36975472339009     -1.48209502095295
  C   -1.01578818018572     -1.38175717070473      0.19123393720677
  H   -1.46385921181642     -1.03034044962853      1.12161155850629
  H   -1.79518207420203     -1.85337080001641     -0.40822794174079
  H   -0.25978744171664     -2.13891280937526      0.40529519666516
