15
Coordinates from ORCA-job run
  C   0.56925863134914      0.63449547923289      0.22929260519349
  C   -0.36646927877317     -0.28335155866567     -0.57940204036014
  F   -0.23500284999490      1.35581561152870      1.12606151630959
  H   0.24551641304864     -0.74234841762815     -1.36301339528223
  N   1.57324829829354     -0.11649371186045      0.88454205167419
  H   2.25766239789138      0.48994506301473      1.31926758723630
  H   1.16787593015925     -0.71944750530161      1.58915940715687
  C   1.20838596622328      1.62621938663534     -0.65751455497690
  N   1.72418237142630      2.40689690885856     -1.36624307245858
  C   -1.40440442811551      0.52526113627388     -1.22287546434802
  N   -2.25926698546190      1.14503319118317     -1.73566478207363
  C   -0.99919990346681     -1.37482055199043      0.29022235456211
  H   -1.74267019324408     -1.92338090637183     -0.28883462764461
  H   -1.49629591030366     -0.93320304153967      1.15490400324958
  H   -0.24382045903150     -2.08962108336947      0.62009841176198
