15
Coordinates from ORCA-job run
  C   0.74552174743646      0.14136265815829      0.51742161864037
  C   -0.23818736297998     -0.64635440789994     -0.36497126079053
  F   0.88733404378214     -0.56278661124139      1.69954355335804
  H   0.24571556944978     -1.61846782135429     -0.51282786255119
  N   2.03071544026867      0.20952662369117     -0.09651469465390
  H   2.65911518651115      0.78954450700672      0.44664503957056
  H   1.97466829725787      0.57463213198244     -1.03953227812245
  C   0.16646424850554      1.45923284183583      0.88727727258473
  N   -0.26924030857087      2.51995421600690      1.14370747790995
  C   -0.35157035263322      0.01590973279692     -1.66407352860070
  N   -0.42604927492216      0.57099197075977     -2.69638087411520
  C   -1.60460942033699     -0.82599197473146      0.29834682571778
  H   -2.23322150042507     -1.47117379401649     -0.31677200209899
  H   -1.47815589273620     -1.29011955025853      1.27648954750254
  H   -2.10950042060713      0.13373947726404      0.42064116564897
