15
Coordinates from ORCA-job run
  C   0.86514496200055      0.00857890826506      0.41369529273696
  C   -0.34465983733606     -0.73771402650816     -0.18011927255930
  F   1.93855946106047     -0.89789561854308      0.39054942732741
  H   -0.41080711807053     -1.69106276888966      0.35424962113038
  N   1.13587032151833      1.20170078200082     -0.28687792166440
  H   1.89718039163216      1.72010015854687      0.13201311034008
  H   1.33995312924343      1.01368156286883     -1.26211403774404
  C   0.61446028819135      0.31591041546459      1.83603038549776
  N   0.40490951904741      0.54460584166095      2.96812564747527
  C   -0.05075685653335     -1.02591975734405     -1.58557138221106
  N   0.18060493564053     -1.20405883759632     -2.72296856162555
  C   -1.65137736123175      0.04608969084149     -0.04174983946063
  H   -1.56942020378100      1.00952354541156     -0.54387546029909
  H   -2.47263087738119     -0.51911450773060     -0.48467084636426
  H   -1.87803075400035      0.21557461155171      1.01228383742047
