15
Coordinates from ORCA-job run
  C   0.74322637917617      0.14068067821191      0.52041959002200
  C   -0.24512745518582     -0.64919233002656     -0.35476155935595
  F   0.86648792932120     -0.54337767943841      1.71624545405693
  H   0.22709569358992     -1.62982433548705     -0.48232264938856
  N   2.03384416955069      0.17871204860020     -0.08505227630441
  H   2.66768059613648      0.75583908332273      0.45497318485931
  H   1.99013505136636      0.53234647747527     -1.03317228400803
  C   0.18176514665825      1.47408812022633      0.86038796072663
  N   -0.23480479600551      2.54910037193784      1.08747584926259
  C   -0.34174338026098     -0.00878047298457     -1.66608233943799
  N   -0.40442930223869      0.52686761727860     -2.70942412317442
  C   -1.61801789485380     -0.79936269655418      0.30239574836290
  H   -2.10977928874286      0.16920512922961      0.40735766574017
  H   -1.50428164686345     -1.25094614040786      1.28792666250142
  H   -2.25205120164769     -1.44435587138387     -0.30736688386264
