15
Coordinates from ORCA-job run
  C   0.89573261405484      0.10844620521294      0.32355788220241
  C   -0.21608241254730     -0.73539650061005     -0.32878678034589
  F   2.11158145730605     -0.50491107900294     -0.02371101005705
  H   -0.01729695617318     -1.77516270683866     -0.04936835429058
  N   0.82616299224126      1.45877398189375     -0.07493534538769
  H   0.92244880900553      1.54736348090550     -1.08033890002158
  H   1.52415821401605      2.02484335198616      0.39016003108131
  C   0.79491667388968      0.01982904087951      1.79395695801439
  N   0.70843565161823     -0.06935802539416      2.96108817071906
  C   -0.07186174507375     -0.62168057764715     -1.78182406701983
  N   0.02771259429161     -0.47741838139356     -2.94299186210060
  C   -1.61794643384872     -0.31764359688150      0.11932913864536
  H   -1.72217985873048     -0.44875927254139      1.19764168008736
  H   -2.36697455657482     -0.93595431712594     -0.37717088915291
  H   -1.79780704347500      0.72802839655749     -0.12760665237375
