15
Coordinates from ORCA-job run
  C   0.50215675190334      0.56597890350898      0.40049238841554
  C   -0.40485489051063     -0.23129294815655     -0.55470546389760
  F   -0.25102344526316      0.99680212328664      1.47090367639322
  H   0.22054154935077     -0.57362954853921     -1.38915454207087
  N   1.53113847051545     -0.28269945228735      0.92530117103300
  H   2.10369361097495      0.23868492204447      1.58005569639536
  H   2.12649816752119     -0.62871532473404      0.18193553060851
  C   1.02291052807976      1.78342627895384     -0.27472580785047
  N   1.51429600042860      2.70254399595672     -0.81750963259909
  C   -1.43003444767278      0.65818896890172     -1.10499650394734
  N   -2.27119734456237      1.36066119316604     -1.52583072948894
  C   -1.04684421799413     -1.43083790239507      0.14900570214340
  H   -1.67281611654456     -1.97871766977428     -0.55679343903850
  H   -0.27645703140295     -2.09283801785169      0.54043746590512
  H   -1.66900758482348     -1.08855552208023      0.97558448799869
