15
Coordinates from ORCA-job run
  C   0.86118532051371      0.09567876346236      0.40720402514841
  C   -0.25647982448329     -0.76344615261440     -0.21440477223908
  F   2.03733310239079     -0.66945678885609      0.32746036317680
  H   -0.19938055997742     -1.74213465632887      0.27327457351614
  N   0.97358373564360      1.34655267609240     -0.23269148218743
  H   1.18368071334702      1.23349381267096     -1.21798362890464
  H   1.67457966033473      1.93084453700011      0.20477750364369
  C   0.59807290165619      0.29551241746027      1.84613772329703
  N   0.38585581561612      0.43203716640845      2.99236213867503
  C   0.05562364984030     -0.94699518359323     -1.63357616775471
  N   0.29884655367810     -1.04448787204453     -2.77806688888807
  C   -1.64650399513719     -0.15193564363400     -0.02910917878561
  H   -1.68687079581363      0.83944110211017     -0.47946433588457
  H   -1.88002287317588     -0.06670736887143      1.03370414567477
  H   -2.39850340443314     -0.78839680926218     -0.49762401848776
