15
Coordinates from ORCA-job run
  C   0.73204194598259      0.14465925812534      0.53411352603855
  C   -0.22300130661647     -0.64397236804706     -0.37844554579072
  F   0.86342064564995     -0.57558807036834      1.70734796758322
  H   0.27893978231346     -1.60615525069417     -0.53126523465827
  N   2.02734628925613      0.24158147952941     -0.05493737831280
  H   2.63787046053772      0.81690492864236      0.51317066858295
  H   1.98283718180211      0.62976171381580     -0.98943855079917
  C   0.12772337547799      1.44875492771548      0.91207551493253
  N   -0.32008024472349      2.50429171917251      1.16878302172529
  C   -0.32051323420189      0.03391118538159     -1.67063411470761
  N   -0.38031716464868      0.59506151438541     -2.70076104299592
  C   -1.59843025027449     -0.85440594676353      0.25621058102925
  H   -2.12082370220926      0.09536968784658      0.38245048981993
  H   -1.48273595050170     -1.33067118074270      1.22982751546303
  H   -2.20527782784397     -1.50050359799868     -0.37949741791026
