15
Coordinates from ORCA-job run
  C   0.57533038788918      0.62334331652749      0.24491645601554
  C   -0.40664444680974     -0.23586884230167     -0.57344716799537
  F   -0.16640260507332      1.23619978026277      1.26724160629285
  H   0.14792087721402     -0.60262313003817     -1.44364237890605
  N   1.64097787180982     -0.16191799709921      0.74401827042444
  H   2.34825538950156      0.41699166790771      1.17967030464271
  H   1.30359755298401     -0.83806515935173      1.41724107899339
  C   1.12458316717492      1.70996891133608     -0.58938384132615
  N   1.56810505933919      2.56691804804495     -1.25777449432543
  C   -1.50632554603336      0.60491548128364     -1.05230477426843
  N   -2.40973827689171      1.24979337654815     -1.43404292539960
  C   -0.94969705387524     -1.42051705467089      0.23233208025189
  H   -0.15790680020165     -2.14323218912770      0.43522953745870
  H   -1.38752338248600     -1.07540229294829      1.16988630796230
  H   -1.72453219454169     -1.93150391637310     -0.33994005982078
