15
Coordinates from ORCA-job run
  C   0.53643006115414      0.57145068562764      0.34964185283090
  C   -0.43339500664964     -0.24570045635453     -0.52339399385265
  F   -0.15860062060934      1.08413493247714      1.42328460270428
  H   0.14510532988969     -0.65073937098803     -1.36351785546838
  N   1.56015132114842     -0.28024198309016      0.87946736701931
  H   2.17450902637844      0.25680662049014      1.48120421444403
  H   2.11321078062834     -0.68496612947298      0.13308789453145
  C   1.06496180787636      1.73266638647317     -0.41319114144923
  N   1.55636050915727      2.60198041666740     -1.03260581281411
  C   -1.45523424286798      0.64500391793257     -1.07825254584302
  N   -2.30057396403136      1.33513247430484     -1.51091203343678
  C   -1.08035871935960     -1.38537244893470      0.26942145918368
  H   -1.75262926958572     -1.94862151257483     -0.37943212664093
  H   -0.31427910722216     -2.05090513438345      0.66345093387195
  H   -1.65565790590685     -0.98062839817423      1.10174718491949
