15
Coordinates from ORCA-job run
  C   0.71077684530689      0.23293235260189      0.53318199709960
  C   -0.18414338984840     -0.69004078419765     -0.31132387287743
  F   0.83614654959006     -0.35069293765105      1.78089319881782
  H   0.35941456319931     -1.64108460001098     -0.34412174833364
  N   2.01799029001450      0.32150134167331     -0.03003420837425
  H   2.58802727519590      0.98085510544376      0.48647896415873
  H   1.98608916428721      0.60216710724475     -1.00280073443600
  C   0.04287513051017      1.54214771746525      0.75311927838659
  N   -0.46048442979089      2.59537342063759      0.88742845612548
  C   -0.27101441698336     -0.16138595341218     -1.67234059644616
  N   -0.32823764830862      0.28346795217881     -2.75782043544040
  C   -1.56937396885497     -0.88814332128884      0.30610005611795
  H   -2.13202278636593      0.04694855658447      0.31400177992296
  H   -1.46552270726556     -1.25112321722506      1.32870098490007
  H   -2.13052047068631     -1.62392274004406     -0.27146311962133
