15
Coordinates from ORCA-job run
  C   0.97667001001160      0.08364650163185      0.33976185334376
  C   -0.14792060253398     -0.77092010049614     -0.29807112597625
  F   2.15671910765188     -0.59127857584689      0.05348133560511
  H   -0.00881900895213     -1.79834473830535      0.05455672500501
  N   1.08604514580709      1.41870124722355     -0.11826967809350
  H   0.88828641470546      1.52530302546290     -1.10391386460142
  H   0.61219498688748      2.10395550977781      0.44776230151354
  C   0.80519829692265      0.08416434718033      1.80701107061458
  N   0.63197307881922      0.07230126861272      2.96786467997043
  C   0.04934370790938     -0.75160403015610     -1.74832608222216
  N   0.18519843300717     -0.66825465311194     -2.91175308893179
  C   -1.54654460459423     -0.26788352340168      0.06245288253471
  H   -1.68604739442916      0.75996658336028     -0.27628419153175
  H   -2.30331505973597     -0.88956600580109     -0.41739891828412
  H   -1.69998251147647     -0.31118685613027      1.14212610105384
