15
Coordinates from ORCA-job run
  C   0.72769869531499      0.24919105017568      0.46463414350494
  C   -0.22903767604499     -0.56825539806764     -0.42057774654848
  F   0.88399472861880     -0.50391761953591      1.64646901701985
  H   0.29223941989933     -1.51420907146323     -0.61769779392968
  N   1.94837397735965      0.49298853942349     -0.19156239296174
  H   2.58237880550179      1.04737216874307      0.36914597590763
  H   2.39478441733384     -0.36754708908127     -0.48235157449817
  C   0.11451552844648      1.52843668249121      0.87033254240993
  N   -0.38820111827020      2.53537707946296      1.20375666237844
  C   -0.43476376513150      0.11750346180483     -1.69653371619739
  N   -0.65334536251809      0.64683433825656     -2.72131508076585
  C   -1.56325124970204     -0.86057128648501      0.26963432832961
  H   -2.17749667912943     -1.49792438569628     -0.36770106292794
  H   -1.38778184590821     -1.37045512879575      1.21629243909709
  H   -2.11010787577041      0.06517665876728      0.45747425918177
