15
Coordinates from ORCA-job run
  C   0.95296818421789      0.06427569051128      0.40428762296517
  C   -0.19159433058859     -0.79538473770522     -0.18969114493747
  F   2.08874567345208     -0.73170737032052      0.32376277676046
  H   -0.16612638296816     -1.76195984251281      0.32453509118226
  N   1.20840488325643      1.29915086682863     -0.23900546011011
  H   0.75595375868981      2.09777946623680      0.17560966306703
  H   1.09231804142350      1.26399871197041     -1.24265796269189
  C   0.67703555697908      0.30796752683320      1.83488872448835
  N   0.42047194667992      0.49185834886150      2.96540462185738
  C   0.11046787464966     -1.01889091746271     -1.60437780957785
  N   0.33656784158806     -1.12976234892327     -2.75138509265454
  C   -1.56439581826719     -0.14073354503746     -0.02847474833408
  H   -2.33505740706992     -0.77282348099661     -0.47112111691966
  H   -1.59045485673618      0.82839112462776     -0.52927662424601
  H   -1.79830496530638     -0.00215949291097      1.02850145915095
