17

C	0.0	0.0	0.0
C	-0.442243	0.251533	-1.440243
Br	1.941995	0.0	0.0
H	0.017101	1.195738	-1.757646
H	-1.527271	0.397323	-1.381161
C	-0.478342	1.108514	0.912548
H	-0.159212	2.086886	0.547624
H	-0.117035	0.931919	1.925878
H	-1.580829	1.048762	0.898165
N	-0.615407	-1.24266	0.525817
O	-1.790165	-1.427635	-0.032145
O	-0.334265	-1.552639	1.712303
C	-0.116104	-0.856825	-2.433228
H	0.960996	-1.01882	-2.522044
H	-0.50211	-0.593891	-3.42469
H	-0.595034	-1.781199	-2.112658
H	-2.929579	0.0	0.0
