14

C	0.0	0.0	0.0
C	-0.580923	-0.084714	-1.389058
F	1.389877	0.0	0.0
H	-0.291149	0.772076	-1.995594
H	-0.327756	0.977575	0.370932
H	-1.689808	-0.116661	-1.209138
C	-0.476	-1.06524	0.958687
H	-0.110335	-2.046227	0.658122
H	-1.571926	-1.042483	0.946572
H	-0.10623	-0.832749	1.961601
N	-0.149359	-1.270829	-2.153735
O	-0.415867	-2.388408	-1.707402
O	0.433673	-1.081261	-3.228219
H	-3.184614	0.0	0.0
