14

C	0.0	0.0	0.0
C	-0.587413	0.053263	-1.378068
F	1.393687	0.0	0.0
H	-1.695076	0.138713	-1.187666
H	-0.31435	0.901061	0.531377
H	-0.344872	-0.818484	-1.984001
C	-0.494904	-1.230069	0.718396
H	-1.591285	-1.174752	0.736673
H	-0.16416	-2.132589	0.194312
H	-0.09799	-1.252126	1.736538
N	-0.124721	1.233215	-2.133373
O	0.211017	1.073292	-3.3118
O	-0.127634	2.323158	-1.555485
H	-3.183992	0.0	0.0
