14

C	-0.298862	0.091972	-1.488894
C	0.0	0.0	0.0
F	-1.659535	0.283223	-1.726611
H	1.104721	0.0	0.0
H	-0.05085	-0.861692	-1.97146
N	0.407003	1.230277	-2.007463
H	1.371466	1.184715	-1.681147
H	0.412539	1.200871	-3.019062
C	-0.532883	-1.243464	0.558778
N	-0.959901	-2.240824	1.007112
N	-0.537844	1.162366	0.720362
H	0.165889	1.441668	1.395814
H	-0.602525	1.917734	0.044996
Cl	3.340139	0.0	0.0
