14

C	-0.29892	0.104405	-1.488654
C	0.0	0.0	0.0
F	-1.657915	0.308128	-1.723559
H	1.104738	0.0	0.0
H	-0.058299	-0.847376	-1.978677
N	0.414083	1.241803	-1.999768
H	1.376948	1.192779	-1.671341
H	0.422328	1.216296	-3.010908
C	-0.531762	-1.249549	0.547666
N	-0.955785	-2.25257	0.986592
N	-0.534585	1.15524	0.733224
H	0.183303	1.448622	1.386524
H	-0.636591	1.907648	0.060727
Cl	3.340913	0.0	0.0
