14

C	-0.368363	-0.04682	-1.480038
C	0.0	0.0	0.0
F	-0.145398	1.264571	-1.989103
H	1.10354	0.0	0.0
H	-1.434276	-0.224387	-1.645649
N	0.426195	-1.01837	-2.112502
H	0.295508	-1.017191	-3.114201
H	1.407197	-0.882714	-1.88018
C	-0.488589	-1.216551	0.650737
N	-0.878821	-2.18871	1.180481
N	-0.59678	1.176853	0.642348
H	-0.239166	1.976512	0.131791
H	-0.201408	1.238443	1.575017
Cl	3.385923	0.0	0.0
