14

C	-0.392762	-0.031234	-1.481238
C	0.0	0.0	0.0
F	-0.153775	1.27405	-1.987458
H	1.097825	0.0	0.0
H	-1.468759	-0.183572	-1.624641
N	0.347675	-1.026258	-2.142782
H	1.339244	-0.923632	-1.942951
H	0.182495	-1.019202	-3.139618
C	-0.487241	-1.226861	0.637246
N	-0.938821	-2.176733	1.158963
N	-0.472316	1.15641	0.748164
H	0.025344	1.96534	0.394702
H	-1.463062	1.298183	0.572724
Cl	3.373946	0.0	0.0
