14

C	-0.495458	0.003019	-1.443339
C	0.0	0.0	0.0
F	-0.115381	-1.184077	-2.046872
H	1.098848	0.0	0.0
H	0.04184	0.787041	-1.993126
N	-1.918893	0.116901	-1.481594
H	-2.229482	0.518979	-2.354296
H	-2.198064	0.715946	-0.714494
C	-0.50884	-1.175439	0.7036
N	-0.890185	-2.108871	1.303736
N	-0.50314	1.224227	0.672515
H	0.14282	1.964191	0.417288
H	-0.382482	1.101907	1.672084
Cl	3.383088	0.0	0.0
