14

C	-0.524923	-0.028981	-1.427896
C	0.0	0.0	0.0
F	-1.94938	-0.193479	-1.344041
H	1.093955	0.0	0.0
H	-0.173148	-0.912672	-1.96365
N	-0.172869	1.151129	-2.098078
H	-0.623733	1.222051	-2.999372
H	-0.380959	1.944556	-1.505577
C	-0.458807	-1.201416	0.714618
N	-0.860087	-2.148568	1.281372
N	-0.431784	1.24085	0.651328
H	0.262465	1.496594	1.342516
H	-1.325529	1.115771	1.109152
Cl	3.360378	0.0	0.0
