14

C	-0.501114	0.13936	-1.430002
C	0.0	0.0	0.0
F	-1.80729	0.535972	-1.471888
H	1.092969	0.0	0.0
H	0.110004	0.827719	-2.015732
N	-0.408627	-1.205558	-2.103586
O	0.727116	-1.562474	-2.384727
O	-1.448061	-1.820774	-2.30085
N	-0.448746	-1.247661	0.595707
H	-1.341757	-1.147823	1.058599
H	0.247405	-1.554383	1.262366
C	-0.426797	1.196764	0.745029
N	-0.797393	2.112696	1.380652
Br	3.415591	0.0	0.0
