14

C	-0.529588	0.082206	-1.420391
C	0.0	0.0	0.0
F	-1.877586	0.307518	-1.423185
H	1.092924	0.0	0.0
H	-0.030611	0.850291	-2.013064
N	-0.276604	-1.230497	-2.114349
O	0.886459	-1.41978	-2.437878
O	-1.227325	-1.978999	-2.291787
N	-0.441353	-1.234597	0.626003
H	0.208127	-1.479972	1.358999
H	-1.372575	-1.151576	1.010452
C	-0.436105	1.216207	0.711905
N	-0.806399	2.14624	1.325521
Br	3.45994	0.0	0.0
