14

C	-0.461923	0.106355	-1.44944
C	0.0	0.0	0.0
F	-1.822221	0.234759	-1.518986
H	1.093895	0.0	0.0
H	0.015589	0.927385	-1.983728
N	-0.102983	-1.153477	-2.191125
O	-0.913017	-2.077138	-2.148282
O	0.983344	-1.157978	-2.756798
N	-0.457902	-1.181557	0.705843
H	0.253193	-1.896703	0.634134
H	-1.32878	-1.529493	0.328078
C	-0.467819	1.221857	0.672453
N	-0.849721	2.20655	1.185057
Br	3.403649	0.0	0.0
