14

C	-0.487858	0.350818	-1.398421
C	0.0	0.0	0.0
F	-1.786238	0.77267	-1.392824
H	1.097246	0.0	0.0
H	0.140443	1.103891	-1.876036
N	-0.412451	-0.887587	-2.254713
O	0.718428	-1.223812	-2.57677
O	-1.461506	-1.449435	-2.540347
N	-0.453317	-1.320373	0.399537
H	-1.362771	-1.294172	0.83852
H	0.224125	-1.720168	1.035054
C	-0.428776	1.074422	0.911899
N	-0.802948	1.884821	1.675743
Br	3.418219	0.0	0.0
