14

C	-0.53633	-0.071258	-1.421042
C	0.0	0.0	0.0
F	-0.11744	-1.224657	-1.997851
H	1.100198	0.0	0.0
H	-1.626748	-0.029652	-1.445495
N	-0.055808	1.084282	-2.267305
O	-0.583354	2.161133	-1.993866
O	0.766752	0.86874	-3.144338
N	-0.515348	-1.214338	0.670936
H	-0.356952	-1.097357	1.66662
H	0.104223	-1.96652	0.383447
C	-0.506156	1.17626	0.702039
N	-0.928345	2.070069	1.335581
Br	3.434235	0.0	0.0
