14

C	-0.520264	0.057867	-1.425168
C	0.0	0.0	0.0
F	-1.857926	0.336317	-1.45065
H	1.092981	0.0	0.0
H	0.017278	0.783652	-2.037165
N	-0.321474	-1.287506	-2.076121
O	-1.30326	-2.002869	-2.22475
O	0.831732	-1.538652	-2.396679
N	-0.437071	-1.220381	0.657481
H	0.24587	-1.469843	1.360427
H	-1.346727	-1.116924	1.086616
C	-0.433908	1.231218	0.683512
N	-0.804104	2.178668	1.271403
Br	3.422123	0.0	0.0
