14

C	-0.50456	0.10051	-1.431898
C	0.0	0.0	0.0
F	-1.814231	0.486614	-1.479743
H	1.093022	0.0	0.0
H	0.099688	0.778649	-2.036724
N	-0.405395	-1.260738	-2.07152
O	-1.442737	-1.884563	-2.25436
O	0.732426	-1.62006	-2.342121
N	-0.447277	-1.231661	0.6286
H	0.251468	-1.524055	1.298421
H	-1.338756	-1.12075	1.091804
C	-0.426734	1.215682	0.714085
N	-0.798368	2.147537	1.325724
Br	3.416991	0.0	0.0
