16
Coordinates from ORCA-job run
  C   -0.58821460728001     -0.08679208011996      0.07943099368950
  C   0.75260960779710      0.19761289596108     -0.59237174166546
  Cl  -1.36978949543214     -1.49760731627014     -0.74388471245425
  H   0.55888890318499      0.43656052410547     -1.64213548952391
  H   1.14691826735199      1.11364205105201     -0.13125249286726
  N   -0.36541479320419     -0.48625305502538      1.45448214321189
  H   0.10463881761602      0.26907372252349      1.94345905420929
  H   -1.25261946571757     -0.65713147382209      1.91470989615204
  C   -1.54460981428210      1.08914087614933     -0.08434002099946
  H   -2.50987112484470      0.86117230220338      0.37326374911854
  H   -1.70981329375213      1.32592931478791     -1.13738949183181
  H   -1.12233052226219      1.96842408554592      0.41245808158631
  C   1.78001020752673     -0.92120465340699     -0.47994980134780
  H   2.71501437787200     -0.62263621561680     -0.96021563520355
  H   1.42097057727601     -1.82730561050428     -0.96903257449571
  H   1.98361235815019     -1.16262536756295      0.56276804242163
