16
Coordinates from ORCA-job run
  C   -0.58629180732930      0.04319924940690      0.11485881433071
  C   0.72919432397626      0.16072492798279     -0.64696726768850
  Cl  -1.51971430461533     -1.38714920449345     -0.64890610656043
  H   1.17320635221625      1.11550161783041     -0.34363649817301
  H   0.49438816676596      0.23048540679291     -1.71211369177769
  N   -0.36009723695360     -0.16503829945576      1.50060044510710
  H   -1.23460976722049     -0.19718549588131      2.01021647428367
  H   0.13995306252123     -1.02782339037612      1.67142439643405
  C   -1.46827486705168      1.25964816867960     -0.09234020074640
  H   -2.43622763819823      1.12212046208582      0.39487690415918
  H   -1.64430299808970      1.43106080471808     -1.15439801939447
  H   -0.97363957460195      2.13170846044442      0.34196027215689
  C   1.72386522395095     -0.96682601721219     -0.40092982576794
  H   2.09184556230283     -0.95732199091837      0.62745433312844
  H   1.27748499560809     -1.94092037190440     -0.60918876800075
  H   2.59222050671870     -0.85118432769933     -1.05291126149087
