15
Coordinates from ORCA-job run
  C   0.57921342478486      0.28651157964740      0.17173087003582
  C   -0.77570091835268     -0.30038799469589     -0.24948728663500
  Br  1.11761622239228     -0.55436750188209      1.89523696737509
  H   -0.91647039015407      0.02819952656962     -1.28265467230900
  N   1.64769781560223     -0.09462589736316     -0.85895514366239
  O   1.26501688311411     -0.55511794260865     -1.92545783827156
  O   2.79891009486528      0.18739985506177     -0.55498980404340
  N   0.57379723285400      1.69057133561494      0.17927563783009
  H   1.48983443416138      2.05886271682914      0.40868374832937
  H   -0.11944961861272      2.06719376211228      0.81471866020742
  C   -1.82447770473799      0.33122991292817      0.57243687108053
  N   -2.66029838477542      0.81337505754875      1.24325779089842
  N   -0.76382195771300     -1.74425188568449     -0.22063360288025
  H   -0.98916889364677     -2.09847245630214      0.69950975794983
  H   -1.42169823978147     -2.11512006777565     -0.89267195590496
