15
Coordinates from ORCA-job run
  C   0.56753855514828      0.28910620447582      0.20468749849411
  C   -0.75726360895933     -0.30435840484017     -0.29574296529759
  Br  0.95692731045125     -0.47458776239608      2.00226511375886
  H   -0.81108042675244     -0.02363504614775     -1.35095479787942
  N   1.70882035477784     -0.15014683509290     -0.71932576171056
  O   1.40527429295347     -0.65682319925275     -1.79034669338247
  O   2.83616164305325      0.13428192853090     -0.33811857817569
  N   0.57983516647684      1.69196617218915      0.14663314186792
  H   1.47968164853530      2.06225715857309      0.43041164238401
  H   -0.15633876131443      2.10477092455574      0.70685075198705
  C   -1.86023856370733      0.37450395303568      0.40894738579920
  N   -2.74188787021747      0.89451181572782      0.98637101869158
  N   -0.76638633789074     -1.74523033531675     -0.19913980409096
  H   -1.07182530541541     -2.05422445433229      0.71408380611493
  H   -1.36921809713910     -2.14239211970950     -0.90662175856097
