15
Coordinates from ORCA-job run
  C   0.54027615253659      0.34492412775562      0.33105224882202
  C   -0.78476004418157     -0.23537911116058     -0.18802264644337
  Br  0.95874040538151     -0.34164637758592      2.08137871951114
  H   -0.93706016700851      0.22698928784563     -1.16981268938920
  N   1.59957112026880     -0.17720802752965     -0.69496501934216
  O   2.46560686484246     -0.96686682189975     -0.36808630977714
  O   1.43534096895386      0.31563547203526     -1.80923714943921
  N   0.48552657294011      1.75556474266087      0.36891618477701
  H   0.38962220544614      2.12760024605237     -0.56953096628867
  H   1.29228956718534      2.16053347985791      0.82644732111505
  C   -1.88846590206398      0.18338638994872      0.69264714044527
  N   -2.80898608161280      0.42807022138490      1.38036004519447
  N   -0.65591641971280     -1.66172273754124     -0.39235469446413
  H   -0.68681372635563     -2.15595204587198      0.49139706234831
  H   -1.40497151661952     -2.00492884595216     -0.97918924706940
