15
Coordinates from ORCA-job run
  C   0.47040882636970      0.46831380832236      0.04087043594167
  C   -0.86834404164431     -0.18422691984629      0.47248890808128
  Br  0.53298978134760      2.30912691859519      0.64639127051574
  H   -0.92123355382799     -0.14536603417807      1.56197562037891
  N   1.61264106029688     -0.24822104545170      0.82504534427327
  O   1.41569266371428     -0.45895788837278      2.01493074543301
  O   2.61001000522273     -0.54763884998727      0.18036476279589
  N   0.63304003367861      0.41967080847977     -1.35462501473928
  H   1.46033898690542      0.91869162369895     -1.65578591538675
  H   0.69497466960493     -0.54269102392318     -1.67331778709100
  C   -0.78454176775690     -1.59719733133807      0.06555702530878
  N   -0.66160045879390     -2.70135858494579     -0.31522843946510
  N   -2.05049165132101      0.41744232355958     -0.09373560953314
  H   -1.90416270760863      0.59257064925556     -1.08145002196497
  H   -2.23972184618738      1.29884154613174      0.36551867545170
