15
Coordinates from ORCA-job run
  C   0.41032684467968      0.59024035832761      0.20037056095844
  C   -0.84836383087078     -0.27754186944380      0.35875049216374
  Br  0.17619810392050      2.30366959776132      1.05857571793291
  H   -1.04421541678179     -0.40057060013617      1.42501241854164
  N   1.54820685116421     -0.11014520094781      1.00871623290140
  O   1.24829108480732     -0.57366308366017      2.10112998076184
  O   2.65248540538668     -0.13145419206346      0.48018221473191
  N   0.73013882800433      0.76871386903419     -1.16033379237413
  H   1.47439719443225      1.44295127730916     -1.28337810145880
  H   1.01381647217284     -0.11243160730684     -1.57820846941642
  C   -0.52114183254802     -1.60628061135444     -0.20993111680168
  N   -0.27401835681522     -2.63318473335082     -0.72650826268901
  N   -1.96697742607473      0.38402369301356     -0.26941371932480
  H   -1.78535645482211      0.51156430200591     -1.25727709829536
  H   -2.81378746665513     -0.15589119918825     -0.14668705763171
