15
Coordinates from ORCA-job run
  C   0.55781282578898      0.34032361982806      0.30859637483487
  C   -0.79064249623027     -0.24362604272206     -0.14032427587346
  Br  1.11975929855281     -0.42201344039850      1.98620476517763
  H   -1.02557603423401      0.26510289966827     -1.08229492533974
  N   1.54766432053271     -0.10646412880828     -0.81787564465517
  O   2.44919796167872     -0.89252353518317     -0.59585044331182
  O   1.29166779070327      0.43664296618071     -1.89068844825194
  N   0.47802110182595      1.74546803334298      0.42281039114472
  H   0.30110937630815      2.16110235242786     -0.48511602176313
  H   1.31029363508376      2.14675497551156      0.83578184177265
  C   -1.83371434058780      0.10364522057703      0.83944812051983
  N   -2.71568234468191      0.29532115157301      1.59146020859833
  N   -0.64990473234809     -1.65439879188634     -0.42868158893393
  H   -0.60164237703678     -2.19201836004643      0.42868574129039
  H   -1.43836398535548     -1.98431692006476     -0.97015609520920
