15
Coordinates from ORCA-job run
  C   0.54499532048458      0.42546061677177      0.16414160428763
  C   -0.74085613573202     -0.40175803825363      0.31782740420302
  Br  0.38159730368776      1.95295603480500      1.50866611893534
  H   -0.86060245539228     -0.65403998585486      1.37566354919455
  N   1.75607802899327     -0.33174682720560      0.68309036584392
  O   1.54486004187575     -1.21393756404041      1.50640899058901
  O   2.84178364011813      0.02412947203381      0.24682297858975
  N   0.75522412405858      0.79149941063468     -1.14349959770355
  H   -0.08756414054749      1.16660189363102     -1.56067227415042
  H   1.58582614639309      1.34348201303555     -1.30152671437203
  C   -0.59495141068122     -1.65195929515875     -0.43705191989978
  N   -0.52746376103910     -2.66090046680125     -1.03317866489759
  N   -1.83398907029993      0.38195540303170     -0.25639889016949
  H   -2.60732666519099     -0.22459465101669     -0.49960147491812
  H   -2.15661096672810      1.05385198438763      0.43030852446777
