15
Coordinates from ORCA-job run
  C   0.51631195921564      0.46858662313878      0.13717890568850
  C   -0.80035556445624     -0.31233713153387      0.27099897925460
  Br  0.14388333554369      2.31485596617589      0.92714506545975
  H   -1.12918354329766     -0.25258826039009      1.31269113753204
  N   1.58043519346007     -0.07365533366018      1.07609351434741
  O   1.18779624151568     -0.68791562761880      2.06070367705788
  O   2.74027800936706      0.17177030165264      0.77534488959648
  N   0.98542642134181      0.44767602867739     -1.15376701862381
  H   0.25102210239269      0.66156093524375     -1.81664601666242
  H   1.84867618805053      0.94999310407330     -1.30125564662974
  C   -0.55129590343501     -1.72242872112669     -0.05116837647970
  N   -0.40223207308554     -2.85727861640444     -0.31111062449492
  N   -1.73748064347214      0.24436227324737     -0.70425477022324
  H   -2.16597583589376      1.07615322220265     -0.31533072607248
  H   -2.46730588724682     -0.42675476367772     -0.90862298975036
