15
Coordinates from ORCA-job run
  C   0.57229694728460      0.47867162921767      0.08500497564953
  C   -0.79567717854449     -0.16989440664728      0.48836775527114
  Br  0.59651816209626      2.29411795307755      0.78276299456027
  H   -0.86098508608474     -0.14115193611958      1.57929433673067
  N   1.63954270593231     -0.33311611577933      0.83393648213710
  O   1.53621275623039     -0.35679783066284      2.05416107934759
  O   2.44880991194745     -0.95007994792285      0.15297857170272
  N   0.91498357902236      0.50997848580088     -1.28276871179704
  H   1.04144082617126     -0.41547293464982     -1.67302999492208
  H   0.27901483773096      1.07573128557641     -1.82547131402398
  C   -0.72957344551300     -1.57249379860574      0.05600104281415
  N   -0.62511969107807     -2.67008654067860     -0.34860179115303
  N   -1.97611723316433      0.44067972608996     -0.07035258777127
  H   -1.96900382737479      0.41575030143724     -1.08197823392933
  H   -2.07334326465618      1.39516412986632      0.25069539538349
