15
Coordinates from ORCA-job run
  C   0.44409722267582      0.50869136484689      0.33029941432316
  C   -0.91394710970574     -0.17362890896229      0.10486312082047
  Br  0.57269794039624      1.14318275210741      2.20630157901568
  H   -1.65426543812135      0.64156188198347      0.17047154216091
  N   1.56479226236303     -0.51973931972865      0.17212495007248
  O   2.54731623584311     -0.16802449410871     -0.47018711958885
  O   1.39609927117377     -1.59330263482001      0.72326611371827
  N   0.61895938085310      1.51287550986471     -0.64114933865202
  H   0.08694260626393      2.34128379322842     -0.40713040785707
  H   1.59902240359274      1.74115157817412     -0.75689660525685
  C   -1.28854249078064     -1.15194142847391      1.12851743836318
  N   -1.71331268024132     -1.92638914060616      1.90145409332979
  N   -0.83347253864006     -0.81744545360313     -1.19598630921034
  H   -1.62441169158656     -1.42990115214072     -1.34699464973969
  H   -0.80097537408607     -0.10937434776149     -1.91795382149922
