15
Coordinates from ORCA-job run
  C   0.50009555650544      0.53780263704556      0.38040543636132
  C   -0.94547050241157     -0.05475980913395      0.20160293249105
  Br  0.59902975713597      1.38515771094889      2.10882216883003
  H   -1.61800342163600      0.77419587970781      0.44831564666571
  N   1.46727977589501     -0.64672810261637      0.30646648869108
  O   1.95487814684866     -1.11664553187190      1.31981536329887
  O   1.61441530925502     -1.07087261197536     -0.84151053322325
  N   0.92871962783146      1.46052835196345     -0.61647359617881
  H   0.41911508438343      2.33174780586473     -0.56025947074944
  H   0.86777403504946      1.04986838263874     -1.53926402767864
  C   -1.17234964452645     -1.12278071424019      1.18393887302786
  N   -1.34052504920123     -1.99885033792905      1.94744499170773
  N   -1.29170916720904     -0.52990604608516     -1.11588933461721
  H   -1.34265436380811      0.23103844042254     -1.77901103596159
  H   -0.64059514411204     -1.23079605473972     -1.44640390266474
