15
Coordinates from ORCA-job run
  C   0.44067021834950      0.54575813609673      0.29384575328425
  C   -0.98184643651148     -0.06106817053311      0.29688188695021
  Br  0.82301901809249      1.34513761819609      2.01450828732729
  H   -1.62428262393253      0.80329933480211      0.49622322471605
  N   1.51037795040426     -0.56430926179805      0.09720760864758
  O   2.65564787378370     -0.17337133444531     -0.08531479542630
  O   1.12866245985446     -1.73180934036208      0.07765458592761
  N   0.55159039382973      1.53209082630657     -0.71593495951129
  H   0.43493040017416      1.11069042095774     -1.63070066724450
  H   1.45323776861158      1.99153914198138     -0.67425480232871
  C   -1.17842062594629     -1.00512948777372      1.40605658640455
  N   -1.39154546915933     -1.75356204875252      2.28445110427333
  N   -1.41728309993433     -0.65523734410369     -0.94334102772903
  H   -0.82086754125444     -1.41049924923286     -1.24770252765988
  H   -1.58489028636149      0.02447075866072     -1.66958025763120
