15
Coordinates from ORCA-job run
  C   0.46252786501909      0.43444727089316      0.20219589772847
  C   -0.81154351572356     -0.42383823607264      0.41555760629709
  Br  0.54607176089702      1.83522789830595      1.53985833027292
  H   -0.75487805848682     -0.86112838204460      1.41408421492727
  N   1.69242363773049     -0.47683905420504      0.49980963330497
  O   1.62442879900702     -1.18438133343910      1.49669084576538
  O   2.62116757296510     -0.41442421484495     -0.29619377600184
  N   0.48306273533222      1.00169653172270     -1.08419636155753
  H   0.53643643423228      0.27584541110043     -1.79269570096882
  H   1.26370587580572      1.63437791201456     -1.20498662002659
  C   -0.73895944621516     -1.51587049518784     -0.56974747287660
  N   -0.63273305700871     -2.33925299707113     -1.40059843254680
  N   -2.05799429522608      0.28602271657055      0.26613674433604
  H   -2.21443539393442      0.87642778246004      1.07283681933541
  H   -2.01928091439415      0.87268918979792     -0.55975172798935
