15
Coordinates from ORCA-job run
  C   0.48345716806728      0.52027874426879      0.24539965459793
  C   -0.90197843297313     -0.14259292965714      0.20715891521692
  Br  0.80887509461288      1.28824845624697      2.04654567323672
  H   -1.61720035112125      0.69379986319210      0.28402073217773
  N   1.56603745087958     -0.54287093651167      0.05753009506015
  O   1.43215273602100     -1.57117664943863      0.69740079117585
  O   2.48920985238322     -0.25999405051962     -0.69708222431280
  N   0.57791268437270      1.44548488711729     -0.81204579728905
  H   0.08621829305014      2.30168210987304     -0.58988294472131
  H   1.54571120410040      1.64110341513283     -1.03853551540359
  C   -1.18977308824590     -1.03384607085950      1.33314141939599
  N   -1.54840586546856     -1.74651351290143      2.19397760043440
  N   -0.96396021568305     -0.88188475399845     -1.04298733074680
  H   -0.99098115873249     -0.22968719012678     -1.81601634143742
  H   -1.77727537126286     -1.48303138181775     -1.06862472738465
