15
Coordinates from ORCA-job run
  C   0.54198269333337      0.38275965109909      0.28632700951420
  C   -0.77907491567884     -0.28487131955019     -0.12601702108487
  Br  1.12663115972786     -0.24358779936337      2.01161053695717
  H   -1.03104303685417      0.15094329636086     -1.09954897305971
  N   1.55465399775477     -0.09480038075632     -0.80617645811838
  O   1.28125529357642      0.36481527481695     -1.91312539191776
  O   2.48724105512460     -0.82600121937069     -0.53083256466662
  N   0.40349934482011      1.78805152554433      0.30765554309923
  H   0.21689681893183      2.13592049831837     -0.62640273596675
  H   1.21499374459610      2.24942612956556      0.69853535290751
  C   -1.83976096569763      0.08200567585867      0.82766570825578
  N   -2.73196459972941      0.28343440920852      1.56495132308138
  N   -0.57902387440925     -1.70452059283498     -0.32071587731275
  H   -1.34948907582175     -2.10093050352510     -0.84319356446740
  H   -0.51579763967402     -2.18264464537177      0.57026711277898
