15
Coordinates from ORCA-job run
  C   0.43707695700330      0.50824165737342     -0.00530549531691
  C   -0.89825555222437     -0.16267271347578      0.40834487621129
  Br  0.31208149299226      2.42864028520237      0.22557772594342
  H   -1.07942241770980      0.07790171448916      1.45753303593458
  N   1.52199179623571      0.05147041009836      1.01797615113872
  O   1.20430881343625      0.06492683094262      2.20033775859277
  O   2.60043498085943     -0.29272183528121      0.55011751400452
  N   0.76360679729355      0.20864613648030     -1.33931100272800
  H   0.92331841312800     -0.78761263872223     -1.45425478227222
  H   1.58463537443088      0.71179464459537     -1.65028655571053
  C   -0.68222971805173     -1.61589513174677      0.30223315076373
  N   -0.51069670975501     -2.76992148461009      0.16729298353059
  N   -2.04221616639997      0.21602982882681     -0.38331416144065
  H   -1.79429412909968      0.20991036650046     -1.36618859869167
  H   -2.34033993213880      1.14926192932716     -0.13075259995964
