15
Coordinates from ORCA-job run
  C   0.49541460014162      0.41520152609260      0.05677222903265
  C   -0.86456301572466     -0.21043153323393      0.45183360486237
  Br  0.41924047428627      2.35279792436228      0.62613508559218
  H   -1.03584027130768      0.01546593782309      1.50572809202429
  N   1.61559106933766     -0.15690477614611      0.91901000099927
  O   2.73451606999938     -0.18017363940812      0.42307598918151
  O   1.30429731502116     -0.51545036017988      2.04700677627485
  N   0.81936236655803      0.20541112107010     -1.27766721760101
  H   0.18362161665574      0.67447673316711     -1.90691846025598
  H   1.78202175440542      0.44090883622686     -1.48355223077861
  C   -0.74477128452408     -1.66798189358706      0.30914697136493
  N   -0.64955768195965     -2.83040253775892      0.17847528330213
  N   -1.99823783709465      0.24782735676661     -0.31767175817809
  H   -1.94853040879282     -0.04315816366876     -1.28480561543242
  H   -2.11156476700165      1.25041346847413     -0.24656875038804
