15

C	0.0	0.0	0.0
C	-0.368023	-0.08369	-1.466419
F	1.402387	0.0	0.0
H	-0.028818	-1.046003	-1.850984
C	-0.845012	0.967302	0.735066
N	-0.690122	1.816898	1.586527
N	-0.34128	-1.32427	0.547325
H	-0.750105	-1.212554	1.474782
H	0.530192	-1.83817	0.626856
N	0.391028	0.94268	-2.258454
O	0.344069	2.109245	-1.870488
O	1.001351	0.544477	-3.25319
C	-1.849923	0.048853	-1.686111
N	-2.72774	0.116894	-2.499356
H	-2.112229	0.0	0.0
