15

C	0.0	0.0	0.0
C	-0.367609	-0.103503	-1.497165
F	1.375029	0.0	0.0
H	0.112438	0.744568	-1.992869
C	-0.370938	1.315208	0.583698
N	-0.457628	2.306633	1.210014
N	-0.489718	-1.124074	0.712402
H	-1.445826	-1.290536	0.391191
H	-0.509306	-0.930399	1.707855
N	-1.827014	0.004845	-1.824437
O	-2.509005	-1.041797	-1.476623
O	-2.306389	1.13627	-1.435596
C	0.165479	-1.347684	-2.050104
N	0.610971	-2.311963	-2.549857
H	-2.904572	0.0	0.0
