17

C	0.0	0.0	0.0
C	-0.549108	0.083665	-1.407644
F	1.367552	0.0	0.0
H	-1.636018	0.200316	-1.235479
H	-0.395965	-0.924431	-1.814632
N	-0.345588	1.26118	0.805615
O	-0.341679	1.165261	2.031081
O	-0.492617	2.318225	0.197585
C	-0.535481	-1.192884	0.740349
H	-0.14997	-1.21619	1.758905
H	-0.216001	-2.093623	0.207461
H	-1.633375	-1.06288	0.695714
C	0.089112	1.097391	-2.352962
H	1.179908	1.109756	-2.25886
H	-0.280263	2.103702	-2.168357
H	-0.150004	0.830206	-3.38767
F	-2.920148	0.0	0.0
