17

C	0.0	0.0	0.0
C	-0.268962	0.129738	-1.513617
F	1.373083	0.0	0.0
H	0.020407	-0.857236	-1.898289
H	0.501609	0.825564	-1.856799
N	-0.337864	1.306963	0.718739
O	-0.606131	1.257024	1.91481
O	-0.202551	2.34607	0.074784
C	-0.644846	-1.147683	0.694441
H	-0.324351	-1.207849	1.734926
H	-1.737332	-0.935607	0.604463
H	-0.376869	-2.067598	0.167939
C	-1.615434	0.538605	-2.088762
H	-2.437935	-0.011922	-1.622002
H	-1.813605	1.585514	-1.854112
H	-1.562227	0.428433	-3.180213
F	-3.128983	0.0	0.0
