17

C	0.0	0.0	0.0
C	-0.549006	0.215136	-1.387703
F	1.367621	0.0	0.0
H	-1.617472	0.418202	-1.200906
H	-0.038726	1.077258	-1.823124
N	-0.322419	1.253717	0.837901
O	-0.331381	2.333919	0.252711
O	-0.431813	1.124807	2.053802
C	-0.538223	-1.207687	0.707197
H	-0.161839	-1.244585	1.728846
H	-0.211576	-2.101043	0.169935
H	-1.635536	-1.076433	0.660277
C	-0.399727	-1.023314	-2.265343
H	0.605594	-1.455544	-2.218764
H	-1.126919	-1.778113	-1.962947
H	-0.604696	-0.769133	-3.309476
F	-2.921011	0.0	0.0
