17

C	0.0	0.0	0.0
C	-0.295104	-0.211269	-1.500431
F	1.373078	0.0	0.0
H	-0.137376	-1.288331	-1.642728
H	0.5349	0.29055	-2.006211
N	-0.319108	1.440919	0.406115
O	-0.611042	1.664461	1.576718
O	-0.145865	2.305795	-0.450004
C	-0.661598	-0.95135	0.935568
H	-0.36102	-0.76626	1.966599
H	-0.393805	-1.970271	0.644971
H	-1.751993	-0.765023	0.784643
C	-1.613669	0.208541	-2.133479
H	-1.643511	-0.183476	-3.158533
H	-1.667571	1.298457	-2.184151
H	-2.46831	-0.112404	-1.516749
F	-3.199162	0.0	0.0
