14

C	0.0	0.0	0.0
C	-0.414121	0.217965	-1.507472
Cl	1.833282	0.0	0.0
H	0.481661	0.439687	-2.094916
H	-0.284131	-1.002138	0.310404
N	-0.524181	0.927458	0.934477
H	-0.453927	1.850296	0.518133
H	-1.535544	0.677059	0.897372
N	-1.333965	1.337236	-1.62156
H	-1.575548	1.4505	-2.599654
H	-2.170836	1.003889	-1.089544
C	-0.936336	-1.05665	-2.04434
N	-1.277526	-2.058777	-2.555478
F	-2.812999	0.0	0.0
