14

C	0.0	0.0	0.0
C	-0.581032	0.03639	-1.413568
Cl	1.773721	0.0	0.0
H	-1.607368	0.397996	-1.238349
H	-0.282167	-0.971029	0.416555
N	-0.518918	1.134031	0.718137
H	-1.541418	0.939886	0.659722
H	-0.233802	1.057155	1.688358
N	-0.630501	-1.334444	-1.945792
H	-1.492661	-1.692649	-1.544257
H	-0.7777	-1.293431	-2.948578
C	0.137659	0.9248	-2.315828
N	0.663618	1.619091	-3.105972
F	-2.826236	0.0	0.0
