14

C	0.0	0.0	0.0
C	-0.297535	-0.195105	-1.542948
Cl	1.822828	0.0	0.0
H	0.517193	0.326665	-2.054124
H	-0.278571	-0.892205	0.567539
N	-0.586774	1.220768	0.440137
H	-0.383935	1.331801	1.429204
H	-1.607373	0.975284	0.361544
N	-1.54067	0.279794	-2.10478
H	-2.288601	0.065466	-1.403656
H	-1.47183	1.291303	-2.122856
C	-0.117226	-1.625802	-1.853861
N	0.037315	-2.76336	-2.101082
F	-2.931046	0.0	0.0
