14

C	0.0	0.0	0.0
C	-0.424985	-0.098858	-1.522065
Cl	1.787616	0.0	0.0
H	0.467652	0.017734	-2.143988
H	-0.30391	-0.912083	0.508671
N	-0.536539	1.101952	0.722078
H	-1.547825	0.850436	0.724666
H	-0.459201	1.922169	0.127645
N	-1.365802	0.95553	-1.860321
H	-1.605465	0.861231	-2.840826
H	-2.19893	0.725831	-1.268537
C	-0.91828	-1.467123	-1.785806
N	-1.275101	-2.555993	-2.050349
F	-2.845622	0.0	0.0
