14

C	0.0	0.0	0.0
C	-0.318852	-0.045978	-1.554895
Cl	1.779209	0.0	0.0
H	0.50884	0.493364	-2.026535
H	-0.303607	-0.936239	0.477702
N	-0.589984	1.17934	0.550617
H	-0.373212	1.210808	1.54229
H	-1.608925	0.938385	0.462615
N	-1.547838	0.519411	-2.060774
H	-1.456698	1.523002	-1.946472
H	-2.301109	0.233843	-1.391964
C	-0.183816	-1.446855	-1.995107
N	-0.049929	-2.561071	-2.341014
F	-2.93516	0.0	0.0
