14

C	0.0	0.0	0.0
C	-0.343049	-0.035318	-1.551039
Cl	1.784071	0.0	0.0
H	0.521551	0.415304	-2.048426
H	-0.299801	-0.936784	0.477634
N	-0.574387	1.178488	0.570084
H	-0.341764	1.19757	1.558502
H	-1.594686	0.942882	0.491814
N	-1.523336	0.641566	-2.038214
H	-1.362335	1.628678	-1.8687
H	-2.293029	0.362289	-1.387371
C	-0.353792	-1.44663	-1.9719
N	-0.329118	-2.575581	-2.293502
F	-2.903799	0.0	0.0
