10
Coordinates from ORCA-job run
  C   1.22962864722296     -0.31323026576157      0.62971259519447
  C   0.07932978168642     -0.02016134258455      0.04049765108679
  H   1.99547363330803      0.44500014811566      0.72749292047906
  H   1.40185949266061     -1.31045045277525      1.01298072177673
  N   -0.26084192106192      1.32855066892334     -0.42860422882231
  O   -1.42119848790872      1.67736212350193     -0.23847754043981
  O   0.64417011290497      1.99505350298710     -0.91574160448962
  N   -0.97334201538326     -1.01384824051727     -0.20357577695825
  O   -1.54955164940706     -0.91968582178593     -1.28212538279852
  O   -1.14552759402202     -1.86759032010345      0.65784064497146
