10
Coordinates from ORCA-job run
  C   1.21710774639657     -0.31222484802321      0.65345059586256
  C   0.07816121082396     -0.01998977917462      0.04213454180123
  H   1.83969515894952      0.48145403391924      1.04523088798161
  H   1.52361921435465     -1.34432361995632      0.76213162488677
  N   -0.85818491324156     -1.04244900416479     -0.44063072873750
  O   -2.04709921306808     -0.79145055884596     -0.27423739534382
  O   -0.37429053960145     -2.06352170519810     -0.91376653907725
  N   -0.36376798671282      1.35586639577304     -0.21583268728253
  O   -0.12007261427822      2.19126051309024      0.64635741661973
  O   -0.89516806362259      1.54537857258048     -1.30483771671080
