10
Coordinates from ORCA-job run
  C   1.35593592382589     -0.32453740149283      0.25023260236986
  C   0.08720613863087     -0.02091099013315      0.01645999839773
  H   1.61750717546880     -1.31021075184188      0.61211247280696
  H   2.12821845251007      0.41328179955969      0.07659027457415
  N   -0.35409586796814      1.31710963096793     -0.39588087013864
  O   -1.39733750761856      1.71038294167977      0.11517321258565
  O   0.37516843054718      1.93369042301103     -1.16302617164146
  N   -1.00695728371753     -0.99094136742278      0.14565356871605
  O   -0.92678171990670     -1.80459947365516      1.05780695044127
  O   -1.87886374177187     -0.92226481067261     -0.71412203811158
