10
Coordinates from ORCA-job run
  C   1.35378759492162     -0.37189325349018      0.18781587806164
  C   0.08706733632584     -0.02384627682356      0.01231468437189
  H   2.10893191516814      0.39044946276388      0.32752832185050
  H   1.63085564137169     -1.41792456246443      0.18883965760772
  N   -0.35514418269707      1.37240546986487     -0.08656411082861
  O   0.21452988880368      2.19011643680963      0.62569769704376
  O   -1.22748199949813      1.59311189069132     -0.91991621798221
  N   -1.00404069535984     -0.99937019897580     -0.10131060608676
  O   -2.04520999076026     -0.69695088288955      0.47201158253246
  O   -0.76429550827567     -2.03709808548619     -0.70641688657040
