10
Coordinates from ORCA-job run
  C   1.20840843394260     -0.29163117547748      0.68043627804593
  C   0.07850773696811     -0.01885887800756      0.04361452964842
  H   1.39717336131079     -1.29423293024002      1.04117323710434
  H   1.94140484284937      0.48834849341221      0.83970162824767
  N   -0.92429322803340     -1.03984650562007     -0.28205998405453
  O   -1.11128370966920     -1.92337412500288      0.54568848750008
  O   -1.45261472762000     -0.92961864713832     -1.38355146565705
  N   -0.28671664476057      1.33127887824016     -0.40089470355569
  O   -1.46677998026047      1.63393377872393     -0.25914862515109
  O   0.61619391527278      2.04300111111005     -0.82395938212806
