10
Coordinates from ORCA-job run
  C   1.35525814055402     -0.31802664633952      0.26183924640537
  C   0.08721686361343     -0.02042636475365      0.01681059104321
  H   2.12843087768235      0.41674323343218      0.07911783243730
  H   1.61658005134657     -1.29576215152969      0.64488713242491
  N   -0.35363816251242      1.30833669453462     -0.42341516018602
  O   0.36800179146299      1.90235543424899     -1.21542374671728
  O   -1.38918211404740      1.71857914761705      0.09013909240807
  N   -1.00684661974558     -0.98902402080765      0.16092618173384
  O   -1.88633481976329     -0.92506257355880     -0.69150301051540
  O   -0.91948600859068     -1.79671275284352      1.07762184096601
