10
Coordinates from ORCA-job run
  C   1.38693292662164     -0.21138881863728     -0.19450308072918
  C   0.08916589598278     -0.01359089378337     -0.01240729363702
  H   1.76025883510414     -1.20976890408765     -0.38124212267672
  H   2.07209726437852      0.62533303063452     -0.15672533711981
  N   -0.48306095212329      1.29503934369852      0.32711957424502
  O   -1.39119026018984      1.27737607659942      1.15124671443776
  O   0.02416550468835      2.27895553722353     -0.19748224448758
  N   -0.90947660357273     -1.08303918640759     -0.13143735902658
  O   -1.96053996029552     -0.76654169530060     -0.67859861270172
  O   -0.58935265059406     -2.19337448993951      0.27502976169583
