10
Coordinates from ORCA-job run
  C   1.22770403419474     -0.28458193589389      0.64697468539414
  C   0.07919844003951     -0.01826907296933      0.04176258915217
  H   1.42720670693219     -1.28355547854034      1.01200042697400
  H   1.96446550082886      0.49735596660194      0.77632545981910
  N   -1.00174053112847     -1.00205875862772     -0.09667733619703
  O   -0.67532220785726     -2.16455867820733     -0.30294100637008
  O   -2.13709116933737     -0.56549566877162      0.06031597476429
  N   -0.23013895786040      1.28784174057461     -0.55264780383364
  O   -0.82900235951161      1.25361469055705     -1.62248513391096
  O   0.17672054369982      2.28070719527662      0.03837214420800
