10
Coordinates from ORCA-job run
  C   1.22348388477391     -0.27892632830836      0.65710609886128
  C   0.07886049768889     -0.01790268240442      0.04231154027147
  H   1.41619732792216     -1.27185752905509      1.04171637508455
  H   1.96390390240952      0.50142670477573      0.77466787795543
  N   -0.93771386226647     -1.04170900203233     -0.22849658536575
  O   -1.10350575442673     -1.90367472475583      0.62599109162668
  O   -1.49183290512193     -0.96126818798914     -1.31975382334372
  N   -0.29012529951225      1.32185093577427     -0.43134499065031
  O   -1.46440460592917      1.63562407610979     -0.26742528820780
  O   0.60613681446207      2.01643673788538     -0.89477229623185
