10
Coordinates from ORCA-job run
  C   1.35955423286783     -0.35225053552820      0.18424198360310
  C   0.08761038160041     -0.02242634493271      0.01192908139253
  H   2.13926797811748      0.36048758622254     -0.05035621938354
  H   1.61710290176138     -1.33416991604580      0.55903561009619
  N   -0.34411246335194      1.31482284255296     -0.41252675320211
  O   0.35750092197837      1.89311847322416     -1.23351182233378
  O   -1.34976699450181      1.74661384839554      0.14099813508384
  N   -1.02041442841841     -0.96101648623940      0.22805741293835
  O   -1.93614768209858     -0.89478375727881     -0.58509991372416
  O   -0.90959484795471     -1.75039571037027      1.15823248552959
