10
Coordinates from ORCA-job run
  C   1.35845297114568     -0.34695903770994      0.20175388531263
  C   0.08744145566647     -0.02247774971258      0.01299141256086
  H   1.61569131333158     -1.32454293891868      0.58793065139945
  H   2.13846942269209      0.36612366758337     -0.03084582768916
  N   -0.34312276373150      1.30979885475150     -0.42848187099066
  O   -1.35550973349041      1.74413995336415      0.11069299481546
  O   0.36538665855870      1.88232653774905     -1.24753329555612
  N   -1.02050115143645     -0.96181070805861      0.22576012227676
  O   -1.92707706378843     -0.90615287404129     -0.59839299384567
  O   -0.91823110894773     -1.74144570500697      1.16512492171645
