10
Coordinates from ORCA-job run
  C   1.38397103389107     -0.23218270535220      0.19115392167063
  C   0.08900841906448     -0.01466057128215      0.01188022944723
  H   1.74793629143831     -1.24043623119959      0.33925375695540
  H   2.07786673547703      0.59819960628379      0.18676763889592
  N   -0.48929977041444      1.32871906671888     -0.11376939103209
  O   -1.56425739967813      1.49727041482103      0.45202777745987
  O   0.16838431335375      2.16432176656784     -0.72192416885804
  N   -0.90025786697196     -1.09553928635199     -0.07761095738022
  O   -0.73166720831350     -2.06802255712542      0.64794906729322
  O   -1.78168454784661     -0.93766950308017     -0.91572787445192
