13

C	0.0	0.0	0.0
C	-0.289016	-0.017601	-1.509867
F	1.408377	0.0	0.0
H	0.073876	0.930836	-1.91971
H	0.376845	-0.79988	-1.885688
C	-0.372979	1.289611	0.63851
N	-0.518737	2.311183	1.199755
N	-0.487963	-1.160544	0.645649
H	-0.258098	-1.08899	1.63235
H	-1.529531	-0.979981	0.530173
C	-1.620636	-0.279853	-2.064981
N	-2.424327	-0.53235	-2.88691
F	-2.599357	0.0	0.0
