13

C	0.0	0.0	0.0
C	-0.517503	0.042471	-1.434901
F	1.376787	0.0	0.0
H	-1.618335	0.121029	-1.293689
H	-0.264228	-0.917569	-1.89252
C	-0.35281	1.274416	0.703287
N	-0.520231	2.259392	1.320754
N	-0.540698	-1.155874	0.625632
H	-1.575194	-0.963387	0.508747
H	-0.327211	-1.112843	1.617507
C	0.05064	1.131209	-2.214537
N	0.498165	2.000279	-2.866127
F	-2.773717	0.0	0.0
