13

C	0.0	0.0	0.0
C	-0.292356	0.052178	-1.512333
F	1.381234	0.0	0.0
H	0.168078	-0.865773	-1.892016
H	0.297796	0.887646	-1.906288
C	-0.383684	1.268429	0.680155
N	-0.539486	2.290926	1.236421
N	-0.512101	-1.180323	0.590136
H	-1.552066	-0.981241	0.461235
H	-0.311197	-1.148852	1.586127
C	-1.638494	0.151251	-2.08175
N	-2.471459	0.220528	-2.911105
F	-2.627701	0.0	0.0
