13

C	0.0	0.0	0.0
C	-0.491225	0.016796	-1.455477
F	1.375781	0.0	0.0
H	-1.593235	0.083302	-1.31727
H	-0.2284	-0.946917	-1.905001
C	-0.39753	1.270179	0.664958
N	-0.569173	2.305747	1.189728
N	-0.530008	-1.08676	0.753842
H	-0.352626	-1.936823	0.22511
H	-1.561343	-0.8744	0.672636
C	0.069503	1.087591	-2.265408
N	0.520321	1.938192	-2.938803
F	-2.752499	0.0	0.0
