13

C	0.0	0.0	0.0
C	-0.523299	0.019943	-1.431605
F	1.378867	0.0	0.0
H	-0.211609	0.943568	-1.927976
H	-1.629428	0.006787	-1.2764
C	-0.357588	1.302718	0.649173
N	-0.526723	2.333106	1.187259
N	-0.524157	-1.136041	0.674047
H	-0.278062	-1.075564	1.656925
H	-1.555729	-0.959427	0.574043
C	-0.032304	-1.120384	-2.191945
N	0.351219	-2.016422	-2.847373
F	-2.769968	0.0	0.0
