18

C	0.0	0.0	0.0
C	-0.487261	0.123671	-1.491877
Br	1.965557	0.0	0.0
H	0.404033	0.310412	-2.099023
C	-0.335315	1.207302	0.768718
N	-0.504637	2.13266	1.473523
C	-0.510855	-1.205945	0.776643
H	-0.118352	-1.183411	1.79572
H	-1.604509	-1.083768	0.766574
H	-0.19949	-2.135561	0.297727
N	-1.347776	1.297335	-1.592192
H	-2.187115	1.023207	-1.036554
H	-1.619095	1.39385	-2.566205
C	-1.169947	-1.155363	-1.984043
H	-2.085931	-1.259173	-1.397246
H	-0.537323	-2.047727	-1.923961
H	-1.43755	-1.008938	-3.036585
F	-2.976072	0.0	0.0
