18

C	0.0	0.0	0.0
C	-0.48124	-0.001624	-1.497607
Br	1.970989	0.0	0.0
H	0.405916	0.180655	-2.11209
C	-0.326303	1.278757	0.651287
N	-0.482352	2.260852	1.278051
C	-0.532989	-1.119401	0.881131
H	-0.156999	-0.999574	1.900242
H	-1.62715	-0.988562	0.843844
H	-0.228127	-2.095929	0.502233
N	-1.388731	1.122085	-1.686076
H	-2.221634	0.873721	-1.102784
H	-1.660742	1.140886	-2.66345
C	-1.101083	-1.343648	-1.893302
H	-0.445173	-2.20511	-1.728292
H	-1.336088	-1.306741	-2.962882
H	-2.030967	-1.435242	-1.329351
F	-3.018516	0.0	0.0
