18

C	0.0	0.0	0.0
C	-0.241414	-0.146599	-1.560326
Br	1.980805	0.0	0.0
H	0.188687	-1.140348	-1.767728
C	-0.386697	1.329368	0.469558
N	-0.631365	2.389947	0.912679
C	-0.665992	-1.088496	0.799328
H	-0.403727	-2.068646	0.389681
H	-0.374473	-1.043449	1.851601
H	-1.754663	-0.872657	0.678964
N	0.473084	0.915623	-2.27968
H	1.428416	0.658341	-2.482409
H	-0.008334	1.080616	-3.153555
C	-1.677997	-0.125097	-2.053936
H	-2.424143	-0.503965	-1.336393
H	-1.695798	-0.622907	-3.032633
H	-1.987273	0.91621	-2.181967
F	-3.261308	0.0	0.0
