18

C	0.0	0.0	0.0
C	-0.482869	0.064516	-1.494425
Br	1.970894	0.0	0.0
H	0.404673	0.262872	-2.102437
C	-0.324945	1.246024	0.709995
N	-0.491892	2.202788	1.371337
C	-0.529762	-1.159457	0.831934
H	-1.623229	-1.024601	0.803881
H	-0.148781	-1.087446	1.853301
H	-0.227436	-2.116937	0.405087
N	-1.382788	1.201988	-1.639093
H	-2.211613	0.933681	-1.058378
H	-1.669903	1.236769	-2.613494
C	-1.106747	-1.25795	-1.947046
H	-2.029266	-1.385263	-1.376915
H	-0.43644	-2.118132	-1.835469
H	-1.353602	-1.167514	-3.010498
F	-3.008695	0.0	0.0
