18

C	0.0	0.0	0.0
C	-0.479931	0.158286	-1.520038
Br	1.976369	0.0	0.0
H	0.420805	0.420057	-2.085251
C	-0.324826	1.229263	0.731484
N	-0.47666	2.25118	1.292913
C	-0.532758	-1.193251	0.772392
H	-1.62692	-1.056106	0.741324
H	-0.157463	-1.175571	1.79879
H	-0.226364	-2.126995	0.299171
N	-1.467411	1.190157	-1.739908
H	-2.255696	0.938326	-1.100265
H	-1.084746	2.086268	-1.458752
C	-1.042835	-1.15669	-2.039685
H	-1.320117	-1.006694	-3.085611
H	-1.946245	-1.368482	-1.465969
H	-0.321241	-1.975727	-1.980339
F	-2.978889	0.0	0.0
