18

C	0.0	0.0	0.0
C	-0.48157	0.119396	-1.520736
Br	1.976569	0.0	0.0
H	0.419242	0.363848	-2.096275
C	-0.324298	1.25035	0.695905
N	-0.496733	2.271695	1.251749
C	-0.549505	-1.16171	0.81119
H	-0.187121	-1.106629	1.841274
H	-1.643417	-1.018782	0.764452
H	-0.24641	-2.11588	0.377812
N	-1.485036	1.132506	-1.757436
H	-1.136673	2.037855	-1.464822
H	-2.275369	0.857606	-1.129245
C	-1.060513	-1.206808	-2.003677
H	-1.284662	-1.108218	-3.066999
H	-1.99741	-1.346152	-1.455796
H	-0.394175	-2.063599	-1.858913
F	-3.019897	0.0	0.0
