18

C	0.0	0.0	0.0
C	-0.463744	0.161436	-1.524898
Br	1.972526	0.0	0.0
H	0.430714	0.488058	-2.064903
C	-0.325725	1.239484	0.714155
N	-0.517984	2.246929	1.288558
C	-0.57003	-1.175188	0.771302
H	-0.2705	-2.120268	0.316797
H	-0.223682	-1.151505	1.807629
H	-1.662898	-1.017247	0.710922
N	-1.509647	1.130897	-1.749356
H	-2.29489	0.837085	-1.11726
H	-1.188132	2.047997	-1.45959
C	-0.936962	-1.175768	-2.075489
H	-1.872299	-1.418552	-1.56799
H	-1.137486	-1.048929	-3.141447
H	-0.202319	-1.975788	-1.945077
F	-3.035703	0.0	0.0
