19

C	-0.486278	-0.000363	-1.458318
C	0.0	0.0	0.0
Cl	-0.313917	-1.659995	-2.185071
H	1.095969	0.0	0.0
N	-1.901033	0.325736	-1.50104
H	-1.967421	1.205599	-0.995975
H	-2.16534	0.493659	-2.465928
C	0.402741	0.916876	-2.283879
H	0.112951	0.887751	-3.339415
H	0.281666	1.935288	-1.905526
H	1.450186	0.628425	-2.163985
C	-0.532177	-1.14112	0.84621
H	-0.148872	-2.100759	0.500159
H	-0.189972	-1.001078	1.876524
H	-1.627069	-1.171622	0.824154
N	-0.391762	1.320023	0.556107
H	0.462035	1.752713	0.898152
H	-1.00224	1.183575	1.354187
H	2.996008	0.0	0.0
