19

C	-0.346512	-0.035357	-1.489965
C	0.0	0.0	0.0
Cl	-0.067185	1.72891	-2.17363
H	1.104265	0.0	0.0
N	0.547563	-0.939259	-2.097353
H	0.509432	-0.889758	-3.107609
H	1.501168	-0.763662	-1.762823
C	-1.796677	-0.311822	-1.82419
H	-1.976446	-0.207829	-2.897693
H	-2.432286	0.390866	-1.285069
H	-2.040933	-1.333724	-1.525044
C	-0.447486	-1.284609	0.683904
H	0.050844	-1.351672	1.657164
H	-1.530766	-1.296286	0.845189
H	-0.147935	-2.15537	0.100102
N	-0.614755	1.137616	0.691248
H	-0.113635	1.970992	0.399644
H	-0.395793	1.019601	1.676453
H	3.013491	0.0	0.0
