19

C	-0.504765	0.051992	-1.446148
C	0.0	0.0	0.0
Cl	-0.163245	-1.528475	-2.282518
H	1.099585	0.0	0.0
N	-1.945076	0.232527	-1.452952
H	-2.096537	1.024036	-0.832034
H	-2.242382	0.498338	-2.387767
C	0.272781	1.108252	-2.218419
H	0.02851	2.086376	-1.798029
H	-0.009474	1.097269	-3.276076
H	1.346134	0.932227	-2.109825
C	-0.534442	-1.158862	0.817463
H	-0.068584	-1.128479	1.807207
H	-1.622919	-1.103472	0.922069
H	-0.278767	-2.114516	0.361601
N	-0.409132	1.294219	0.617457
H	-0.731098	1.113058	1.558791
H	0.44283	1.835806	0.719913
H	2.983842	0.0	0.0
