19

C	-0.521204	0.065451	-1.447356
C	0.0	0.0	0.0
Cl	-0.206828	-1.515988	-2.273365
H	1.100271	0.0	0.0
N	-1.956266	0.312157	-1.562106
H	-2.446787	-0.488563	-1.174677
H	-2.114984	1.090837	-0.92411
C	0.242574	1.129834	-2.209407
H	0.008651	2.1045	-1.774369
H	-0.06392	1.127266	-3.257073
H	1.314706	0.946642	-2.109583
C	-0.517708	-1.164299	0.820935
H	-0.256734	-2.120427	0.368906
H	-1.606925	-1.121419	0.953582
H	-0.048948	-1.127301	1.808575
N	-0.413556	1.287693	0.622292
H	-0.767173	1.103585	1.554406
H	0.44017	1.827145	0.746999
H	2.98253	0.0	0.0
