13

C	0.0	0.0	0.0
C	-0.539669	-0.385877	-1.36435
Br	2.02303	0.0	0.0
H	-1.608427	-0.549837	-1.176931
H	-0.235856	1.042872	0.1983
H	-0.079922	-1.324965	-1.685969
N	-0.510194	-0.815971	1.012633
H	-0.290891	-1.794295	0.909389
H	-0.318161	-0.492073	1.946403
N	-0.303278	0.679902	-2.340375
H	-1.170919	1.189324	-2.456777
H	-0.066895	0.28319	-3.238723
Br	-4.116718	0.0	0.0
