13

C	0.0	0.0	0.0
C	-0.427964	0.110056	-1.459123
Br	2.042346	0.0	0.0
H	0.110703	0.934914	-1.929245
H	-0.227159	0.908822	0.551287
H	-1.495986	0.346861	-1.431439
N	-0.536189	-1.104434	0.639206
H	-0.272548	-1.996101	0.256617
H	-0.532603	-1.084624	1.643186
N	-0.254019	-1.093005	-2.257153
H	-0.946886	-1.778549	-1.988942
H	0.673885	-1.477711	-2.126834
Br	-4.060401	0.0	0.0
