15

C	0.0	0.0	0.0
C	-0.523582	-0.003153	-1.446658
Cl	1.789024	0.0	0.0
H	-1.622049	-0.027059	-1.225114
H	-0.312054	0.951912	0.430776
N	-0.529791	-1.042925	0.824356
H	-0.345289	-1.933811	0.37012
H	-1.55397	-0.838181	0.733852
C	-0.131519	-1.22062	-2.142742
N	0.176853	-2.198369	-2.718958
C	-0.156109	1.242658	-2.24671
H	-0.504701	2.125398	-1.703348
H	0.922824	1.326535	-2.399133
H	-0.647618	1.233119	-3.222998
F	-2.807617	0.0	0.0
