15

C	0.0	0.0	0.0
C	-0.220503	0.093953	-1.576206
Cl	1.794256	0.0	0.0
H	0.483347	-0.639505	-1.990144
H	-0.332788	0.927536	0.462175
N	-0.627786	-1.082194	0.653276
H	-1.655372	-0.795927	0.545166
H	-0.464265	-1.934265	0.126008
C	0.242369	1.404197	-2.048294
N	0.564587	2.463457	-2.442978
C	-1.588679	-0.204645	-2.187138
H	-1.485479	-0.172843	-3.278355
H	-2.349529	0.468837	-1.80525
H	-1.914609	-1.198303	-1.880543
F	-2.910077	0.0	0.0
