15

C	0.0	0.0	0.0
C	-0.310062	0.216174	-1.534327
Cl	1.78337	0.0	0.0
H	0.589618	-0.086002	-2.070157
H	-0.298981	0.88829	0.561258
N	-0.584657	-1.218307	0.450861
H	-0.390257	-1.307645	1.444341
H	-1.613497	-0.953758	0.359398
C	-0.435777	1.653345	-1.782626
N	-0.523859	2.798942	-2.032062
C	-1.458704	-0.566832	-2.182299
H	-1.276353	-1.632675	-2.020931
H	-1.442908	-0.359247	-3.258499
H	-2.39497	-0.29104	-1.693768
F	-2.845697	0.0	0.0
