15

C	0.0	0.0	0.0
C	-0.258505	0.103231	-1.578361
Cl	1.793785	0.0	0.0
H	0.614125	-0.35152	-2.059659
H	-0.333331	0.921829	0.47118
N	-0.604153	-1.088187	0.671168
H	-1.630537	-0.824403	0.57079
H	-0.434306	-1.943661	0.151626
C	-0.210999	1.515688	-1.959651
N	-0.16338	2.649829	-2.265966
C	-1.495437	-0.585438	-2.163665
H	-1.403696	-1.663407	-2.001842
H	-2.38854	-0.24087	-1.63101
H	-1.518042	-0.404725	-3.24377
F	-2.898405	0.0	0.0
