15

C	0.0	0.0	0.0
C	-0.522879	-0.093256	-1.444233
Cl	1.789095	0.0	0.0
H	-1.621454	-0.10192	-1.223208
H	-0.313282	0.976777	0.370141
N	-0.531527	-0.988748	0.887691
H	-1.555343	-0.787231	0.783986
H	-0.350515	-1.906124	0.488187
C	-0.132611	-1.353205	-2.061619
N	0.177119	-2.364894	-2.575097
C	-0.152224	1.098556	-2.321332
H	0.926897	1.168805	-2.480384
H	-0.496407	2.015291	-1.833791
H	-0.645945	1.029706	-3.294282
F	-2.808325	0.0	0.0
