17

C	-0.501659	0.044019	-1.437341
C	0.0	0.0	0.0
Cl	-0.090023	-1.538411	-2.238549
H	1.100368	0.0	0.0
H	-0.325551	0.942099	0.461202
C	-2.010552	0.194193	-1.514387
H	-2.492834	-0.600995	-0.946288
H	-2.296322	1.157028	-1.076518
H	-2.353624	0.165511	-2.55178
C	0.242101	1.130667	-2.19483
H	-0.000817	2.104708	-1.755585
H	1.319837	0.974149	-2.111162
H	-0.048296	1.140437	-3.248572
N	-0.59743	-1.102269	0.765218
H	-0.304818	-0.984098	1.729441
H	-0.145051	-1.95479	0.45081
Br	3.752868	0.0	0.0
