17

C	-0.457132	0.024882	-1.467156
C	0.0	0.0	0.0
Cl	-0.012357	-1.557023	-2.239449
H	1.094197	0.0	0.0
H	-0.321168	0.957723	0.432389
C	-1.962846	0.172376	-1.617056
H	-2.286915	1.109521	-1.151896
H	-2.490316	-0.656663	-1.139838
H	-2.247895	0.186505	-2.671675
C	0.299453	1.120094	-2.19925
H	0.029034	2.091655	-1.771217
H	1.375041	0.976641	-2.072055
H	0.049707	1.125235	-3.263676
N	-0.477803	-1.077171	0.849938
H	-0.017405	-1.936358	0.575159
H	-1.478148	-1.208206	0.748314
Br	3.77859	0.0	0.0
