16
Coordinates from ORCA-job run
  C   0.80117581809925      0.56083127286779      0.09001961588767
  C   -0.49753303578534     -0.13350569607635     -0.31698239722095
  Br  0.77086896072581      1.00841298218179      2.00973086223241
  H   -0.36355638255157     -0.34400013291649     -1.38791150314045
  H   0.85371122156810      1.53449041799575     -0.40321014910263
  C   2.03928574277335     -0.26317150099609     -0.20363365893660
  H   1.99266500139108     -1.21402762047579      0.32426340521704
  H   2.08314113744673     -0.46815012034689     -1.27851210534306
  H   2.94547797948843      0.27202437325627      0.08370186111117
  C   -1.72584141587119      0.76202883611351     -0.16471932108459
  H   -1.92252865298054      0.97174181253791      0.88867669164786
  H   -1.59756648385503      1.71575410840422     -0.68613523393808
  H   -2.60453977319914      0.26364114336885     -0.58337394346401
  N   -0.59863531164637     -1.42865838246668      0.34881464392037
  H   -0.81012371215347     -1.28274374788505      1.33025095865742
  H   -1.36600109345010     -1.95566774556275     -0.05097972644358
