16
Coordinates from ORCA-job run
  C   0.88411491356593      0.17199871111936     -0.69781229110054
  C   -0.61187728031434     -0.13236618191727     -0.55992318331767
  Br  1.14325060674414      1.96551659460908     -1.45586597174202
  H   -1.05397324813519      0.02355976861712     -1.54957581115534
  H   1.28090239919128     -0.50481245256611     -1.45516987530572
  C   1.68122664579604      0.04326258739298      0.58588570199810
  H   1.55031825306928     -0.96408561618908      0.99074468058382
  H   1.36936901112776      0.77683394482709      1.33081718383197
  H   2.74434938917111      0.19255980756321      0.39242915504027
  C   -1.34411153907183      0.74884912558228      0.44756350306917
  H   -0.97259876734613      0.57215183899608      1.46102848381565
  H   -2.40939614270024      0.50449384248977      0.43846078408321
  H   -1.23458438944950      1.81099622015031      0.22261168205749
  N   -0.71326734096709     -1.56774033111812     -0.26293481031486
  H   -0.73043646731577     -1.71069125917942      0.74059054570571
  H   -1.58428604336546     -1.93252660037728     -0.62784977724924
