17

C	-0.195975	-0.0135	-1.520464
C	0.0	0.0	0.0
Cl	-1.947688	-0.066553	-1.989564
H	1.100757	0.0	0.0
N	0.330387	1.234935	-2.02613
H	0.316886	1.222348	-3.040241
H	1.301337	1.296538	-1.718281
N	0.400229	-1.241794	-2.010704
H	1.379722	-1.22537	-1.720899
H	0.372209	-1.23909	-3.024526
C	-0.527922	-1.230217	0.726852
H	-0.110271	-2.127291	0.272836
H	-1.617989	-1.27623	0.669887
H	-0.227682	-1.188366	1.775868
C	-0.508567	1.226948	0.598743
N	-0.933425	2.166378	1.161411
Br	3.4639	0.0	0.0
