17

C	-0.212459	-0.309013	-1.494592
C	0.0	0.0	0.0
Cl	-1.992908	-0.471256	-1.852425
H	1.100251	0.0	0.0
N	0.280317	0.732808	-2.372165
H	-0.191607	1.610352	-2.177378
H	1.269199	0.850524	-2.149888
N	0.427408	-1.563908	-1.764873
H	1.381358	-1.506802	-1.403022
H	0.48094	-1.663382	-2.773039
C	-0.528475	-1.049661	0.970177
H	-1.620127	-1.054166	0.98584
H	-0.154177	-0.841134	1.975016
H	-0.175216	-2.031925	0.659609
C	-0.489436	1.332341	0.322373
N	-0.913032	2.396815	0.583618
Br	3.45502	0.0	0.0
