17

C	-0.342901	0.079021	-1.496157
C	0.0	0.0	0.0
Cl	0.035864	-1.718514	-2.214053
H	1.095611	0.0	0.0
N	-1.708063	0.347367	-1.760669
H	-2.277374	-0.427626	-1.446425
H	-1.861455	0.466449	-2.754713
N	0.51456	1.000857	-2.100308
H	1.479104	0.851358	-1.802994
H	0.455768	0.987601	-3.109881
C	-0.53895	-1.191247	0.784584
H	-0.266954	-1.070431	1.833978
H	-1.628965	-1.261272	0.724052
H	-0.095335	-2.113031	0.417813
C	-0.447575	1.249266	0.620355
N	-0.806546	2.22005	1.17574
Br	3.48778	0.0	0.0
