17

C	-0.353406	-0.110336	-1.489284
C	0.0	0.0	0.0
Cl	0.091456	1.602266	-2.26089
H	1.093063	0.0	0.0
N	0.464155	-1.105241	-2.062406
H	1.434904	-0.943962	-1.791925
H	0.398025	-1.101364	-3.072533
N	-1.736276	-0.34848	-1.717167
H	-2.268834	0.442616	-1.373614
H	-1.917699	-0.435875	-2.710574
C	-0.451383	-1.251556	0.763937
H	-1.538912	-1.329848	0.799653
H	-0.052608	-1.208926	1.77976
H	-0.046663	-2.131766	0.266077
C	-0.567604	1.190317	0.614933
N	-1.107656	2.101863	1.122955
Br	3.482464	0.0	0.0
