16

C	-0.45784	-0.082817	-1.459222
C	0.0	0.0	0.0
F	-1.809824	-0.486169	-1.480184
H	1.09474	0.0	0.0
C	-0.475492	1.276428	-2.053291
N	-0.486948	2.289447	-2.647665
N	0.327443	-0.998734	-2.195777
H	0.390144	-0.749834	-3.172145
H	1.252891	-1.10747	-1.791997
N	-0.419888	-1.316185	0.657043
O	-1.327328	-1.269951	1.488152
O	0.174827	-2.330694	0.315848
N	-0.524205	1.137033	0.662296
H	-1.46839	0.959831	0.97978
H	0.060762	1.363616	1.45483
Cl	3.257111	0.0	0.0
