16

C	-0.343037	-0.071586	-1.483588
C	0.0	0.0	0.0
F	0.051917	-1.318423	-1.971463
H	1.105749	0.0	0.0
C	-1.782487	0.067172	-1.790293
N	-2.905898	0.204067	-2.100837
N	0.383816	0.988502	-2.091085
H	1.371111	0.883923	-1.84954
H	0.269793	0.967835	-3.097114
N	-0.515548	-1.162113	0.777572
O	-1.318292	-1.935545	0.257567
O	-0.115311	-1.22488	1.93692
N	-0.582462	1.183794	0.605001
H	-0.359247	1.959546	-0.00942
H	-0.083791	1.343047	1.47433
Cl	3.300987	0.0	0.0
