16

C	-0.439205	-0.152219	-1.460532
C	0.0	0.0	0.0
F	-1.78582	-0.570988	-1.480911
H	1.092149	0.0	0.0
C	-0.461712	1.178716	-2.115183
N	-0.477281	2.164883	-2.753128
N	0.368127	-1.08915	-2.146542
H	0.463698	-0.86659	-3.126363
H	1.282164	-1.182321	-1.713926
N	-0.421504	-1.288565	0.709281
O	-1.342886	-1.210497	1.523003
O	0.18538	-2.313461	0.423577
N	-0.53443	1.162538	0.605077
H	0.02781	1.414664	1.407087
H	-1.489285	1.001832	0.900663
Cl	3.261609	0.0	0.0
