16

C	-0.431292	-0.132793	-1.472873
C	0.0	0.0	0.0
F	-1.76853	-0.546249	-1.483917
H	1.091576	0.0	0.0
C	-0.393295	1.206032	-2.102524
N	-0.38169	2.226619	-2.681899
N	0.326719	-1.036632	-2.281152
H	1.269235	-0.660881	-2.365112
H	0.415707	-1.903438	-1.760852
N	-0.419493	-1.286621	0.714931
O	-1.091598	-1.177903	1.737796
O	-0.057609	-2.358588	0.234353
N	-0.512354	1.163394	0.619858
H	-1.474053	1.038625	0.906326
H	0.049251	1.401556	1.425808
Cl	3.246319	0.0	0.0
