13

C	-0.538452	-0.092038	-1.423077
C	0.0	0.0	0.0
Br	-0.297536	1.545281	-2.468653
H	1.100323	0.0	0.0
H	-1.609432	-0.288501	-1.408587
H	-0.020149	-0.875998	-1.975361
N	-0.49333	-1.239112	0.647681
H	0.202102	-1.956288	0.443579
H	-0.396437	-1.046372	1.64005
N	-0.476878	1.130282	0.76851
H	-1.397889	1.416356	0.464215
H	0.163395	1.899249	0.62252
H	2.971059	0.0	0.0
