13

C	-0.536057	0.074182	-1.424414
C	0.0	0.0	0.0
Br	-0.287799	-1.571642	-2.449722
H	1.100323	0.0	0.0
H	-0.019464	0.851998	-1.986025
H	-1.608283	0.270199	-1.412172
N	-0.475325	-1.121477	0.782514
H	0.170473	-1.89018	0.649241
H	-1.394272	-1.418932	0.473358
N	-0.49173	1.248092	0.631677
H	-0.40784	1.064023	1.627663
H	0.208138	1.959341	0.426522
H	2.982888	0.0	0.0
