13

C	-0.561708	-0.153064	-1.401427
C	0.0	0.0	0.0
Br	-0.321364	1.421465	-2.55675
H	1.094322	0.0	0.0
H	-1.637171	-0.338614	-1.374039
H	-0.055788	-0.973542	-1.905652
N	-0.41723	-1.245628	0.674763
H	0.421249	-1.629883	1.101358
H	-1.037291	-0.963448	1.425138
N	-0.490125	1.179913	0.710482
H	-1.069195	1.748824	0.103822
H	0.324095	1.741378	0.942631
H	2.941577	0.0	0.0
