13

C	-0.327255	-0.004652	-1.475092
C	0.0	0.0	0.0
Br	-2.24997	0.190861	-1.888201
H	1.105883	0.0	0.0
H	-0.02299	-0.939622	-1.94654
H	0.168695	0.828484	-1.972058
N	-0.559003	-1.187661	0.65429
H	-0.408005	-1.027348	1.644616
H	0.041663	-1.969924	0.405665
N	-0.42663	1.177292	0.728276
H	-1.313759	1.518548	0.37686
H	0.282086	1.891948	0.615363
H	2.952649	0.0	0.0
