13

C	-0.515517	0.234687	-1.407968
C	0.0	0.0	0.0
Br	-0.218593	-1.265436	-2.641738
H	1.096033	0.0	0.0
H	-1.598416	0.384992	-1.400744
H	0.000401	1.08509	-1.854037
N	-0.619751	-1.19641	0.572447
H	-0.176901	-2.001704	0.139174
H	-0.322956	-1.199404	1.542088
N	-0.370336	1.13423	0.838658
H	0.344771	1.845542	0.743861
H	-1.27316	1.51832	0.579653
H	3.008928	0.0	0.0
