13

C	-0.271638	-0.00028	-1.490354
C	0.0	0.0	0.0
Br	-2.208196	0.001034	-1.948377
H	1.098938	0.0	0.0
H	0.132119	-0.893165	-1.967227
H	0.133076	0.891939	-1.967809
N	-0.442392	-1.209653	0.674667
H	-1.280754	-1.584322	0.245574
H	0.301504	-1.894299	0.597239
N	-0.442724	1.209916	0.67371
H	0.301179	1.89463	0.596505
H	-1.280729	1.584184	0.242987
H	2.895436	0.0	0.0
