14

C	-0.470676	0.008256	-1.423203
C	0.0	0.0	0.0
Br	0.646139	-0.987858	-2.644481
H	1.093159	0.0	0.0
H	-0.453803	1.034441	-1.795354
N	-1.941713	-0.409197	-1.567511
O	-2.311741	-0.936608	-2.605836
O	-2.664259	-0.078801	-0.633046
N	-0.354434	-1.206888	0.718616
O	-0.618187	-2.214633	0.047009
O	-0.230387	-1.181879	1.948152
C	-0.393702	1.184151	0.725136
N	-0.653165	2.207782	1.243306
H	2.352484	0.0	0.0
