14

C	-0.353709	0.103858	-1.460316
C	0.0	0.0	0.0
Br	0.307972	-1.270639	-2.646341
H	1.091708	0.0	0.0
H	0.077589	1.03255	-1.831191
N	-1.83866	0.229057	-1.694211
O	-2.572297	-0.570145	-1.121236
O	-2.197265	1.136152	-2.445034
N	-0.418579	-1.190887	0.727415
O	-0.784601	-1.043553	1.902616
O	-0.230657	-2.279781	0.176482
C	-0.457612	1.200527	0.666193
N	-0.767576	2.232866	1.138819
H	2.3872	0.0	0.0
