14

C	-0.632773	0.004709	-1.374042
C	0.0	0.0	0.0
Br	-0.157961	1.621577	-2.338187
H	1.091745	0.0	0.0
H	-1.718974	-0.0499	-1.350035
N	-0.210962	-1.153593	-2.247413
O	0.955477	-1.512155	-2.206127
O	-1.095584	-1.605792	-2.970774
N	-0.376871	-1.18558	0.72935
O	-0.828836	-2.152667	0.078824
O	-0.064842	-1.221204	1.930943
C	-0.376211	1.175389	0.754089
N	-0.641897	2.151681	1.354606
H	2.329075	0.0	0.0
