14

C	-0.43451	-0.011406	-1.449775
C	0.0	0.0	0.0
Br	-2.326761	0.326478	-1.812585
H	1.092597	0.0	0.0
H	-0.182427	-0.964243	-1.921997
N	0.31189	1.048001	-2.233422
O	0.431387	0.83345	-3.436248
O	0.71808	2.026595	-1.622987
N	-0.43684	-1.309475	0.620894
O	-1.647788	-1.499674	0.721504
O	0.438794	-2.084769	0.983699
C	-0.558181	1.072664	0.783533
N	-0.980888	1.94469	1.450695
H	2.542217	0.0	0.0
