14

C	-0.584328	0.043678	-1.397679
C	0.0	0.0	0.0
Br	-0.170952	1.732908	-2.260354
H	1.095346	0.0	0.0
H	-1.665517	-0.073566	-1.416046
N	-0.071135	-1.040208	-2.320288
O	1.122546	-1.29255	-2.308713
O	-0.921363	-1.544126	-3.049552
N	-0.375535	-1.215261	0.668225
O	-0.185951	-1.270772	1.895126
O	-0.693191	-2.188695	-0.050174
C	-0.39578	1.147001	0.784396
N	-0.692046	2.078902	1.438488
H	2.315732	0.0	0.0
