14

C	-0.327142	0.114507	-1.456842
C	0.0	0.0	0.0
Br	-2.227761	0.27025	-1.865487
H	1.096357	0.0	0.0
H	0.039698	-0.76132	-1.98135
N	0.357869	1.299494	-2.080209
O	0.386024	2.346796	-1.445808
O	0.811046	1.120294	-3.207683
N	-0.317438	-1.325204	0.498755
O	-0.269896	-2.262918	-0.313236
O	-0.446182	-1.46174	1.722925
C	-0.519785	1.023599	0.8689
N	-0.906783	1.870233	1.587319
H	2.346218	0.0	0.0
