15
Coordinates from ORCA-job run
  C   -0.83798937584068     -0.12258855386491      0.00139957121225
  C   0.56685352430361     -0.50641896889068     -0.50630509095988
  H   -1.54332118052164     -0.71601152631734     -0.58811486019456
  H   0.71110212751336     -1.58713163343974     -0.46650517572492
  N   -1.23338004976496      1.22594053440887     -0.01163592471019
  H   -1.61488481275345      1.52706920360084     -0.89385999651513
  H   -0.54722416242803      1.86344293135950      0.35951508661457
  N   -0.94903616877656     -0.72432800303170      1.41348168947337
  O   -0.55615121630019     -1.88628703224623      1.50440845987941
  O   -1.41825971774312     -0.04228492404891      2.30626044808514
  N   1.67235789773644      0.06379849270258      0.36407496304657
  O   1.34665610713231      0.86275069311441      1.23694473574652
  O   2.80061977129060     -0.33158214820623      0.11127082259145
  C   0.75509517980760     -0.01179648808852     -1.86349656965080
  N   0.84656207634473      0.38442742294804     -2.96543815889380
