15
Coordinates from ORCA-job run
  C   -0.75571480257483     -0.01757116383190     -0.17916144634340
  C   0.67223254733774     -0.42597713392364     -0.54103249428778
  H   -1.39619644062579     -0.33411807785174     -1.00751843487602
  H   0.76243925485736     -1.51580586645358     -0.53521442012828
  N   -0.89246041393837      1.36502997659644      0.04582549666062
  H   -1.85565847897690      1.66254675968297     -0.00935347641702
  H   -0.50985007282343      1.63627477593881      0.94147531230707
  N   -1.22743512103387     -0.92331128174507      0.98441130739305
  O   -1.85296168334572     -0.38912190936536      1.88760258191527
  O   -0.97887641698653     -2.11955379404980      0.87222627894862
  N   1.66061757170098      0.05267341915902      0.50660997566832
  O   1.20655896119860      0.22349868589647      1.63392540565623
  O   2.82605881364740      0.16506876904490      0.15984642893524
  C   1.04416095891569      0.10843361812650     -1.84354189180131
  N   1.29508532264768      0.51193322277598     -2.91710062363061
