15
Coordinates from ORCA-job run
  C   -0.58031165298008     -0.38977893403519      0.20384078521489
  C   0.71797066878237      0.41208450236017     -0.03576198492089
  H   -0.33751949362649     -1.42598318849099      0.43673909161142
  H   0.48134530290463      1.46836478077593     -0.17616150186757
  N   -1.53955098796847     -0.31719306527011     -0.83745870544861
  H   -1.61752808898847      0.59690404580828     -1.26020439217597
  H   -1.42358107243549     -1.04014720899200     -1.53078030146001
  N   -1.18501727714633      0.20136475884317      1.45557510998307
  O   -1.53386427560250      1.37559577501957      1.36159959740749
  O   -1.28326402108343     -0.52142983485620      2.43992121845836
  N   1.27123142249792     -0.08958698569243     -1.34243830911896
  O   1.67548395202212     -1.24694176732213     -1.35203237876250
  O   1.20156255540722      0.67929371900194     -2.29552157692952
  C   1.69396371008200      0.22303738359015      1.02694253699484
  N   2.46007925813500      0.07341601925981      1.90474081101395
