15
Coordinates from ORCA-job run
  C   -0.70129873625831     -0.31422001598840     -0.19618502852817
  C   0.75020885943271      0.06247922386769     -0.54625006380807
  H   -0.82592162607387     -1.39657619333706     -0.32423975870444
  H   0.80837571990476      0.07995161884543     -1.63826408635024
  N   -1.60662506116024      0.46608280680929     -0.94382795725532
  H   -2.32964954998184     -0.09034031137554     -1.35513556720319
  H   -2.00955361406560      1.21447325062664     -0.42264856587405
  N   -0.83833412107578     -0.08309438947053      1.31995847244621
  O   -1.75035923142353      0.59804860605420      1.74380067601757
  O   0.03237708510367     -0.57768027687677      2.04861705281771
  N   1.72309216922575     -1.01373107116487     -0.11256167040643
  O   2.75509402389381     -0.61085447706399      0.45768283223528
  O   1.40075819325679     -2.12066707051727     -0.40907729517225
  C   1.12417570190312      1.36944907940392     -0.01637282863691
  N   1.46966018731857      2.41767922018724      0.39450378842231
