15
Coordinates from ORCA-job run
  C   -0.74557732340752     -0.14845718395363     -0.15061935250806
  C   0.72182179241044     -0.45371041613444     -0.45080773033594
  H   -1.34229193271799     -0.71360275156613     -0.87276976614597
  H   0.94515518734545     -1.49613962383605     -0.20756115214439
  N   -1.04967251179282      1.22376393602440     -0.23368538070368
  H   -2.04174958944467      1.38448660902420     -0.32842562913357
  H   -0.70486706749655      1.73087437141686      0.57034712200771
  N   -1.10734041957888     -0.82161189686555      1.19500119171490
  O   -1.81893967440253     -0.18705849388588      1.95956879327591
  O   -0.69739288005493     -1.96662963499628      1.35596983431522
  N   1.64188971041529      0.36085188380709      0.44011040172893
  O   2.78496161192703      0.53475517537992      0.04689280987918
  O   1.16857996073774      0.72139693977893      1.51387342128496
  C   1.02543071707778     -0.17882984868855     -1.84824178726085
  N   1.21999241898222      0.00891093449509     -2.99065277597433
