18

C	-0.423139	-0.00307	-1.469494
C	0.0	0.0	0.0
Br	0.541277	-1.307857	-2.47452
H	1.094305	0.0	0.0
N	-1.923634	-0.244868	-1.680056
O	-2.641803	-0.203108	-0.686855
O	-2.303208	-0.414494	-2.830105
N	-0.197299	1.388195	-2.063848
O	-1.178216	2.130476	-2.065874
O	0.941189	1.677845	-2.390863
N	-0.42049	-1.26829	0.578462
H	0.327859	-1.612894	1.165981
H	-1.263039	-1.150173	1.125148
C	-0.427573	1.250817	0.766008
H	-0.045524	1.144619	1.78379
H	0.031023	2.150121	0.349629
H	-1.51071	1.376904	0.796624
Br	3.524903	0.0	0.0
