18

C	-0.453149	0.001963	-1.458589
C	0.0	0.0	0.0
Br	0.399057	-1.407593	-2.445763
H	1.097154	0.0	0.0
N	-1.97289	-0.130651	-1.533173
O	-2.564732	0.88211	-1.166402
O	-2.480919	-1.180375	-1.884011
N	-0.148013	1.283999	-2.223389
O	-0.760715	1.438358	-3.274285
O	0.701551	2.026822	-1.754906
N	-0.527034	-1.250088	0.573771
H	0.142452	-1.989483	0.38621
H	-0.543789	-1.135574	1.580711
C	-0.497956	1.16921	0.838762
H	-0.300672	2.130468	0.371387
H	0.061138	1.14252	1.7782
H	-1.565177	1.078586	1.050354
Br	3.53072	0.0	0.0
