18

C	-0.412248	-0.011581	-1.483661
C	0.0	0.0	0.0
Br	-2.301488	-0.356472	-1.759443
H	1.094532	0.0	0.0
N	-0.030273	1.318711	-2.124127
O	-0.899973	2.161962	-2.296833
O	1.170926	1.4379	-2.324516
N	0.30923	-1.070082	-2.319724
O	0.794111	-2.018469	-1.720818
O	0.294099	-0.897588	-3.53157
N	-0.436869	-1.149455	0.761193
H	-1.432352	-1.305451	0.654195
H	0.067369	-1.969105	0.451375
C	-0.476343	1.28288	0.668286
H	-0.180744	1.212026	1.714979
H	-0.001564	2.167172	0.241579
H	-1.563506	1.398799	0.612862
Br	3.526733	0.0	0.0
