15

C	-0.174314	-0.161692	-1.505897
C	0.0	0.0	0.0
Cl	-1.864684	-0.782419	-1.940728
H	1.102377	0.0	0.0
H	-0.158334	0.812107	-1.993725
N	0.823392	-1.092817	-1.934614
H	0.9933	-0.99155	-2.926609
H	1.682496	-0.857094	-1.406292
N	-0.440035	-1.065158	0.830269
H	0.335383	-1.698362	0.961538
H	-1.22951	-1.558353	0.4356
N	-0.557257	1.320597	0.426468
O	-1.274586	1.386429	1.421324
O	-0.235105	2.298242	-0.255502
F	2.617039	0.0	0.0
