15

C	-0.649091	-0.001647	-1.384215
C	0.0	0.0	0.0
Cl	-0.339951	-1.627533	-2.170994
H	1.089298	0.0	0.0
H	-1.743808	0.004952	-1.273465
N	-0.145736	1.009485	-2.26614
H	0.029376	1.85243	-1.737314
H	-0.848079	1.201714	-2.975567
N	-0.37077	-1.127762	0.819477
H	-1.05568	-1.71672	0.365572
H	0.474896	-1.661907	0.962262
N	-0.442679	1.234257	0.745682
O	-1.056496	2.134447	0.139248
O	-0.12799	1.308929	1.927744
F	2.53703	0.0	0.0
