15

C	-0.256399	0.261608	-1.503539
C	0.0	0.0	0.0
Cl	-0.859748	-1.300077	-2.320644
H	1.098419	0.0	0.0
H	-1.090277	0.943072	-1.664427
N	0.931082	0.722481	-2.119753
H	0.865996	1.704551	-2.338568
H	1.749175	0.525767	-1.518941
N	-0.670737	-1.12455	0.617746
H	-0.364058	-1.948478	0.114741
H	-0.295019	-1.19727	1.556638
N	-0.380084	1.230419	0.745576
O	-0.362239	2.313795	0.153857
O	-0.615276	1.11219	1.949117
F	2.646532	0.0	0.0
