15

C	-0.458475	-0.145671	-1.436153
C	0.0	0.0	0.0
Cl	0.050063	1.32478	-2.417441
H	1.095105	0.0	0.0
H	0.16745	-0.938093	-1.84677
N	-1.836941	-0.478372	-1.598858
H	-2.04956	-0.647063	-2.573433
H	-2.39294	0.296376	-1.259422
N	-0.38967	-1.144115	0.792599
H	0.442146	-1.69732	0.951896
H	-1.10811	-1.684846	0.330357
N	-0.584289	1.207905	0.662263
O	-0.023702	1.624075	1.668107
O	-1.630407	1.698129	0.208161
F	2.573962	0.0	0.0
