15

C	-0.478321	-0.000141	-1.423501
C	0.0	0.0	0.0
Cl	-2.432912	0.012691	-1.383029
H	1.093953	0.0	0.0
H	-0.287416	0.938543	-1.930295
N	-0.004729	-1.103683	-2.130674
H	-0.425928	-1.201096	-3.040534
H	-0.087279	-1.954849	-1.590647
N	-0.396412	-1.114997	0.770388
H	0.366309	-1.744827	0.944171
H	-1.278045	-1.545118	0.542749
N	-0.425132	1.300301	0.630307
O	-0.850108	1.308975	1.779461
O	-0.258977	2.313752	-0.052087
F	2.534743	0.0	0.0
