15

C	-0.17729	0.386112	-1.492506
C	0.0	0.0	0.0
Cl	-1.505577	-0.909247	-2.342916
H	1.0911	0.0	0.0
H	-0.792337	1.259745	-1.691403
N	1.037833	0.352411	-2.094602
H	1.860277	0.175209	-1.469336
H	1.17056	0.919866	-2.912047
N	-0.482837	-1.227002	0.514748
H	-1.243921	-1.596107	-0.037413
H	0.280118	-1.885821	0.527447
N	-0.476109	1.18178	0.805874
O	-0.154547	2.291476	0.368375
O	-1.09811	1.005633	1.84663
F	2.666868	0.0	0.0
