15

C	-0.615219	-0.171529	-1.377692
C	0.0	0.0	0.0
Cl	0.062959	1.019026	-2.597652
H	1.090375	0.0	0.0
H	-0.264969	-1.139106	-1.732063
N	-2.046773	-0.154512	-1.341679
H	-2.427412	-0.339631	-2.26102
H	-2.381252	0.753467	-1.040221
N	-0.420483	-1.109827	0.796183
H	-1.369385	-0.995655	1.124431
H	0.218262	-1.192849	1.575416
N	-0.492231	1.322216	0.563325
O	0.073017	2.350676	0.202789
O	-1.458656	1.30728	1.343272
F	2.572328	0.0	0.0
