15

C	-0.246701	0.316442	-1.489957
C	0.0	0.0	0.0
Cl	-1.505787	-0.947941	-2.232433
H	1.091019	0.0	0.0
H	-0.840607	1.215544	-1.63958
N	0.971893	0.303253	-2.14421
H	1.076224	0.954369	-2.899454
H	1.794346	0.177779	-1.522467
N	-0.481196	-1.228078	0.502049
H	-1.489844	-1.25217	0.580136
H	-0.060223	-1.406073	1.402593
N	-0.427356	1.210139	0.808937
O	-0.273827	2.327185	0.313774
O	-0.835856	1.017726	1.955947
F	2.646824	0.0	0.0
