15

C	-0.52848	0.037482	-1.433958
C	0.0	0.0	0.0
Cl	-0.122584	1.638876	-2.17304
H	1.091449	0.0	0.0
H	0.071579	-0.691972	-1.981859
N	-1.927291	-0.238571	-1.63824
H	-2.092001	-1.218014	-1.805879
H	-2.462263	0.088992	-0.8439
N	-0.374313	-1.207966	0.69172
H	0.427234	-1.82501	0.66734
H	-1.195824	-1.656674	0.309877
N	-0.592736	1.149942	0.75884
O	0.132705	2.056928	1.146943
O	-1.818883	1.119195	0.946759
F	2.58995	0.0	0.0
