15

C	-0.571872	0.174165	-1.373268
C	0.0	0.0	0.0
Cl	-2.510429	0.385459	-1.171185
H	1.095278	0.0	0.0
H	-0.322933	1.129119	-1.822034
N	-0.272759	-0.922888	-2.169175
H	-0.399965	-1.772922	-1.634247
H	-0.776099	-0.933393	-3.042213
N	-0.396043	-1.248215	0.577092
H	0.343866	-1.542134	1.202024
H	-1.257288	-1.157264	1.102374
N	-0.363573	1.184943	0.834431
O	-0.218484	2.295597	0.326598
O	-0.728607	0.997341	1.997346
F	2.524471	0.0	0.0
