17
Coordinates from ORCA-job run
  C   -0.81328299619732     -0.48788670695467     -0.25919300412921
  C   0.67467467896911     -0.16150260747567     -0.38106096026170
  F   -1.10056250101325     -1.45778613935862     -1.21217363756824
  H   1.18395264145376     -1.12694444592474     -0.49435139142157
  N   -1.02464588528911     -1.23040875732737      1.06722616705895
  O   -1.72632100874329     -0.70188125849089      1.92560542718566
  O   -0.43251518935321     -2.29681047679966      1.17746526943946
  N   -1.66001866883086      0.60376575538529     -0.36455593945634
  H   -2.29160827801117      0.71915696807083      0.41126565621595
  H   -1.17050438419103      1.43827899442106     -0.65111431829432
  C   1.20016634322211      0.55224287631358      0.85413631585717
  H   1.15642023229973     -0.08816679721278      1.73643393031863
  H   0.63241222031708      1.46443431010860      1.04656835804194
  H   2.24712497970875      0.82731065890999      0.70329808316706
  N   0.80191677236943      0.71509240013129     -1.54239239165276
  H   0.56033653523685      0.20668133987967     -2.38578477114375
  H   1.76145450805243      1.02542388632411     -1.63237279335692
