17
Coordinates from ORCA-job run
  C   -0.67668585407453     -0.42219576414048      0.39251390590189
  C   0.38389310817905      0.43161080066370     -0.29944168204786
  F   -0.16928947307340     -0.84946117389613      1.58110656939666
  H   -0.08014612371202      0.79878252230397     -1.21976863388082
  N   -1.85735414316384      0.49302146904282      0.69445909089791
  O   -2.12468981130773      0.74289876539417      1.85582071747675
  O   -2.44623266789333      0.89218219849157     -0.30667763108362
  N   -1.22618529628160     -1.54666898270045     -0.28337518615993
  H   -1.66223389917640     -1.26182412665028     -1.15012128502191
  H   -0.51318038706862     -2.24227960107341     -0.45572148827819
  C   1.61862349395728     -0.40195646969903     -0.63833439110778
  H   1.39588602937824     -1.21550016782407     -1.33374834664823
  H   2.05543734150001     -0.82508884138779      0.26926086134061
  H   2.36859329654192      0.23555362603774     -1.11154806146875
  N   0.62466928360587      1.58583180386667      0.55422872132459
  H   1.17698989659677      2.27852504281527      0.06581075365367
  H   1.12990520599232      1.30556889875574      1.38653608570502
