17
Coordinates from ORCA-job run
  C   -0.76772509626544     -0.59712911068101     -0.01870310275876
  C   0.56228597889387     -0.03302973439514     -0.52365062122219
  F   -0.64428038141690     -1.95851537926108      0.09589142393392
  H   0.79865107070477     -0.70376169884769     -1.35839329352374
  N   -0.99943017635154     -0.11054667392226      1.43138955409484
  O   -1.21682295673103     -0.92969755750354      2.31264958247659
  O   -0.95215343769728      1.10878219061338      1.56680326223325
  N   -1.86871354689076     -0.22116350264373     -0.78714299277048
  H   -2.53552831118367     -0.96453272150270     -0.92282829130122
  H   -1.60103387676285      0.27958965082414     -1.62136430067974
  C   1.66778417199590     -0.15488858323263      0.52253629321367
  H   1.69635811897791     -1.15711450334537      0.95742340697492
  H   2.63601980904146      0.03902157970686      0.05549609806736
  H   1.52595414576016      0.57305324266645      1.32375050600741
  N   0.35251601475391      1.28982896893124     -1.09537015272722
  H   0.16182105768440      1.95322820639633     -0.35348612180616
  H   1.18629741548711      1.58587562619674     -1.58700125021248
