17
Coordinates from ORCA-job run
  C   -0.80423192401933     -0.39409063443083     -0.02720351148345
  C   0.66738489568376     -0.19845494582723     -0.36138288978750
  F   -1.32604735054743     -1.28603966783308     -0.98477490205237
  H   1.11191761595127     -1.19875435979678     -0.40274390285364
  N   -1.01480303892537     -1.18091496265991      1.26059712653159
  O   -2.10690440708845     -1.05504814198051      1.80385496936338
  O   -0.11346825938940     -1.93364199882987      1.61762104598719
  N   -1.49494312980979      0.80442277454820      0.06141267288396
  H   -2.48697989122004      0.67611311200986      0.20051658039704
  H   -1.27399874318482      1.37249172541716     -0.74689387515230
  C   1.38825573893944      0.64531183868332      0.67575133290666
  H   1.34251500251265      0.18352414634138      1.66162177177167
  H   0.94707671181747      1.64088447379403      0.72717524241980
  H   2.44318705161280      0.73874195728553      0.40326426707903
  N   0.67551612637031      0.49315710466045     -1.65462000626360
  H   1.60305181399920      0.85453625356334     -1.83869051156526
  H   0.44447178729776     -0.16023867494507     -2.39350541018221
