17
Coordinates from ORCA-job run
  C   -0.65877448701938     -0.39715636312953      0.32378951479517
  C   0.49248974431109      0.39196618569948     -0.31996912900116
  F   -0.27844533139910     -0.77805108339842      1.57146742477860
  H   0.14407904019027      0.68369475922038     -1.31574929061555
  N   -1.81906466076200      0.57833305840297      0.47994337210138
  O   -2.12052397284832      0.96441095837733      1.59868226246297
  O   -2.33066685763814      0.92606835682056     -0.58223792427858
  N   -1.19860498998743     -1.53473606501432     -0.34082982914521
  H   -0.51419411240991     -2.27847083186732     -0.36948299192343
  H   -1.49485381507861     -1.29324387628987     -1.27720228683464
  C   1.72806834384379     -0.48991733408956     -0.44521710354381
  H   1.54038214410243     -1.38376297284819     -1.04365684454568
  H   2.51850721943417      0.08697215136216     -0.92461915124886
  H   2.08065120407948     -0.79783596659566      0.54161246521335
  N   0.83407876763250      1.60713997687622      0.40138518142470
  H   0.96696988724331      1.40649771329929      1.38561895543202
  H   0.10890187630585      2.30809133317448      0.31546537492874
