17
Coordinates from ORCA-job run
  C   -0.67302607842276     -0.22742933467281      0.25365182633098
  C   0.56506840550100      0.38954083620684     -0.39744714899428
  F   -0.45991110456923     -0.28311900846636      1.63281800101907
  H   0.28767003568985      0.63053802289249     -1.42549578144132
  N   -1.89974280373241      0.68047383059409      0.12981592205382
  O   -1.81241696145397      1.70360141222425     -0.54182492317877
  O   -2.90145218937448      0.28866272346718      0.71850686394459
  N   -1.07864549138487     -1.45298959677685     -0.28943397221407
  H   -1.90987043696661     -1.79246257249230      0.18039984934779
  H   -0.34259419051157     -2.14237491064317     -0.23914649246166
  C   1.70748933017442     -0.62268567807485     -0.40493378576509
  H   2.60467983946195     -0.11237922363529     -0.75387181471594
  H   1.51405803404050     -1.46447069093804     -1.07260703263846
  H   1.90143866054291     -1.00028787616999      0.60286672602142
  N   1.01735399407624      1.61234123818926      0.24308386095250
  H   1.15495713294392      1.45211619562375      1.23358718542148
  H   0.32394382398514      2.33992463267181      0.13103071631794
