17
Coordinates from ORCA-job run
  C   -0.61952556674872     -0.32675393580283      0.43855438095363
  C   0.45971368211045      0.28856291835826     -0.43930624706628
  F   -0.26393204655301     -0.23771210864189      1.74799876952148
  H   0.09772827741104      0.21458269825945     -1.46943858268896
  N   -1.87674709242115      0.55966732828115      0.28632200224778
  O   -2.36663701284171      0.52878490054752     -0.83984056218849
  O   -2.29783191341184      1.17572139022568      1.25146126425560
  N   -0.90179496616477     -1.67939463863021      0.13899763907279
  H   -1.29071884583070     -1.75437528301916     -0.79222126947280
  H   -1.55767743113215     -2.05984304067567      0.81168148584119
  C   1.77072450336277     -0.47674416794004     -0.28642370386253
  H   1.65775193754534     -1.52910580453788     -0.54912497292394
  H   2.12148638110747     -0.41781825192660      0.74654454212759
  H   2.53045458229135     -0.03004813127022     -0.93233525532591
  N   0.51574546708251      1.70508177662328     -0.10427090920098
  H   0.97204909361496      1.83072929035479      0.79187891629432
  H   1.05021095057818      2.20766505979437     -0.80047749758451
