17
Coordinates from ORCA-job run
  C   -0.77479674732518     -0.34679669904642     -0.05600189278430
  C   0.71758391902915     -0.29255645642437     -0.37884883631825
  F   -1.37329987756680     -1.20219612730965     -0.99609443004574
  H   1.05184587241706     -1.33165247111499     -0.40893372037638
  N   -1.04681976074808     -1.08222688873566      1.25419267008003
  O   -0.28208873527560     -1.99809659869979      1.53701881044466
  O   -2.04778631642634     -0.75689207835787      1.88487442221228
  N   -1.38739141876607      0.90501845314548      0.01539172909467
  H   -2.35425976692073      0.83418043362041      0.30314462120926
  H   -1.30754532077769      1.38806263496431     -0.86779706077369
  C   1.49985918035245      0.46644869418277      0.67874657476657
  H   2.55287533424041      0.47750390958554      0.39422402911690
  H   1.14216802669904      1.49522774211594      0.75851696211430
  H   1.41153185369814     -0.00471561817310      1.65789729516969
  N   0.97013718555801      0.29015468171717     -1.68803190552867
  H   0.83499052225855      1.29332474691420     -1.68545353559433
  H   0.39299604955367     -0.13378835838397     -2.40284573278702
