17
Coordinates from ORCA-job run
  C   -0.68342348743746     -0.52861825395807     -0.06204854117447
  C   0.68154323059660      0.02525552070299     -0.50643752588530
  F   -0.55063004791266     -1.89649073071582      0.07628758246987
  H   0.91810961506248     -0.58670081893774     -1.38776155118192
  N   -1.06532752610347     -0.02746905027202      1.33056376711228
  O   -1.49962934138623     -0.84383361443741      2.13325331601904
  O   -0.92119486096841      1.17546826739237      1.52619968513928
  N   -1.74044703413401     -0.16786376963846     -0.91846011158239
  H   -2.60165323279278     -0.62845491200955     -0.64584781555242
  H   -1.51726599416749     -0.42249939784443     -1.87300898317596
  C   1.74381428547453     -0.23438396122212      0.55301358463894
  H   2.72341469668247     -0.01029222607586      0.13109380088179
  H   1.59228120720064      0.42060623122161      1.41462212462598
  H   1.72895454875983     -1.27053329485119      0.89294007919859
  N   0.71313196235222      1.41496899408490     -0.91424880183480
  H   0.46232333131441      1.99287807519424     -0.12126993744552
  H   0.01699864745934      1.58896294136655     -1.62889067225298
