17
Coordinates from ORCA-job run
  C   -0.79903944591724     -0.43634515882483     -0.02059635129147
  C   0.67792591142564     -0.17295618009096     -0.32672172186476
  F   -1.27178921876332     -1.22395124698370     -1.06342484290537
  H   1.16848785839582     -1.15773413580100     -0.33312343213648
  N   -1.00982790720939     -1.31138044084887      1.21831938434775
  O   -1.84318449671030     -2.20553932862528      1.13626617308624
  O   -0.35595193315192     -1.02452373681512      2.21417954923422
  N   -1.53239843894727      0.73948824989166      0.16273373998515
  H   -2.52825684450865      0.55476897172341      0.17967256857009
  H   -1.30055551444870      1.37319011474473     -0.59434572781047
  C   1.38938945564906      0.75415334488558      0.64537420139325
  H   1.38566990541248      0.36056930132762      1.65683982445233
  H   0.90898734847234      1.73329427762988      0.64799349753659
  H   2.42766692161735      0.87493005165406      0.32211333118189
  N   0.65710846765332      0.46798958484818     -1.64500892686150
  H   1.55839971309398      0.88845436134394     -1.83154276170011
  H   0.46736821793682     -0.21340803005930     -2.36872850521732
