17
Coordinates from ORCA-job run
  C   -0.77326981039838     -0.66292108320217     -0.02271503908853
  C   0.54858427603676     -0.01833121005569     -0.47948518183812
  F   -0.57054855514460     -2.00622663571911      0.06975090853098
  H   0.78813468943307     -0.56525391273524     -1.40166033600448
  N   -1.09330774337803     -0.16193109919857      1.38095167421596
  O   -0.64168014244493     -0.80938651747738      2.31866830206147
  O   -1.73104749128054      0.88322924297246      1.45703080517494
  N   -1.92216316830326     -0.42573208453176     -0.81598893067318
  H   -2.09067480200594      0.57236345321087     -0.84224239091843
  H   -1.75452238304273     -0.76655621267900     -1.75508616789675
  C   1.68163613425131     -0.22221578958544      0.51730395734618
  H   1.52431611543643      0.38927353654052      1.40972609873608
  H   2.62768496282561      0.07609753925576      0.06012691598817
  H   1.75411804428045     -1.26204768139732      0.83530776670880
  N   0.29806614027763      1.38701963448749     -0.78101177989101
  H   0.86406576969395      1.99333615108737     -0.20404074349395
  H   0.49160796376319      1.59928266902720     -1.74863585895812
