17
Coordinates from ORCA-job run
  C   -0.70996410538026     -0.69872482540006     -0.13404754968396
  C   0.59088152597272     -0.00783482411580     -0.55187470720418
  F   -0.49485380266981     -2.04050900670058     -0.02975951372308
  H   0.87956160157667     -0.55893590511256     -1.45313840475938
  N   -1.02647221388270     -0.25416202600436      1.32296654463292
  O   -1.30346593502779      0.93959070323687      1.43837595894905
  O   -0.95830687318706     -1.06872336337702      2.23280192229569
  N   -1.75095682087376     -0.42528641334733     -1.01703930016818
  H   -1.69113317256366      0.53479198355029     -1.33102429732659
  H   -2.66549389190476     -0.67294759436487     -0.66751512131607
  C   1.67635208360080     -0.17163808907174      0.50820694207171
  H   1.77577852831956     -1.21183066095647      0.82442573557708
  H   2.63565109219261      0.15968060171232      0.10499279150269
  H   1.45366662489510      0.43808114969582      1.38822185621532
  N   0.30673585494082      1.36381040503824     -0.95936426822070
  H   1.06299884852741      1.71575634929828     -1.53197510477034
  H   0.21902065546411      1.95788151591897     -0.14325348407198
