17
Coordinates from ORCA-job run
  C   -0.69989216638990     -0.70750593876877     -0.13956669765873
  C   0.60011686012358     -0.00600659139583     -0.54159132943277
  F   -0.47227935811465     -2.04576895133954     -0.01909822543101
  H   0.91017849641907     -0.56167851525656     -1.43288330168102
  N   -1.04589056655347     -0.25296268661538      1.30786881293144
  O   -1.33857425528531      0.93848428152297      1.40705810185701
  O   -0.98327693387093     -1.05802986701722      2.22648642642039
  N   -1.72853662470317     -0.45364869295272     -1.04261257280883
  H   -1.67456952766331      0.50429067686000     -1.36396039681546
  H   -2.64598818107269     -0.70991790566072     -0.70729689490083
  C   1.66948904420998     -0.14861635720445      0.53776571157865
  H   2.63120113904743      0.19186736133831      0.14813125813721
  H   1.42491177630397      0.46402370149923      1.40986889707957
  H   1.77653727018749     -1.18545260568740      0.86247610836390
  N   0.30767799846646      1.35875821541265     -0.96594848266422
  H   1.07012173294728      1.71442577002572     -1.52797139118505
  H   0.19877329594818      1.95873810523970     -0.15672602379024
