17
Coordinates from ORCA-job run
  C   -0.74846266106307     -0.33482820760099      0.14026163439041
  C   0.49576033300036      0.49511670986922     -0.12374177742032
  F   -0.46012616974317     -1.22123493166030      1.16419527221838
  H   0.18908567289596      1.28927091289156     -0.80584952382602
  N   -1.84300455141596      0.58274491667658      0.68709209970755
  O   -2.02731639904588      1.62015998127588      0.06662340736910
  O   -2.47464899849185      0.18650237341404      1.65767873374227
  N   -1.29395741444388     -0.96750429518291     -0.99185738565543
  H   -2.11929064136953     -1.49963171861141     -0.74011433115146
  H   -0.61851157403585     -1.58816538180893     -1.41665882077805
  C   1.59848062537537     -0.34639918674266     -0.76591460411196
  H   1.34157439706815     -0.67182569959192     -1.77771446277753
  H   1.82152277333387     -1.22374917971705     -0.15310999637259
  H   2.50790620694719      0.25326391449780     -0.84208980330023
  N   0.84837085380232      1.11041828804008      1.14803760401377
  H   1.29604870477738      0.43434751932003      1.75453620755459
  H   1.48656884240859      1.88051398493100      0.99962574639750
