17
Coordinates from ORCA-job run
  C   -0.62920449005639     -0.64934002959481     -0.16836771231842
  C   0.71550402944466      0.00948010661454     -0.51685204709432
  F   -0.47918152463610     -1.99726782463607     -0.11938688859815
  H   1.04525059024021     -0.57497560843453     -1.38297168828280
  N   -1.00480491406476     -0.22586803172654      1.26975130623981
  O   -1.34901065477772      0.95364828018608      1.37079802837960
  O   -0.89669993063068     -1.02829135735233      2.18541698678591
  N   -1.65601570392009     -0.34066406552418     -1.08891882176254
  H   -1.92372563540522      0.63002649195780     -1.00110690585947
  H   -2.46386373770921     -0.92972288681026     -0.92230365097460
  C   1.72135542842881     -0.15550628818669      0.61275319130383
  H   1.47120566562359      0.49591033367463      1.45496400540842
  H   1.75713354359035     -1.18519227500314      0.97190965132997
  H   2.70749583735524      0.13307869260419      0.24953119956338
  N   0.64355907791342      1.39589717715243     -0.92871571681886
  H   0.23059553159570      1.96901313863002     -0.20326127766424
  H   0.11040688700820      1.49777414644886     -1.78223965963750
