17
Coordinates from ORCA-job run
  C   -0.69003653001712     -0.65934854195494     -0.05373106544875
  C   0.65041088297786     -0.02957655209331     -0.49771826159822
  F   -0.49525965365315     -1.99997793232766      0.05682101433636
  H   0.92168867879718     -0.62222980917812     -1.38148282752023
  N   -1.02225659315201     -0.13477745504897      1.33369480301611
  O   -0.82602273689863     -0.86148451019757      2.29482445742043
  O   -1.40880922701160      1.03454405875743      1.36709855101907
  N   -1.84656866687693     -0.43598150418457     -0.84840749363314
  H   -2.14710136999467      0.52613103250539     -0.77907033939099
  H   -1.66629914211551     -0.68393836711174     -1.81312938649102
  C   1.72694471022168     -0.20673755358735      0.56363454899577
  H   2.69079803784875      0.07869613892586      0.14231665935083
  H   1.77604464867469     -1.23639321071794      0.91852353002424
  H   1.53245964070774      0.44288876580661      1.42224858774370
  N   0.58574957075237      1.35973719748061     -0.90453230254942
  H   -0.04801673285511      1.48854087445567     -1.68257641301516
  H   0.26927448259446      1.94090736847060     -0.13751406225961
