17
Coordinates from ORCA-job run
  C   -0.78164783192669     -0.33751355958211     -0.02075245256101
  C   0.68922300579628     -0.29018568630759     -0.43153846675390
  F   -1.44494814777512     -1.16581502752017     -0.94085776528714
  H   1.00729562945310     -1.33148727171373     -0.51452992991048
  N   -0.97627502718570     -1.09873533358069      1.28788019057296
  O   -1.90211406885654     -0.75133616103611      2.01445160678950
  O   -0.23008124220233     -2.05321295252156      1.47727116879653
  N   -1.37475294514246      0.91884880426584      0.11394206026349
  H   -2.31604687952544      0.85357797000106      0.47761492932736
  H   -1.36129639953805      1.41145792184787     -0.76747297917529
  C   1.54197313692187      0.42626655594485      0.60092201258171
  H   2.57603660123746      0.43763345869521      0.25389881219473
  H   1.50811988812850     -0.07604501490412      1.56807986886217
  H   1.20024705541626      1.45474635665508      0.73532682984467
  N   0.87082557898940      0.33171149729225     -1.73449139645623
  H   0.25040475544377     -0.06678441984502     -2.42742790229890
  H   0.74203689076567      1.33487286230895     -1.69231658679017
