17
Coordinates from ORCA-job run
  C   -0.65007569096456     -0.36595780845488      0.21816944036383
  C   0.62712770587742      0.30562028161118     -0.29598874968322
  F   -0.49343233702700     -0.75524487830300      1.51016443495105
  H   0.44668050775941      0.56036882206699     -1.34520384924280
  N   -1.73634710840064      0.73819096386085      0.26042454625948
  O   -2.06764726533171      1.15141600758382     -0.85008015094741
  O   -2.15953809544521      1.13227092928633      1.33822336414050
  N   -1.06681572924351     -1.47483360386446     -0.54598096158991
  H   -1.88043700254466     -1.91772899100818     -0.13553580099963
  H   -1.26692573111745     -1.19783666122635     -1.49764426506310
  C   1.79190329205578     -0.66908326456034     -0.19076453471128
  H   2.67771253102010     -0.20115398610800     -0.62046399815695
  H   1.57895876737019     -1.60390547010075     -0.70839476798817
  H   1.99912732312659     -0.89672231757613      0.85723836192517
  N   0.94988569352935      1.53611129115800      0.40408636285311
  H   0.28981118767382      2.27451002405126      0.19624056775700
  H   0.95901195166206      1.38297866158363      1.40551000013234
