17
Coordinates from ORCA-job run
  C   -0.60198453999207     -0.44649935606859      0.48824966225888
  C   0.36396150646921      0.36194757153345     -0.38329571124674
  F   0.01510715659395     -0.86576534923917      1.61381977311820
  H   -0.14070029834792      0.49885480627684     -1.34932279434527
  N   -1.72348262283766      0.50123171320087      0.91057094395849
  O   -2.29584268060470      1.03942634818384     -0.03666909130588
  O   -1.98189359158599      0.63213423606631      2.09331571524779
  N   -1.25059211286591     -1.57194627947939     -0.10221883131343
  H   -0.66168161318068     -2.38990853271675     -0.03176765049078
  H   -1.50821380640599     -1.39474405456860     -1.06310233938555
  C   1.64952215076326     -0.42446902271103     -0.58676359313220
  H   1.45450744594179     -1.42420779265184     -0.97833655943873
  H   2.29224788439848      0.09250663481318     -1.30305917435196
  H   2.18198858724192     -0.51605928880448      0.36118286701120
  N   0.64204535966993      1.62386377841836      0.28829837070634
  H   1.57718297697846      1.94596303446686      0.08002224192132
  H   -0.01217180223610      2.33867155328014     -0.00292382921169
