17
Coordinates from ORCA-job run
  C   -0.82462353245045     -0.44704848843328     -0.17945601741747
  C   0.65406191702880     -0.25366077044873     -0.48836812757493
  F   -1.39567403051163     -1.30313390575952     -1.06043518963604
  H   1.08196418652546     -1.26003404110333     -0.53041949533340
  N   -0.89628814428245     -1.19374426403907      1.18747458038932
  O   -1.30129042349976     -0.55771957005986      2.15835863514518
  O   -0.49491473478245     -2.35048383822119      1.19453263650974
  N   -1.55980330516311      0.75916563508211     -0.17321758910080
  H   -1.44235757756036      1.24066279057754      0.70886197386414
  H   -2.54388777234196      0.55374605419793     -0.29879731144018
  C   1.34971979946242      0.55495176434705      0.60811603912448
  H   1.30230991483880      0.07783998914735      1.59011315726100
  H   0.91899913522136      1.55749503885316      0.68199824580435
  H   2.40443886927308      0.67058593945500      0.34904743920579
  N   0.72654190874621      0.32014995346863     -1.82206555933336
  H   1.69299934527538      0.38202278024677     -2.11636579753297
  H   0.32780444422066      1.25120493268945     -1.81037761993485
