17
Coordinates from ORCA-job run
  C   -0.78346746835864     -0.43394008085895     -0.01393221695908
  C   0.67679857974792     -0.17637981303716     -0.35522145177249
  F   -1.26063369284813     -1.37837955034689     -0.94373769592572
  H   1.17059103281091     -1.15413111695359     -0.36555831620900
  N   -0.95679010508319     -1.19070614503433      1.29717780368030
  O   -0.01705689180363     -1.88035408660992      1.68165962186425
  O   -2.05737355142629     -1.10862204795362      1.83157202158459
  N   -1.53246170816123      0.73161233860424      0.03942013515859
  H   -2.51720856600396      0.55715178177794      0.18093945488160
  H   -1.33960563956347      1.28399154438556     -0.78687275826730
  C   1.35438082784205      0.73468402925697      0.65373817257456
  H   1.33419569089343      0.30107286606493      1.65312882231348
  H   2.40259624087803      0.87445095944470      0.37514525095043
  H   0.86235307596069      1.70721864247352      0.67626630034141
  N   0.65113493967401      0.47318828874559     -1.67005758905596
  H   1.55995682697973      0.87365229744456     -1.86644887614999
  H   0.45359040846177     -0.21450990740356     -2.38721867900969
