17
Coordinates from ORCA-job run
  C   -0.71427726961070     -0.33735784960051      0.24767826550184
  C   0.51195929264299      0.41490977437694     -0.25874256841060
  F   -0.37985655121402     -1.07427772858700      1.35985381242524
  H   0.18872760590815      0.95693847135416     -1.15472921428504
  N   -1.77915355687139      0.64514245026230      0.73858583756060
  O   -2.65167359141657      0.16749091430489      1.45343599953715
  O   -1.72596919106544      1.80215300965082      0.33528056232545
  N   -1.37356918190904     -1.09908170512449     -0.73888989258153
  H   -2.15474853868388     -1.59582533063524     -0.32538132051439
  H   -0.74341474250047     -1.76311376071201     -1.16647746376947
  C   1.61182895591777     -0.57423014396584     -0.62613546834787
  H   1.90849592264508     -1.14763322035316      0.25332278044740
  H   2.48119565640311     -0.02569192716020     -0.99619945180511
  H   1.31244294136953     -1.26194498282117     -1.41909710925099
  N   0.98161651226293      1.28871678802320      0.80803202349474
  H   0.54117573307133      2.19559304279638      0.74046156511498
  H   1.98322000305063      1.40921219819093      0.75100164255760
