17
Coordinates from ORCA-job run
  C   -0.69890371467129     -0.64871352706447     -0.06911183122136
  C   0.65656921797844     -0.03455177980286     -0.48904359699298
  F   -0.52469507861057     -1.99297200367643      0.03194701431085
  H   0.93212788119177     -0.62396375770818     -1.37362327519050
  N   -1.04265785567457     -0.13137621338640      1.31788731659890
  O   -0.86930963273666     -0.86870120271497      2.27546293561177
  O   -1.41381122165211      1.04284366086030      1.35594874478495
  N   -1.84087582271905     -0.40232030136895     -0.87781158815971
  H   -2.12782923380058      0.56379976988290     -0.80716212980847
  H   -1.65168855569280     -0.64774603828666     -1.84146214386214
  C   1.71547080215967     -0.23591805157909      0.58571030230626
  H   1.74464578256960     -1.26904539020568      0.93258129728497
  H   1.51858473251281      0.40961001947133      1.44685015459747
  H   2.68917873955811      0.03855626661924      0.18003919273861
  N   0.61749769767262      1.35895247278161     -0.88485287056332
  H   -0.00543143637527      1.50364477199226     -1.66888039029729
  H   0.30012769828989      1.93790130418605     -0.11647913213799
