17
Coordinates from ORCA-job run
  C   -0.76326572643108     -0.37678385884188     -0.03846530789130
  C   0.72304244922431     -0.28039063331728     -0.37916614001215
  F   -1.33885864306640     -1.28940530704113     -0.93691938361767
  H   1.09392395141034     -1.30742103375566     -0.38286544643321
  N   -0.98856979312470     -1.06764830527541      1.30359595473018
  O   -0.21137267987374     -1.97338457568900      1.58523847391182
  O   -1.96338535365781     -0.72223367949632      1.96408251831658
  N   -1.42029115542160      0.85472608114230     -0.01048325268165
  H   -2.37457434845288      0.76422556235350      0.31158990287024
  H   -1.38588622359477      1.29274599000314     -0.91971317261039
  C   1.48654092420158      0.53646276350484      0.64870715558712
  H   1.09284084400177      1.55373541843292      0.70106273512915
  H   2.53616416357479      0.57627258920485      0.35449498301868
  H   1.42359531005147      0.09165539158891      1.64221229920820
  N   0.94269641613406      0.27296207213460     -1.70657239106085
  H   0.38013524278478     -0.19570570306393     -2.40487794766021
  H   0.76526462223989      1.26918722811555     -1.73192098080455
