17
Coordinates from ORCA-job run
  C   -0.77718905310195     -0.51522825708704     -0.20770983469690
  C   0.70275244952986     -0.23141598240729     -0.42863348044022
  F   -1.22363428521943     -1.45737231852352     -1.07238026780383
  H   1.20138231150180     -1.20466369420963     -0.38551975627149
  N   -0.89283603491001     -1.18796835420296      1.19379551299902
  O   -0.42004692536128     -2.31284376201171      1.29545425342909
  O   -1.39971529222613     -0.52710767927130      2.09796048189322
  N   -1.59252700897730      0.63346644989492     -0.32189441808209
  H   -1.58129191617111      1.16042460295213      0.54199377890963
  H   -2.54638073252342      0.34922974176753     -0.51148547525679
  C   1.26269701878374      0.68176549836200      0.66333887166742
  H   0.75668327923379      1.65123160246238      0.65416709614835
  H   1.18334724826766      0.25279970916342      1.66525213615254
  H   2.32157281466446      0.86290706949299      0.46621381371596
  N   0.82784828916145      0.27626962952973     -1.78540741200330
  H   0.36903590243257      1.17708285177865     -1.85028747999584
  H   1.80630193491530      0.39142289230971     -2.01785782036479
