17
Coordinates from ORCA-job run
  C   -0.67452932689189     -0.23741992881278      0.23963671679101
  C   0.56714525579794      0.39132904056153     -0.39290287472496
  F   -0.50595468246094     -0.23897971486625      1.62589330790812
  H   0.31762621164557      0.58808247404570     -1.43739547858818
  N   -1.92120984220785      0.62994406226447      0.04375469707760
  O   -1.83947389563108      1.63195841115860     -0.65958032695126
  O   -2.93092361138242      0.22907097884468      0.61224593966986
  N   -1.02807794234981     -1.49250549649358     -0.27225851307057
  H   -0.27557693337877     -2.15822058732536     -0.17104683578048
  H   -1.86497015330129     -1.83836292175729      0.18274743122123
  C   1.73644139611919     -0.58747911340314     -0.32690763461299
  H   1.90698900889775     -0.92390933594241      0.69954265962103
  H   1.58857754783268     -1.45739404676364     -0.96968873703169
  H   2.63038258552478     -0.06417700083707     -0.66474833478908
  N   0.96416644632645      1.64836559765223      0.21732918725033
  H   0.25528551927969      2.35146177249154      0.05648644080351
  H   1.07310241617999      1.52723580918275      1.21689235520652
