17
Coordinates from ORCA-job run
  C   -0.73181967990359     -0.42788639045879     -0.21034026365521
  C   0.76992655139532     -0.18444397573934     -0.37731009335552
  F   -1.17693091280238     -1.24459895135563     -1.21058517284269
  H   1.23791905888572     -1.17224769382517     -0.32671005741696
  N   -0.92585008065639     -1.26951881671170      1.08057821183899
  O   -1.42877201066079     -0.70235339448187      2.04893733227289
  O   -0.50699869466734     -2.42054834979483      1.05005370865332
  N   -1.50567468217267      0.74788381054322     -0.22355008373583
  H   -2.48791976418547      0.51594499996435     -0.31406149427026
  H   -1.37664014963994      1.27202561952780      0.63145313723751
  C   1.31694931727147      0.70196188711008      0.73105175607988
  H   2.39775194009054      0.77886707210676      0.61412007950337
  H   0.90653175117504      1.71293845926945      0.65436753063973
  H   1.10058060388146      0.31129271568622      1.72749329400078
  N   1.07835748419610      0.39110922474688     -1.67336080840366
  H   0.53313283673933      1.23783186470509     -1.79544634836273
  H   0.80245643105358     -0.25125808129253     -2.40669072818358
