17
Coordinates from ORCA-job run
  C   -0.84401949850158     -0.59801466530898     -0.08981216951436
  C   0.61707174698381     -0.23006180530417     -0.41408365265774
  F   -1.15256930037091     -1.67813805810389     -0.86940088816828
  H   1.15179798735712     -1.18446301758150     -0.46068889265398
  N   -0.88091111749412     -1.08802011265989      1.35138198855257
  O   -1.27386236422121     -0.30191059333468      2.21021867203286
  O   -0.42280527562487     -2.20646487061117      1.54916505223038
  N   -1.82335477186846      0.39588381725648     -0.25960626379112
  H   -1.59872401395408      0.92222490063933     -1.09498013431034
  H   -1.90582217975165      0.98222504057974      0.55779126908343
  C   1.24548000031606      0.66571282592537      0.64249847843612
  H   0.66362468484800      1.58396219090443      0.76512908977824
  H   1.31486802392159      0.17628069164745      1.61467690013578
  H   2.25639455846167      0.93716228434902      0.33148039944613
  N   0.58117818641073      0.40634033952068     -1.73110833327726
  H   0.96688603688638      1.34020472235586     -1.68929117561362
  H   1.10476729660153     -0.12192369027407     -2.41337033970882
