17
Coordinates from ORCA-job run
  C   -0.79655942206834     -0.50347318453418     -0.12074107231667
  C   0.69030952124392     -0.28217554517093     -0.42188579334835
  F   -1.22094175316426     -1.55956145540243     -0.90684609425049
  H   1.13861225549798     -1.27743791932065     -0.35490869393839
  N   -0.90417487933473     -1.06451226345199      1.30829030651736
  O   -1.50780729648636     -0.40483593707707      2.15158329023560
  O   -0.33163728468107     -2.12952807087266      1.50394553234117
  N   -1.62614527473219      0.60557043885267     -0.27980045800756
  H   -2.21822051518455      0.77720065816930      0.51907782744749
  H   -1.13250785911904      1.43488913592263     -0.56595587327333
  C   1.34593028529425      0.62589047814462      0.60596245466432
  H   0.80901273210425      1.57249355486927      0.71574872540337
  H   1.39549731140876      0.15034149733069      1.58668169560580
  H   2.36493546017907      0.84357331229819      0.28266561461270
  N   0.90954189628644      0.22832554043157     -1.76260544594947
  H   0.75871080186145      1.22727252562850     -1.82087954634172
  H   0.32544402089443     -0.24303276581753     -2.44133246940183
