16
Coordinates from ORCA-job run
  C   -0.67345567370656      0.48789535287483     -0.22852086800799
  C   0.70632839550120      0.26004775710540     -0.84837712946117
  H   -1.20670412076912      1.23749606229001     -0.81854911717248
  H   1.16247847612400      1.23846162707076     -1.02208933131382
  H   0.54789482102344     -0.19724969554137     -1.83082376883762
  N   -0.44961477426605      1.16951156307147      1.09642278359523
  O   -0.57728058294441      0.50846124626225      2.12511800054027
  O   -0.09653650909283      2.34607588821458      1.04743627838507
  C   -1.51710407474953     -0.75779318854588     -0.05597822412725
  H   -2.48168194471091     -0.51506643155820      0.39245666178614
  H   -1.02870649168661     -1.49263952168884      0.58090451645206
  H   -1.69623673138043     -1.20117908971251     -1.03860819570950
  C   1.64018468000119     -0.60585744771702     -0.00780591931959
  H   2.59893093155997     -0.72064396924579     -0.51780553991694
  H   1.23439103782133     -1.60480960238931      0.16006254842541
  H   1.83811256127533     -0.15371055049038      0.96615730468218
