16
Coordinates from ORCA-job run
  C   -0.47030694710837      0.47816464751024     -0.08009410867089
  C   0.97869766605852      0.13558672063502      0.25142444060835
  H   -0.52430773705991      1.02609247091577     -1.02322053064989
  H   1.00403884901212     -0.33480715679646      1.23886661514422
  H   1.54318941938498      1.07148028128745      0.32353341457591
  N   -0.94276897097795      1.46738507799517      0.94530048694374
  O   -1.10893183973046      1.04793361438303      2.08887920685309
  O   -1.10485830258924      2.63128100935705      0.58212633789909
  C   -1.41146844430517     -0.71231607734227     -0.08154804291218
  H   -1.33008941425142     -1.26374263898090      0.85589323151878
  H   -1.16897809407494     -1.37902512743192     -0.91026021735609
  H   -2.44664437722759     -0.38666646270913     -0.20471916961654
  C   1.61697481433230     -0.77175003611070     -0.79568744414718
  H   1.15299518241181     -1.75938115349630     -0.81440491131095
  H   1.53638484381128     -0.33776982658914     -1.79597622529791
  H   2.67807335231404     -0.91246534262690     -0.58011308358155
