16
Coordinates from ORCA-job run
  C   -0.49381529512438      0.45588880070675     -0.07187287199958
  C   0.98399235503613      0.18466791884726      0.19263116836125
  H   -0.62051568859398      0.96376726146229     -1.03029090355324
  H   1.08133161390046     -0.24518917537748      1.19393769154069
  H   1.51196426047115      1.14430642075084      0.19882993613249
  N   -0.95170635949290      1.46525226148134      0.94042212704085
  O   -1.04147400289042      1.08447370152453      2.10594115257262
  O   -1.17821016501118      2.60739321208820      0.54399071241284
  C   -1.38216138360886     -0.77083243807166      0.02214788446449
  H   -2.43529292201533     -0.49265557553248     -0.05752687077724
  H   -1.22857455473832     -1.28053424851003      0.97402646941864
  H   -1.15478743006496     -1.45973750832843     -0.79257766174129
  C   1.60262918693722     -0.73770951882098     -0.85334605873806
  H   1.18560365731249     -1.74500378462055     -0.80337166448226
  H   2.68003026304299     -0.82102252595074     -0.69703793614450
  H   1.44298646483990     -0.35206480164885     -1.86390317450769
