16
Coordinates from ORCA-job run
  C   -0.56047281962286      0.26380938215161     -0.19522810768716
  C   0.63545030733032     -0.66366174337536     -0.36431959819953
  H   -0.54706418902723      1.04931602698091     -0.95360164408026
  H   0.52163238647214     -1.16161761613825     -1.33315309842369
  H   0.58162738038591     -1.43830425211017      0.40629692698877
  N   -0.38736604956534      1.00160168402925      1.10023290124747
  O   -0.19352649235236      2.21492580068219      1.04626217587204
  O   -0.42353602214904      0.33058413718057      2.12983711370497
  C   -1.89325145630185     -0.46194546374360     -0.17466164049377
  H   -2.04665259343914     -0.96712231536360     -1.13070689240682
  H   -2.71916574346322      0.23582609251191     -0.01957098100878
  H   -1.90655897030214     -1.20478799485336      0.62349036721933
  C   1.97492335891834      0.06283758277637     -0.29731103937134
  H   2.79616735480327     -0.62496509865674     -0.50850215035925
  H   2.14692989951734      0.48627376649766      0.69456000672537
  H   2.02086364879586      0.87823001143060     -1.02362433972737
