16
Coordinates from ORCA-job run
  C   -0.68876713956323      0.47242957208722     -0.21479435555316
  C   0.68377862606500      0.27504698018719     -0.86116510963267
  H   -1.24734227948159      1.21349325221839     -0.79212189480283
  H   0.51725863939178     -0.19067211623147     -1.83829577004251
  H   1.11242353110179      1.26348014342265     -1.04779837694149
  N   -0.45313355887138      1.15124432029997      1.10850862521004
  O   -0.54769569526419      0.48225655654025      2.13575817036783
  O   -0.12179908508834      2.33424512952321      1.05937598688315
  C   -1.50469502054072     -0.79050315835672     -0.03453186597072
  H   -1.70329897124879     -1.22443102253831     -1.01761740534544
  H   -0.98629735907917     -1.52466524804980      0.57906893902249
  H   -2.46064238410128     -0.57024814762335      0.44309243588194
  C   1.65532991509867     -0.56291609263033     -0.03514742485005
  H   1.87201492481862     -0.09330177675918      0.92650735829191
  H   2.60160634639576     -0.66821210173919     -0.56991559530319
  H   1.27225951036707     -1.56624629035055      0.15807628278470
