10
Coordinates from ORCA-job run
  C   0.04592313457606      0.56117402701880     -0.01952433551030
  C   -1.05305160081160     -0.43469815012618     -0.28607125290935
  Br  0.65040384778101      1.42702368082250     -1.64077568451981
  H   -0.71237258444649     -1.19449825848113     -0.98714200491064
  H   -0.22975954447996      1.34890093103060      0.67711545609207
  H   -1.34110423097084     -0.91719340851140      0.65184537098624
  H   -1.92089552003158      0.07861770002926     -0.70061834201279
  N   1.23268855174743     -0.12401720219993      0.60955325373173
  O   1.71992959107271      0.42819356267276      1.59237552738005
  O   1.60823835556328     -1.17450288225528      0.10324201167280
