10
Coordinates from ORCA-job run
  C   0.06010512035506      0.55972523018382     -0.03204305184733
  C   -1.06759287859626     -0.41238145071798     -0.26455044917415
  Br  0.66660518722219      1.37598065081818     -1.67767588589839
  H   -1.35547469844051     -0.86874169022720      0.68638438259403
  H   -0.18559688153474      1.36811622211755      0.65201186549559
  H   -0.75578827847704     -1.19439441734735     -0.95452218895537
  H   -1.92750920963174      0.11488156174693     -0.67813647874146
  N   1.23656374691617     -0.14411304743989      0.59680773270199
  O   1.75162508809105      0.41593771497479      1.56081579092812
  O   1.57706280409582     -1.21501077410884      0.10890828289697
