14

C	0.0	0.0	0.0
C	-0.441614	0.188557	-1.465723
Br	1.953202	0.0	0.0
H	-1.505114	0.433375	-1.427386
H	0.120041	1.04443	-1.852811
C	-0.397105	1.118465	0.858211
N	-0.550425	2.056433	1.550176
C	-0.414094	-1.285561	0.565886
N	-0.575674	-2.366009	1.000396
C	-0.220607	-1.06077	-2.305919
H	-0.425221	-0.836901	-3.355691
H	-0.910349	-1.845598	-1.990191
H	0.80308	-1.437432	-2.234544
Br	-3.470066	0.0	0.0
