14

C	0.0	0.0	0.0
C	-0.496946	-0.00372	-1.45362
Br	1.9699	0.0	0.0
H	0.014119	-0.827757	-1.960839
H	-1.566759	-0.226156	-1.382882
C	-0.399278	1.192721	0.749031
N	-0.597731	2.174532	1.364043
C	-0.38366	-1.227692	0.702288
N	-0.536652	-2.267627	1.228677
C	-0.290128	1.323882	-2.163815
H	0.753647	1.648019	-2.152806
H	-0.909974	2.093758	-1.700513
H	-0.606767	1.227636	-3.205255
Br	-3.580241	0.0	0.0
