14

C	0.0	0.0	0.0
C	-0.34656	-0.18541	-1.506617
Br	1.962463	0.0	0.0
H	-1.391471	-0.486295	-1.564227
H	0.288293	-1.002721	-1.863272
C	-0.415288	1.286995	0.553836
N	-0.534369	2.385475	0.958035
C	-0.413205	-1.139186	0.82038
N	-0.535228	-2.101191	1.485222
C	-0.115166	1.077161	-2.326606
H	-0.300032	0.861694	-3.38247
H	-0.810944	1.858279	-2.017447
H	0.906287	1.454211	-2.236032
Br	-3.335635	0.0	0.0
