13
Coordinates from ORCA-job run
  C   0.93517935472785     -0.01125467682130     -0.44770978163504
  C   -0.44668484456062     -0.65953423207628     -0.46971023654448
  F   1.72309034354100     -0.59923769575644     -1.42076629633627
  H   -0.83355716707994     -0.52595191116184     -1.48409720138876
  H   -0.28730922677178     -1.73013807938998     -0.31191419838900
  C   1.58939448187382     -0.20777058457557      0.85931892176887
  N   2.07605118576176     -0.39306443673641      1.91184781141520
  C   0.84552206635072      1.43264744998081     -0.73415270546122
  N   0.72982072814236      2.57681553989498     -0.97176271376841
  C   -1.39561570478542     -0.07724881066668      0.57067797627538
  H   -1.01177471785158     -0.21669868910292      1.58340271055092
  H   -2.36280625846746     -0.57815808241989      0.50884535422475
  H   -1.56131024088071      0.98959420883153      0.40702035928805
