13
Coordinates from ORCA-job run
  C   0.93388938238819      0.04395127878582     -0.44744811617307
  C   -0.40741650969835     -0.68424863531289     -0.47137140276773
  F   1.75489185913579     -0.49438204990425     -1.42193388123056
  H   -0.80060767574664     -0.57185839837846     -1.48589031443653
  H   -0.18571493850389     -1.74391847536161     -0.31524317998136
  C   1.59966230515845     -0.11613717350958      0.85864703763256
  N   2.10193986294387     -0.27068839508549      1.90880459901178
  C   0.75967731774307      1.48088172715495     -0.72971115289230
  N   0.57573553428163      2.61748910107252     -0.96025587437731
  C   -1.38966623721537     -0.16020211400845      0.56904077865441
  H   -2.32553235222970     -0.71765525232791      0.50632872433576
  H   -1.61819858660044      0.89512484974429      0.40599438740311
  H   -0.99865996165660     -0.27735646286895      1.58203839482124
