15

C	-0.59706	0.012989	-1.401248
C	0.0	0.0	0.0
Br	0.149004	-1.483675	-2.396276
H	1.090005	0.0	0.0
H	-0.299453	-0.948046	0.459995
C	-2.11145	-0.061577	-1.432553
H	-2.437974	-0.956888	-0.899624
H	-2.468536	-0.099263	-2.459846
H	-2.527703	0.820039	-0.936555
N	-0.183442	1.28198	-2.148593
O	-0.69982	1.455295	-3.249231
O	0.603348	2.036656	-1.593945
C	-0.54551	1.089059	0.8056
N	-1.040979	1.961939	1.41486
Br	3.480362	0.0	0.0
