15

C	-0.397587	-0.001847	-1.466045
C	0.0	0.0	0.0
Br	-0.093786	1.749314	-2.255555
H	1.094117	0.0	0.0
H	-0.314422	-0.952557	0.438077
C	0.383917	-1.052893	-2.229417
H	1.449824	-0.871487	-2.069812
H	0.132679	-2.040438	-1.826685
H	0.137611	-1.021127	-3.289357
N	-1.889109	-0.300855	-1.642405
O	-2.55573	-0.488305	-0.627512
O	-2.309657	-0.380159	-2.790743
C	-0.552449	1.089103	0.790213
N	-0.992586	1.967713	1.432187
Br	3.498638	0.0	0.0
