17

C	-0.349205	-0.061799	-1.465658
C	0.0	0.0	0.0
Br	-2.339606	-0.099085	-1.758679
H	1.106249	0.0	0.0
H	-0.027709	-1.022654	-1.874456
C	0.25027	1.084889	-2.244091
H	0.0484	0.997575	-3.315302
H	-0.142256	2.027853	-1.868959
H	1.330852	1.056093	-2.057544
C	-0.454381	-1.212659	0.79542
H	0.004554	-1.176745	1.788927
H	-1.545293	-1.242226	0.905857
H	-0.129521	-2.141383	0.315106
N	-0.401745	1.276231	0.586915
H	-1.251813	1.166935	1.131944
H	0.343859	1.582067	1.204481
H	2.910674	0.0	0.0
