17

C	-0.219045	-0.029916	-1.527491
C	0.0	0.0	0.0
F	-0.090899	1.289846	-2.042148
H	1.099266	0.0	0.0
N	0.733534	-0.912846	-2.077732
H	0.776552	-0.834384	-3.086257
H	1.65121	-0.712973	-1.648668
C	-1.602408	-0.425559	-1.897448
N	-2.717807	-0.726088	-2.112694
N	-0.42425	-1.232294	0.650238
H	0.201031	-1.975097	0.361591
H	-1.366167	-1.486461	0.367789
C	-0.610011	1.208257	0.67055
H	-0.235664	2.133541	0.233543
H	-1.7051	1.199802	0.596122
H	-0.33931	1.177948	1.727259
H	2.93793	0.0	0.0
