17

C	-0.516518	-0.035892	-1.429504
C	0.0	0.0	0.0
F	-0.132485	-1.19539	-2.064861
H	1.096265	0.0	0.0
N	-1.967027	-0.0137	-1.483922
H	-2.298049	0.855707	-1.082579
H	-2.255225	-0.032813	-2.457945
C	0.053521	1.085058	-2.23599
N	0.395618	2.018218	-2.862124
N	-0.400974	-1.22598	0.675043
H	0.395044	-1.535728	1.223342
H	-1.194761	-1.073625	1.287414
C	-0.428336	1.275359	0.718802
H	0.12869	1.333246	1.656937
H	-0.186217	2.175775	0.145735
H	-1.500716	1.280758	0.957232
H	2.877932	0.0	0.0
