17

C	-0.285475	0.026187	-1.496689
C	0.0	0.0	0.0
F	-1.663166	0.219466	-1.754682
H	1.095968	0.0	0.0
N	0.460198	1.084393	-2.096071
H	1.386524	1.08747	-1.655086
H	0.581661	0.93014	-3.089831
C	-0.00284	-1.305805	-2.099432
N	0.218746	-2.358932	-2.57156
N	-0.475062	-1.196197	0.682351
H	-1.358428	-1.508309	0.295396
H	0.20735	-1.934445	0.554413
C	-0.529386	1.253159	0.673399
H	-0.173124	1.252334	1.704984
H	-0.172222	2.15405	0.172816
H	-1.623702	1.264645	0.679252
H	2.867905	0.0	0.0
