17

C	-0.302636	0.125695	-1.488052
C	0.0	0.0	0.0
F	-1.606347	0.621697	-1.723501
H	1.095744	0.0	0.0
N	0.639619	1.035968	-2.052088
H	1.559436	0.865783	-1.623687
H	0.704164	0.926155	-3.056065
C	-0.309035	-1.20193	-2.160252
N	-0.286343	-2.186765	-2.80055
N	-0.492201	-1.253265	0.555364
H	-1.262522	-1.084775	1.19015
H	0.263023	-1.682187	1.07773
C	-0.470659	1.238186	0.744591
H	-0.029918	1.235277	1.74559
H	-1.562705	1.257021	0.831993
H	-0.150564	2.144412	0.228458
H	2.874168	0.0	0.0
