12

C	-0.50986	-0.099908	-1.429482
C	0.0	0.0	0.0
Cl	-0.434557	1.457547	-2.252719
H	1.091915	0.0	0.0
H	-1.535173	-0.462935	-1.504276
H	-0.30658	0.963858	0.412642
N	0.29413	-1.150725	-2.192722
O	0.153395	-2.277365	-1.727859
O	0.949144	-0.845157	-3.174762
C	-0.531698	-1.052732	0.847364
N	-0.960819	-1.878947	1.565072
H	2.696052	0.0	0.0
