12

C	-0.373716	-0.066675	-1.448952
C	0.0	0.0	0.0
Cl	-2.126547	-0.235574	-1.77776
H	1.094624	0.0	0.0
H	0.128028	-0.90943	-1.919091
H	-0.282386	-0.957065	0.451152
N	0.092296	1.13347	-2.233791
O	0.486005	0.90534	-3.37457
O	0.013949	2.23256	-1.70177
C	-0.593549	1.072316	0.773732
N	-1.043523	1.905241	1.469986
H	2.678762	0.0	0.0
