12

C	-0.432629	-0.087754	-1.439106
C	0.0	0.0	0.0
Cl	0.037839	-1.637021	-2.15023
H	1.092645	0.0	0.0
H	-0.005624	0.709453	-2.044166
H	-0.361101	-0.8683	0.555401
N	-1.930787	0.050983	-1.581898
O	-2.332955	1.005958	-2.246438
O	-2.636298	-0.768403	-1.003638
C	-0.494144	1.222087	0.610081
N	-0.892086	2.20926	1.109433
H	2.686747	0.0	0.0
