14

C	0.0	0.0	0.0
C	-0.165585	-0.07808	-1.635123
Cl	1.790574	0.0	0.0
H	0.522092	0.650806	-2.063692
C	-0.704446	1.125462	0.585726
N	-0.927199	2.215589	1.032893
C	-0.431362	-1.210757	0.687564
N	-0.640108	-2.222961	1.257718
N	-1.497833	0.30249	-2.092952
O	-2.377916	-0.435992	-1.515187
O	-1.657007	1.503625	-2.371363
C	0.172857	-1.437704	-2.048838
N	0.464098	-2.524778	-2.393525
H	-2.065797	0.0	0.0
