15

C	0.0	0.0	0.0
C	-0.458194	0.085912	-1.451762
F	1.387536	0.0	0.0
H	0.022542	0.965826	-1.892958
H	-1.540873	0.227734	-1.381143
C	-0.339527	1.281771	0.699298
N	-0.49523	2.289229	1.28351
N	-0.561034	-1.13875	0.634227
H	-0.372336	-1.083924	1.630989
H	-1.59657	-0.921966	0.487236
C	-0.093489	-1.172605	-2.230145
H	-0.35277	-1.053045	-3.286903
H	-0.637367	-2.029824	-1.835268
H	0.976519	-1.387321	-2.161935
F	-2.79834	0.0	0.0
