15

C	0.0	0.0	0.0
C	-0.419264	0.021064	-1.472698
F	1.397762	0.0	0.0
H	0.038179	0.899181	-1.942999
H	-1.507417	0.127577	-1.425345
C	-0.379566	1.289398	0.642982
N	-0.560891	2.312448	1.187847
N	-0.54326	-1.046534	0.798953
H	-0.373592	-1.919451	0.307167
H	-1.577659	-0.815914	0.681543
C	0.00886	-1.245527	-2.208186
H	1.069389	-1.461702	-2.050928
H	-0.575568	-2.108325	-1.880291
H	-0.157332	-1.137852	-3.283717
F	-2.771454	0.0	0.0
