15

C	0.0	0.0	0.0
C	-0.430372	-0.023034	-1.460208
F	1.383855	0.0	0.0
H	-1.519454	-0.107141	-1.42835
H	0.015033	-0.941454	-1.858053
C	-0.35718	1.297583	0.653202
N	-0.502595	2.338286	1.178002
N	-0.525718	-1.136573	0.676778
H	-1.561713	-0.949366	0.549335
H	-0.304797	-1.054118	1.665677
C	0.047959	1.193301	-2.241691
H	-0.448607	2.100508	-1.887885
H	-0.182985	1.080634	-3.305734
H	1.128783	1.333243	-2.144148
F	-2.758744	0.0	0.0
