15

C	0.0	0.0	0.0
C	-0.234282	-0.035175	-1.537146
F	1.387609	0.0	0.0
H	0.560158	0.60805	-1.920805
H	0.043886	-1.061664	-1.800879
C	-0.368688	1.331935	0.567222
N	-0.544702	2.385437	1.056481
N	-0.595487	-1.09071	0.67067
H	-1.632908	-0.859208	0.480285
H	-0.439395	-0.972578	1.669239
C	-1.536898	0.359537	-2.20857
H	-1.83035	1.366524	-1.909006
H	-2.357314	-0.276817	-1.903636
H	-1.375575	0.340318	-3.295887
F	-2.829633	0.0	0.0
