14
Coordinates from ORCA-job run
  C   -0.30507087859502      0.31779193661477     -0.17120066014438
  C   1.18810848594087      0.29220826809039      0.16656062558082
  H   -0.45974129339535      0.87015665740898     -1.10423959752378
  H   1.57880432440936      1.30705420718172      0.24447382317478
  H   1.34028699803445     -0.19185993242704      1.13633424952422
  N   -1.01220860834881      1.16088103397468      0.87335984353334
  O   -2.19586819446939      0.91877804922734      1.08417160269949
  O   -0.36682459033982      2.06174436271533      1.40431445590308
  C   -0.93333429802788     -1.05850054717978     -0.25215094034876
  H   -0.42812147551245     -1.64252183711846     -1.02323022513304
  H   -1.99013165462464     -0.98926674177264     -0.50052112628397
  H   -0.83656689031610     -1.58026587803141      0.70269733617853
  C   1.92508558956843     -0.43954942970417     -0.86025306517933
  N   2.49558248567635     -1.02665014897971     -1.70131632198100
