14
Coordinates from ORCA-job run
  C   -0.26196518157509      0.13306620083978     -0.32249995542345
  C   1.16023600192634     -0.34203274196455     -0.04698608097203
  H   -0.30433679502536      0.73569268368795     -1.23067947158804
  H   1.19603607305409     -0.85188734005072      0.91779396030188
  H   1.44883345919070     -1.05867222569118     -0.82144119250491
  N   -0.69489006018553      1.06735029693488      0.77421352949722
  O   -0.38667528777793      0.76262728255905      1.92380716826476
  O   -1.37315428994004      2.03462009733090      0.44007429888427
  C   -1.25702770933038     -1.01451864784169     -0.37240777368776
  H   -2.26689372970920     -0.63371942054835     -0.53464693724318
  H   -1.23571276484343     -1.57537094359767      0.56421634628182
  H   -1.00774975175880     -1.68841450409046     -1.19439674409045
  C   2.11545405579020      0.76461963657162     -0.04299093356784
  N   2.86684598018443      1.66563962586044     -0.05505621415230
