14

C	0.0	0.0	0.0
C	-0.215057	-0.031861	-1.525142
Br	1.943926	0.0	0.0
H	0.256711	0.858568	-1.936171
H	0.281678	-0.928463	-1.894885
N	-0.401157	1.305517	0.649526
O	-0.539932	1.288363	1.862703
O	-0.425464	2.289397	-0.075767
C	-0.477264	-1.151606	0.740852
N	-0.581354	-2.172141	1.319167
N	-1.575464	-0.076495	-2.145359
O	-2.06373	0.991661	-2.494077
O	-2.000205	-1.188329	-2.444809
F	-2.195709	0.0	0.0
