14

C	0.0	0.0	0.0
C	-0.513115	-0.138226	-1.42197
Br	1.938414	0.0	0.0
H	-1.637076	-0.188663	-1.199144
H	-0.225388	0.725045	-2.012667
N	-0.420723	1.377462	0.533364
O	-0.490958	2.283193	-0.283822
O	-0.549806	1.478427	1.741624
C	-0.452318	-1.015487	0.943013
N	-0.613224	-1.852209	1.753277
N	-0.019413	-1.335736	-2.107332
O	0.163348	-2.363349	-1.453512
O	0.123547	-1.251714	-3.330615
F	-2.520928	0.0	0.0
