14

C	0.0	0.0	0.0
C	-0.528045	0.095042	-1.441611
Br	1.918821	0.0	0.0
H	-1.623825	0.208659	-1.266533
H	-0.258171	-0.838261	-1.936743
N	-0.434281	1.168845	0.875153
O	-0.426905	2.264345	0.336694
O	-0.635547	0.930369	2.053963
C	-0.477117	-1.244845	0.594508
N	-0.609534	-2.320521	1.05161
N	0.024813	1.181192	-2.295358
O	-0.661266	2.189617	-2.453972
O	1.098569	0.972767	-2.868754
F	-2.525741	0.0	0.0
