18

C	-0.508099	-0.02781	-1.444212
C	0.0	0.0	0.0
Br	0.368176	1.29806	-2.55895
H	1.107569	0.0	0.0
N	-0.228347	-1.415577	-2.044539
O	0.911837	-1.657736	-2.395935
O	-1.180539	-2.193855	-2.039105
C	-1.948903	0.201558	-1.525565
N	-3.099851	0.443496	-1.533986
C	-0.477746	-1.235835	0.762026
H	-0.146265	-1.138714	1.798218
H	-1.568145	-1.338708	0.752405
H	-0.03134	-2.150967	0.369365
C	-0.455728	1.278274	0.699762
H	-0.145936	2.168883	0.150767
H	-1.541345	1.305406	0.842183
H	0.026544	1.317146	1.678933
Cl	3.397703	0.0	0.0
