18

C	-0.42648	0.009951	-1.463183
C	0.0	0.0	0.0
Br	-2.386778	-0.04707	-1.688325
H	1.0977	0.0	0.0
N	0.067945	1.292091	-2.153463
O	1.108786	1.183016	-2.789081
O	-0.578935	2.315042	-1.969739
C	0.094935	-1.129135	-2.211781
N	0.422977	-2.096767	-2.793395
C	-0.434422	-1.297516	0.678376
H	-1.517332	-1.339144	0.826725
H	0.056918	-1.346515	1.652166
H	-0.117225	-2.176563	0.113345
C	-0.464886	1.221014	0.783768
H	-0.140495	1.092312	1.819026
H	-1.552981	1.332612	0.769165
H	-0.010961	2.140056	0.414055
Cl	3.332283	0.0	0.0
