18

C	-0.413109	-0.009912	-1.475852
C	0.0	0.0	0.0
Br	0.330287	-1.511418	-2.453503
H	1.096658	0.0	0.0
N	-1.950786	-0.083951	-1.551747
O	-2.478065	-1.186111	-1.492091
O	-2.536866	0.995488	-1.567794
C	-0.013067	1.201116	-2.182211
N	0.301514	2.175094	-2.760383
C	-0.475169	-1.229614	0.765259
H	0.012923	-1.219041	1.742516
H	-1.558929	-1.234024	0.919042
H	-0.189728	-2.155754	0.26602
C	-0.454791	1.286416	0.688733
H	-1.543011	1.3501	0.786838
H	-0.096278	2.175292	0.166523
H	-0.015157	1.29773	1.688646
Cl	3.349087	0.0	0.0
