18

C	-0.415255	0.10723	-1.463008
C	0.0	0.0	0.0
Br	-2.370123	0.299286	-1.696619
H	1.099944	0.0	0.0
N	0.222943	1.338226	-2.132254
O	1.12941	1.115402	-2.92437
O	-0.204135	2.432575	-1.795648
C	-0.041259	-1.067606	-2.243939
N	0.18451	-2.049972	-2.848999
C	-0.457435	-1.331692	0.590077
H	-1.548504	-1.39449	0.656898
H	-0.041441	-1.415579	1.596415
H	-0.084554	-2.181299	0.015023
C	-0.447232	1.167254	0.873459
H	-0.030344	2.114705	0.535641
H	-1.537209	1.254311	0.919863
H	-0.068474	0.982512	1.882042
Cl	3.329147	0.0	0.0
