16

C	0.0	0.0	0.0
C	-0.481322	-0.148449	-1.46467
F	1.345737	0.0	0.0
H	-1.525654	-0.454603	-1.444949
C	-0.465988	1.180749	0.727743
N	-0.60169	2.17917	1.332208
N	-0.377478	-1.255021	0.796647
O	-0.358552	-1.143207	2.014103
O	-0.528106	-2.293386	0.163536
N	0.338596	-0.997854	-2.279686
H	0.06967	-1.95836	-2.112562
H	1.317882	-0.882285	-2.044585
N	-0.441811	1.207004	-2.120724
O	0.51167	1.93419	-1.835727
O	-1.29809	1.446821	-2.958563
Cl	-3.194366	0.0	0.0
