16

C	0.0	0.0	0.0
C	-0.176904	0.103181	-1.56775
F	1.358244	0.0	0.0
H	0.56166	-0.614974	-1.926868
C	-0.468332	1.14876	0.768133
N	-0.517861	2.184427	1.326607
N	-0.334742	-1.31187	0.66846
O	-0.25067	-2.305525	-0.041825
O	-0.469178	-1.28375	1.884239
N	0.158998	1.430246	-2.014614
H	0.959905	1.770356	-1.498627
H	-0.634261	2.037399	-1.836408
N	-1.41593	-0.314164	-2.334343
O	-1.55248	-1.519224	-2.504859
O	-2.083321	0.567888	-2.85299
Cl	-2.896212	0.0	0.0
