16

C	0.0	0.0	0.0
C	-0.519555	-0.090644	-1.464725
F	1.348801	0.0	0.0
H	0.194172	0.53205	-2.016241
C	-0.468734	1.247842	0.612414
N	-0.722228	2.296764	1.076515
N	-0.453676	-1.15648	0.890935
O	0.010518	-1.136851	2.024308
O	-1.206164	-1.986205	0.403024
N	-1.823642	0.272164	-1.742647
H	-1.938567	1.233932	-2.015177
H	-2.588626	-0.021226	-1.113856
N	-0.198252	-1.524328	-1.997175
O	0.89548	-1.984895	-1.675709
O	-1.01319	-2.056655	-2.72766
Cl	-4.352051	0.0	0.0
