16

C	-0.535762	0.003637	-1.401853
C	0.0	0.0	0.0
Br	-0.038255	-1.631227	-2.313494
H	1.08836	0.0	0.0
H	-0.377995	0.873959	0.53259
N	-2.064234	0.167849	-1.411186
O	-2.456571	1.077396	-0.686362
O	-2.762007	-0.547551	-2.111661
C	0.001775	1.192506	-2.189988
H	-0.421673	1.203241	-3.197487
H	-0.271264	2.115685	-1.674223
H	1.087663	1.126971	-2.261154
N	-0.44511	-1.180768	0.789238
O	-1.594182	-1.59595	0.616082
O	0.37802	-1.673711	1.555905
Br	2.758016	0.0	0.0
