15

C	-0.520215	0.027408	-1.424668
C	0.0	0.0	0.0
Cl	-0.068027	1.541628	-2.226501
H	1.10296	0.0	0.0
H	-0.32916	0.938463	0.457711
N	0.083453	-1.158374	-2.211353
O	1.070568	-0.973629	-2.899044
O	-0.492665	-2.227345	-2.01409
C	-1.975661	-0.11848	-1.513658
N	-3.149372	-0.192548	-1.525679
C	-0.475742	-1.193181	0.818865
H	-0.094124	-1.063635	1.834843
H	-1.564842	-1.290971	0.863466
H	-0.056292	-2.124765	0.437081
H	2.835757	0.0	0.0
