15

C	-0.497564	0.015063	-1.431491
C	0.0	0.0	0.0
Cl	0.022213	1.454982	-2.315207
H	1.102986	0.0	0.0
H	-0.337831	-0.94922	0.427916
N	0.048446	-1.253911	-2.140327
O	0.841292	-1.13969	-3.055956
O	-0.396675	-2.297539	-1.67514
C	-1.956487	-0.078743	-1.52533
N	-3.131589	-0.122454	-1.551885
C	-0.510634	1.173688	0.820046
H	-1.603768	1.222835	0.874686
H	-0.132544	2.116875	0.422167
H	-0.116883	1.073709	1.834347
H	2.850584	0.0	0.0
