18

C	-0.040045	-0.026487	-0.053477
C	-0.140959	-0.001377	-1.603276
F	1.36292	-0.076284	0.187748
H	0.278923	0.967222	-1.904112
N	-0.56403	1.126004	0.57151
H	-1.622198	1.095544	0.610663
H	-0.297714	1.960675	0.058373
C	-0.661381	-1.263945	0.551459
H	-0.375285	-1.296425	1.603591
H	-0.306143	-2.168567	0.051261
H	-1.749923	-1.182063	0.494475
C	-1.591583	-0.117895	-2.082272
H	-2.256966	0.451023	-1.419531
H	-1.918323	-1.159464	-2.050575
H	-1.687034	0.23686	-3.112144
C	0.694779	-1.033159	-2.22335
N	1.329847	-1.875136	-2.741757
H	-3.230917	0.925049	0.490824
