16

C	-0.488509	0.059803	-1.44998
C	0.0	0.0	0.0
F	-0.20928	-1.182866	-2.040016
H	1.093776	0.0	0.0
H	-0.308432	0.915549	0.517407
C	-1.98959	0.252565	-1.560385
H	-2.511334	-0.553889	-1.040173
H	-2.287056	0.237115	-2.612041
H	-2.290515	1.208651	-1.123885
C	0.308664	1.103482	-2.206215
H	0.036876	1.080219	-3.264936
H	0.105272	2.10268	-1.811586
H	1.374589	0.896716	-2.09176
C	-0.554104	-1.141893	0.715693
N	-1.05661	-2.038159	1.283191
Cl	3.424077	0.0	0.0
