14

C	-0.486982	-0.06665	-1.469973
C	0.0	0.0	0.0
Cl	0.053451	1.38143	-2.368332
H	1.094538	0.0	0.0
C	0.044322	-1.269371	-2.11549
N	0.43885	-2.248226	-2.631515
C	-1.953582	-0.122541	-1.499103
N	-3.127978	-0.166458	-1.482312
N	-0.441233	-1.210256	0.666344
H	-1.253415	-1.060462	1.24944
H	0.322186	-1.578474	1.220235
C	-0.493688	1.228275	0.628286
N	-0.917048	2.165762	1.197323
Br	3.35015	0.0	0.0
