14

C	-0.458699	-0.026331	-1.473863
C	0.0	0.0	0.0
Cl	-2.26714	-0.079877	-1.545377
H	1.095967	0.0	0.0
C	-0.024325	1.168872	-2.199372
N	0.299928	2.121722	-2.806089
C	0.043334	-1.233816	-2.13079
N	0.430651	-2.209106	-2.658678
N	-0.416669	-1.220928	0.656047
H	-1.257091	-1.097987	1.203841
H	0.33993	-1.541578	1.247588
C	-0.479992	1.226965	0.64162
N	-0.881195	2.172654	1.21313
Br	3.327499	0.0	0.0
