14

C	-0.41651	0.016382	-1.517637
C	0.0	0.0	0.0
Cl	0.331656	-1.389607	-2.331348
H	1.095811	0.0	0.0
C	-1.872321	-0.117775	-1.623198
N	-3.040605	-0.249539	-1.633398
C	0.012004	1.242893	-2.188175
N	0.326398	2.223952	-2.754436
N	-0.438821	-1.151488	0.735816
H	-1.417737	-1.373378	0.588307
H	0.15354	-1.944798	0.523983
C	-0.524046	1.226436	0.605346
N	-0.98447	2.201481	1.072179
Br	3.378521	0.0	0.0
