14

C	-0.486832	-0.112218	-1.467959
C	0.0	0.0	0.0
Cl	0.05642	1.306633	-2.41118
H	1.094541	0.0	0.0
C	0.04314	-1.335212	-2.074887
N	0.430602	-2.329891	-2.56519
C	-1.953265	-0.166942	-1.49665
N	-3.127907	-0.204495	-1.482197
N	-0.43925	-1.191469	0.702028
H	0.332934	-1.553731	1.247534
H	-1.236994	-1.022036	1.299063
C	-0.497128	1.244398	0.590858
N	-0.93024	2.196214	1.127928
Br	3.349619	0.0	0.0
