15

C	-0.528314	-0.047429	-1.415896
C	0.0	0.0	0.0
Cl	-0.169282	-1.620551	-2.186958
H	1.095637	0.0	0.0
H	-0.344754	-0.888669	0.531158
N	-2.110047	-0.069392	-1.330919
O	-2.635594	-0.596703	-0.357847
O	-2.719665	0.437182	-2.267577
N	-0.092708	1.017977	-2.19879
H	-0.682481	1.152848	-3.006103
H	-0.069248	1.845672	-1.612361
N	-0.452856	1.259715	0.599194
H	-1.260718	1.101878	1.188408
H	0.2977	1.623046	1.173005
Cl	3.453543	0.0	0.0
