15

C	-0.659687	0.070357	-1.377289
C	0.0	0.0	0.0
Cl	0.239263	1.228638	-2.427023
H	1.089853	0.0	0.0
H	-0.361639	-0.930137	0.455611
N	-0.470391	-1.316306	-2.027982
O	0.667299	-1.655141	-2.306036
O	-1.478868	-2.01408	-2.156574
N	-2.030567	0.390305	-1.314492
H	-2.596601	-0.3799	-1.638633
H	-2.243742	0.675941	-0.365437
N	-0.525547	1.120406	0.80177
H	-0.264041	0.948077	1.765863
H	-0.006206	1.946703	0.521318
Cl	3.488489	0.0	0.0
