14

C	0.0	0.0	0.0
C	-0.263915	-0.196347	-1.514145
Cl	1.840461	0.0	0.0
H	0.394255	0.50148	-2.034636
H	0.071984	-1.20762	-1.756384
N	-0.460438	1.30549	0.392841
H	-1.490526	1.139606	0.344799
H	-0.21366	1.440274	1.369396
N	-0.468329	-1.144624	0.7311
H	-0.243713	-0.997315	1.712074
H	-1.49751	-1.001773	0.61524
C	-1.588237	0.002912	-2.115968
N	-2.407907	0.159961	-2.943969
F	-2.721454	0.0	0.0
