14

C	0.0	0.0	0.0
C	-0.466698	-0.178399	-1.45522
Cl	1.804215	0.0	0.0
H	-0.131477	0.675243	-2.051976
H	-1.566767	-0.161742	-1.346841
N	-0.477225	1.239055	0.56589
H	-1.503325	1.099783	0.493593
H	-0.208646	2.014742	-0.031529
N	-0.483885	-1.126497	0.745526
H	-1.509263	-1.015757	0.632901
H	-0.267868	-0.936403	1.720141
C	-0.016264	-1.408078	-2.093513
N	0.31739	-2.380888	-2.659961
F	-2.831046	0.0	0.0
