14

C	0.0	0.0	0.0
C	-0.287221	-0.21855	-1.557673
Cl	1.854175	0.0	0.0
H	0.412813	0.441423	-2.083525
H	0.04694	-1.238757	-1.805623
N	-0.551146	1.136808	0.628644
H	-0.306435	1.981178	0.110866
H	-1.610205	0.883989	0.513497
N	-0.38476	-1.142161	0.738365
H	-0.19951	-0.986324	1.719369
H	0.079751	-1.981394	0.410263
C	-1.591074	0.004177	-2.229395
N	-2.537504	0.058643	-2.926324
F	-2.776385	0.0	0.0
