14

C	0.0	0.0	0.0
C	-0.460141	0.210936	-1.44308
Cl	1.837986	0.0	0.0
H	-0.115809	1.18919	-1.783266
H	-1.561105	0.201251	-1.349242
N	-0.468743	1.144483	0.746242
H	-1.495689	1.005659	0.660319
H	-0.219674	0.998965	1.720627
N	-0.456111	-1.300305	0.422592
H	-0.193533	-1.428868	1.396192
H	-1.483849	-1.160389	0.382639
C	-0.006927	-0.818257	-2.36775
N	0.32987	-1.602371	-3.174155
F	-2.815243	0.0	0.0
