12
Coordinates from ORCA-job run
  C   0.57952548818868     -0.43603136828497      0.10535150064485
  C   -0.54734341058449      0.57562675714489      0.04071220943163
  Cl  0.07165444784275     -1.80660883506975      1.12633935978838
  H   -0.87807054119335      0.85335296098858      1.03799655876679
  H   0.75211328400903     -0.85973896520868     -0.88767932231281
  H   -0.22725355858277      1.45410004101393     -0.52505558745773
  N   1.72070752077736      0.20822669191267      0.72161733619568
  H   2.13672424201186      0.85307609173623      0.05779898526607
  H   2.41975553404023     -0.48443947350337      0.96042167182538
  N   -1.71929029144337      0.01774389342068     -0.69075169683768
  O   -1.49776527086771     -0.43468593271079     -1.81216701491524
  O   -2.81175744419821      0.06037813856058     -0.13358400039532
