12
Coordinates from ORCA-job run
  C   0.71424654709585     -0.48974517393680     -0.20700649739030
  C   -0.79935085287693     -0.43586762843532     -0.22477995828085
  Cl  1.15104337071774     -2.22263211036931     -0.23764982055251
  H   -1.21607319315264     -0.92686180812150     -1.10545009882383
  H   1.11989024021445     -0.06655923383005     -1.13061177660228
  H   -1.20511912443670     -0.88740404747369      0.67934120682097
  N   1.21894883269108      0.09711953396051      1.01298082850056
  H   2.19688041950699     -0.13851254364498      1.12922417752007
  H   1.14759000879291      1.10519816786166      0.93069250282490
  N   -1.30919804055269      0.97218893337479     -0.26228783404037
  O   -0.51307447964619      1.87101513500791     -0.53568271647096
  O   -2.50578372835387      1.12006077560677     -0.04877001350541
