12
Coordinates from ORCA-job run
  C   0.53940674399666     -0.46779720250534      0.18850853110033
  C   -0.40142976100330      0.58762622950474     -0.35093040426722
  Cl  -0.06091825630855     -0.94469253754723      1.85163860717928
  H   -0.07718239751247      0.87226554045122     -1.35327197650212
  H   0.45480535768691     -1.37443341499559     -0.40675100646134
  H   -0.46238299209932      1.45632870985219      0.30244860486514
  N   1.87034963409112      0.01893370328727      0.16093489813052
  H   1.99635929655448      0.79596725989487      0.79754190642519
  H   2.53309346161174     -0.70597072250220      0.40089946427203
  N   -1.78639604341748      0.05193349266849     -0.48636685455067
  O   -2.70367569136060      0.73432622374840     -0.04122649655195
  O   -1.90102935223919     -1.02548728185681     -1.06442527363920
