12
Coordinates from ORCA-job run
  C   0.63208129789727     -0.66343945590286     -0.02356581309231
  C   -0.50471668520364     -0.04546294392148     -0.81615467406688
  Cl  -0.13618710428468     -1.71103167169686      1.28731830897945
  H   -0.09331343004935      0.63944810197881     -1.56067891054203
  H   1.12112580067739     -1.39218525081350     -0.67078076592447
  H   -1.11870090588141     -0.81008836454693     -1.28479327847212
  N   1.58056923759617      0.27452285940604      0.43061144815258
  H   1.15962384537977      0.96949649514938      1.03182592110348
  H   2.35635209117566     -0.17378639242419      0.89771359819035
  N   -1.43385873096297      0.76083839174842      0.03087886506886
  O   -2.63588563412378      0.58455882249378     -0.13129268512443
  O   -0.92808978222043      1.56812940852939      0.80891798572752
