12
Coordinates from ORCA-job run
  C   0.60019385494511     -0.74288615022051     -0.03496581063676
  C   -0.85066286323830     -0.34306244123481      0.22350015675436
  Cl  0.85652761889231     -2.25413743111458      0.91371438005331
  H   -1.54786050156106     -1.08883723671011     -0.15752878972116
  H   0.71762098990401     -1.01691452737791     -1.08263246680718
  H   -1.02714037172370     -0.14253385419450      1.27891999109106
  N   1.57179421233089      0.24083548429196      0.29741436183810
  H   1.75473033461197      0.87409786283007     -0.46668697337976
  H   1.35838048841232      0.74740103365867      1.14533328393896
  N   -1.10139309908859      0.92419350742724     -0.51559165913803
  O   -1.29491204407556      1.94441798885962      0.14168661901801
  O   -1.03727861940941      0.85942576378484     -1.74216309301090
