12
Coordinates from ORCA-job run
  C   0.65836320270689     -0.69653386044132      0.10214301187186
  C   -0.58065183616438     -0.22219702904311     -0.66478441724279
  Cl  0.07205257582227     -1.55320023772771      1.57300527666628
  H   -1.21846427075879     -1.05739766901389     -0.94592162031162
  H   1.12976806032367     -1.46330911374068     -0.51641418810644
  H   -0.26780882857766      0.34746533161978     -1.54260643685277
  N   1.64411667898440      0.27148959041740      0.45388542198731
  H   1.21962757976559      1.12190101763715      0.79790863647074
  H   2.25145700259016      0.47474994385999     -0.32788080184373
  N   -1.42756335716262      0.69250720437570      0.15129782005044
  O   -0.89329208943166      1.72563101393699      0.55664709531774
  O   -2.58860471809787      0.35989380811970      0.36272020199298
