12
Coordinates from ORCA-job run
  C   0.72041918567265     -0.43349303320754     -0.16306353923550
  C   -0.78422255469794     -0.38842720487550     -0.34137256544802
  Cl  1.16048809661584     -2.22090298090522     -0.14882160031673
  H   -1.08428712011437     -0.87965411552281     -1.26573657686601
  H   1.21569128915742     -0.03498885670604     -1.04606004552690
  H   -1.30575063069519     -0.81854608437424      0.51239825529559
  N   1.11177360191226      0.29216398012523      0.97856008325127
  H   0.73206543466430     -0.09027015275432      1.83475898027557
  H   2.11459262402487      0.38387979065746      1.05818549574461
  N   -1.19787795562008      1.04107563918143     -0.44431379240661
  O   -1.92607718224233      1.48999106467509      0.43513230200214
  O   -0.75781478867743      1.66117195370646     -1.40866699676941
