12
Coordinates from ORCA-job run
  C   0.60015967878532     -0.38350683997053      0.17164297090197
  C   -0.58030828294483      0.54254055526795     -0.04429373830831
  Cl  0.14562635153209     -1.63822604252897      1.35359355767912
  H   -0.29578051413382      1.35862048138432     -0.71305493896863
  H   0.82169265419957     -0.92066607619212     -0.75455182087388
  H   -0.95135229538001      0.92594079502398      0.90250555484870
  N   1.68717109236962      0.40228124277767      0.71821526169831
  H   2.41640259141438     -0.21091038775127      1.06133012473159
  H   2.08519935691975      0.97569865159241     -0.01823022576661
  N   -1.69939908207583     -0.17356526940439     -0.71806471019606
  O   -2.80599216010032     -0.12680795677239     -0.18982324803775
  O   -1.42441939058591     -0.75039915342667     -1.76826878770847
