12
Coordinates from ORCA-job run
  C   0.63852896515239     -0.50423856386001      0.04399258206906
  C   -0.49212635888345      0.51596257704386      0.01152733268021
  Cl  0.11947469991149     -1.85541296201424      1.09735685627464
  H   -0.20176828599967      1.36124705726077     -0.61682917651028
  H   0.77425016194686     -0.92135151906377     -0.95329304525567
  H   -0.76212492724588      0.84916800630093      1.01242676184893
  N   1.89040988191807      0.01491610602683      0.51298647036037
  H   1.78644850154621      0.52589352142583      1.38023942501117
  H   2.32602804966733      0.60187026493342     -0.18634237148049
  N   -1.72312041165117     -0.05604202549313     -0.60667021451618
  O   -1.58117196822403     -0.57631641819270     -1.71103726369284
  O   -2.77582830813815      0.04330395563221      0.01564264321108
