12
Coordinates from ORCA-job run
  C   0.73092426301779     -0.60864710354746     -0.09379603359364
  C   -0.75854339461038     -0.41993710095400     -0.37197235054933
  Cl  0.96723483017073     -2.38916487336461      0.05824862720402
  H   -1.36835663429537     -0.79758473640269      0.44704704044461
  H   1.30337643440696     -0.29823395855939     -0.96690613852041
  H   -1.05156460319659     -0.86952546449025     -1.32039875060329
  N   1.22944652718416      0.07193943257307      1.05120815037494
  H   0.59383910141603      0.05623423671852      1.83670116568604
  H   1.52042198980545      1.01493991073775      0.83989351759385
  N   -1.01114587727118      1.04371575392010     -0.47325178588208
  O   -0.46158618756005      1.62567795050684     -1.40714178252366
  O   -1.69404644906756      1.57158595286211      0.40136834036895
