12
Coordinates from ORCA-job run
  C   0.66748437300708     -0.68654221011010      0.10726925359354
  C   -0.58682429639077     -0.24044457689926     -0.65102594572817
  Cl  0.10937861424177     -1.52106393822188      1.60216681153063
  H   -0.29322504175257      0.31508447240761     -1.54455776774390
  H   1.13785835659442     -1.46075871452265     -0.50273679570823
  H   -1.21862546405398     -1.08787480264259     -0.90818366520044
  N   1.64797368566588      0.29789748985533      0.42599526685391
  H   1.21948378136347      1.15204794229807      0.75513144079250
  H   2.24769320626205      0.48627185232848     -0.36515415068850
  N   -1.43439614197730      0.68021581218718      0.15793418729206
  O   -2.59475984414103      0.34707160650023      0.37235547179159
  O   -0.90304122881901      1.71909506681959      0.55180589321501
