13

C	-0.372944	0.060211	-1.491989
C	0.0	0.0	0.0
F	-0.108572	-1.214083	-2.021311
H	1.097656	0.0	0.0
H	-1.442865	0.219109	-1.645277
N	0.377015	1.089125	-2.086088
H	0.204621	1.145587	-3.080886
H	1.370077	0.961189	-1.901968
C	-0.517764	-1.202934	0.644226
N	-0.960356	-2.157099	1.16503
C	-0.486173	1.194454	0.686154
N	-0.908681	2.141103	1.237226
Br	3.401362	0.0	0.0
