13

C	-0.420397	-0.008716	-1.479188
C	0.0	0.0	0.0
F	-0.105721	1.218938	-2.018752
H	1.096023	0.0	0.0
H	0.214871	-0.738779	-1.997378
N	-1.836021	-0.19769	-1.631441
H	-2.143132	-1.014612	-1.118977
H	-2.058201	-0.330289	-2.610649
C	-0.453152	-1.234101	0.639065
N	-0.842577	-2.249576	1.083126
C	-0.531151	1.167543	0.698121
N	-0.955583	2.105999	1.260648
Br	3.361419	0.0	0.0
