13

C	-0.307611	-0.06967	-1.498413
C	0.0	0.0	0.0
F	-1.671699	-0.217682	-1.717687
H	1.09708	0.0	0.0
H	-0.044538	0.898653	-1.94493
N	0.377632	-1.200347	-2.035615
H	0.389955	-1.15594	-3.047021
H	1.339008	-1.207414	-1.695504
C	-0.498419	-1.178845	0.704094
N	-0.910949	-2.104531	1.295986
C	-0.516536	1.225354	0.599849
N	-0.928519	2.222451	1.06309
Br	3.357208	0.0	0.0
