13

C	-0.364144	-0.097929	-1.510627
C	0.0	0.0	0.0
F	-0.208894	-1.42567	-1.859431
H	1.095661	0.0	0.0
H	-1.413963	0.166114	-1.675294
N	0.473809	0.705721	-2.32929
H	1.439994	0.64917	-2.010521
H	0.171322	1.669909	-2.327212
C	-0.554552	-1.082139	0.80292
N	-1.024734	-1.950364	1.438461
C	-0.454232	1.298801	0.491109
N	-0.851282	2.353982	0.820324
Br	3.373846	0.0	0.0
