13

C	-0.368089	-0.126326	-1.50784
C	0.0	0.0	0.0
F	-0.219618	-1.461566	-1.829638
H	1.096664	0.0	0.0
H	-1.417233	0.139636	-1.676268
N	0.473116	0.652967	-2.345404
H	1.440513	0.587018	-2.031569
H	0.185924	1.622636	-2.3546
C	-0.553672	-1.067689	0.823142
N	-1.026191	-1.925295	1.471174
C	-0.453209	1.308645	0.464419
N	-0.826223	2.387071	0.743265
Br	3.3732	0.0	0.0
