13

C	-0.362922	-0.092672	-1.511515
C	0.0	0.0	0.0
F	-0.203523	-1.418903	-1.865291
H	1.095642	0.0	0.0
H	-1.413551	0.1688	-1.675739
N	0.473153	0.717336	-2.325175
H	0.161277	1.678418	-2.328904
H	1.438432	0.66932	-2.002265
C	-0.556734	-1.084635	0.798089
N	-1.045936	-1.949013	1.424616
C	-0.454585	1.297244	0.495362
N	-0.854327	2.349605	0.830599
Br	3.374519	0.0	0.0
