11

C	0.0	0.0	0.0
C	-0.58803	-0.018007	-1.403506
Br	1.947605	0.0	0.0
H	-0.371168	-0.960562	-1.910588
H	-0.336381	0.89408	0.52693
H	-1.71276	0.023115	-1.091816
C	-0.421261	-1.186074	0.750894
N	-0.539872	-2.186574	1.358292
C	-0.186449	1.111274	-2.209784
N	0.097173	2.045509	-2.869286
H	-2.76274	0.0	0.0
