11

C	0.0	0.0	0.0
C	-0.302505	0.021636	-1.529709
Br	1.949747	0.0	0.0
H	0.266186	0.838859	-1.97662
H	-0.297127	0.926102	0.473812
H	0.108096	-0.906246	-1.951533
C	-0.549401	-1.074656	0.774693
N	-0.597489	-1.946448	1.573321
C	-1.713304	0.116381	-1.942471
N	-2.561265	0.158056	-2.772705
H	-2.102364	0.0	0.0
