11

C	0.0	0.0	0.0
C	-0.479376	0.038481	-1.455037
Br	1.947706	0.0	0.0
H	-0.160491	-0.863197	-1.984713
H	-0.352077	0.885453	0.527781
H	-1.592685	0.042762	-1.289449
C	-0.474665	-1.197334	0.696498
N	-0.555207	-2.218679	1.279059
C	-0.035775	1.224414	-2.162859
N	0.270029	2.196099	-2.750668
H	-2.631763	0.0	0.0
