11

C	0.0	0.0	0.0
C	-0.396678	0.095514	-1.484969
Br	1.947608	0.0	0.0
H	0.006131	1.023744	-1.899196
H	-0.363299	0.88637	0.516631
H	-1.500665	0.130168	-1.435891
C	-0.50584	-1.192396	0.677746
N	-0.570185	-2.186947	1.311067
C	0.061144	-1.026321	-2.290449
N	0.387502	-1.914091	-2.988012
H	-2.494035	0.0	0.0
