14
Coordinates from ORCA-job run
  C   -1.02578368129806     -0.07631867993989      0.13348480425166
  C   0.49019905228733     -0.28099167579980      0.40568852286208
  H   -1.43663677167113      0.50554611643792      0.96838259797889
  H   0.56665503557744     -0.85509686324138      1.33614704446002
  C   -1.73342101584973     -1.35998679312322      0.08340769116918
  N   -2.27946620443522     -2.39947854982122      0.08168715789494
  C   -1.24036139315391      0.68959592740265     -1.09912922378207
  N   -1.38597376021637      1.32992457867192     -2.07244774858752
  C   1.21177890844719      1.05957365262006      0.56081002298050
  H   1.16129782591299      1.63733815759552     -0.36368300517075
  H   0.75779985622730      1.63958964887040      1.36792633896003
  H   2.26179639718822      0.89274991301468      0.80499396612022
  C   1.08310488139431     -1.08108756546927     -0.66796137965331
  N   1.56801086958964     -1.70135786721838     -1.53930678948387
