14
Coordinates from ORCA-job run
  C   -0.87167184675523      0.19850628579620     -0.43185433989308
  C   0.48303080179036     -0.38819377660539      0.06032090322198
  H   -0.67676454156637      1.16383843105104     -0.91610861000216
  H   0.28027497577386     -1.37195949336620      0.49811066071438
  C   -1.76775743111325      0.42569178093042      0.70741208508560
  N   -2.45389143377227      0.60654836640971      1.64282809077609
  C   -1.50958364231360     -0.68988802605854     -1.40957392601996
  N   -2.00061401022457     -1.41566331742672     -2.19107395344625
  C   1.14643144138276      0.51929773304167      1.09901777625312
  H   0.51024210157872      0.61920025003270      1.97970276471956
  H   2.10102386515480      0.09271871625134      1.40926311878017
  H   1.33441805601632      1.51066181116776      0.68116804756587
  C   1.35503595774235     -0.57626459193874     -1.10117157987612
  N   2.06782570630612     -0.69449416928524     -2.02704103787919
