14
Coordinates from ORCA-job run
  C   -1.03029185965787     -0.05673336425565      0.11241806070515
  C   0.47515919954317     -0.30688275451438      0.40366363567442
  H   -1.44210405124307      0.50698438096466      0.95914147477919
  H   0.52130592439604     -0.91511791853493      1.31424328963501
  C   -1.76732796518677     -1.32025576201177      0.00644414935659
  N   -2.33803588219721     -2.34523569344681     -0.04119459483301
  C   -1.20457473474060      0.75451845777771     -1.09736689087871
  N   -1.31905492758035      1.42997266330737     -2.05108170872388
  C   1.22435679751711      1.01014621027931      0.61914969322356
  H   1.19963810026833      1.62326367599385     -0.28344769366990
  H   2.26686714503520      0.81005179763499      0.87001012648196
  H   0.77265276523376      1.56985189793219      1.44178670868829
  C   1.07174004576501     -1.08145459590929     -0.68663519816191
  N   1.56966944284722     -1.67810899521725     -1.56713105227675
