14
Coordinates from ORCA-job run
  C   -0.86877883701433     -0.20416370221747     -0.43394773266147
  C   0.44085011606716     -0.17112588729889      0.40578929910783
  H   -0.59872614047948     -0.21559638723051     -1.49770030669010
  H   0.15888102097702     -0.20606992144718      1.46391186269331
  C   -1.66677181322185      0.99913547247491     -0.17332524379931
  N   -2.27235463699190      1.97983429823448      0.05024504128344
  C   -1.65557409091906     -1.40756289609913     -0.14240137576713
  N   -2.26724433520783     -2.37830414282266      0.10700349038236
  C   1.25849959704198      1.09161250808616      0.12343926482943
  H   1.52424474867739      1.14973292178192     -0.93439607769846
  H   2.18025560772752      1.07639587225569      0.70642995466081
  H   0.69063962796639      1.98203846332457      0.39741452291870
  C   1.21748515121094     -1.37430454098591      0.09978735579020
  N   1.85759398416604     -2.32062205805598     -0.17225005504962
