14
Coordinates from ORCA-job run
  C   -1.02290244010176     -0.03931340241835      0.17791207211267
  C   0.48864211289444     -0.36392883205371      0.33460110677613
  H   -1.35910772071160      0.43399435218136      1.10910295764738
  H   0.57281692237434     -1.07247396794363      1.16651711478961
  C   -1.80939843370779     -1.26110059268494     -0.02195873926274
  N   -2.41758422859774     -2.25729830697176     -0.14957429406705
  C   -1.24333682846142      0.91026244614493     -0.91849086899396
  N   -1.38675996339994      1.69314201623702     -1.78168853870456
  C   1.29772296675698      0.89808841290752      0.64197671433700
  H   0.92130484553499      1.37417380560870      1.55064369947227
  H   1.23630490117912      1.60954891349143     -0.18334120818532
  H   2.34646869539897      0.64109954014621      0.79669995708598
  C   0.98177240229034     -1.02794873873224     -0.87410640590568
  N   1.39505676855105     -1.53724564591257     -1.84829356710173
