14
Coordinates from ORCA-job run
  C   -0.91682330260705     -0.47128368138995     -0.38184323498337
  C   0.53907271354392     -0.51708526661393      0.16750093360710
  H   -1.12686351813263     -1.40722892382796     -0.91350289312871
  H   0.58230254622910     -1.35526341227399      0.87254550809337
  C   -1.08710988190833      0.64057130877036     -1.32406589875767
  N   -1.19454182825346      1.53484842947394     -2.07725751663946
  C   -1.86454742306702     -0.35117530571662      0.73184782313459
  N   -2.59071748181295     -0.27320907685541      1.65111333251584
  C   0.93456477033915      0.77757587604670      0.87947067940770
  H   1.94896452501056      0.69072315692809      1.27119422338584
  H   0.90224143863196      1.62347968537986      0.19050761175315
  H   0.25701644474625      0.97012202570254      1.71376278846770
  C   1.44598758160111     -0.81581704495312     -0.94297165468890
  N   2.17145341567942     -1.04625777067051     -1.83730170216717
