17

C	-0.191264	0.191811	-1.500461
C	0.0	0.0	0.0
F	-1.498194	0.606098	-1.806184
H	1.096021	0.0	0.0
N	0.734963	1.176492	-2.010715
H	1.637536	0.887894	-1.598109
H	0.485783	2.013944	-1.486525
C	0.001182	-1.080777	-2.238993
N	0.110856	-2.090802	-2.826736
C	-0.639107	-1.235707	0.60042
H	-0.373588	-1.301156	1.65977
H	-1.733774	-1.204217	0.519802
H	-0.285515	-2.148015	0.114341
N	-0.385839	1.261555	0.640233
H	-1.313763	1.195058	1.042775
H	0.280199	1.440517	1.380931
F	2.682043	0.0	0.0
