17

C	-0.528393	0.038504	-1.428517
C	0.0	0.0	0.0
F	-0.31512	-1.186068	-2.056908
H	1.099648	0.0	0.0
N	-1.939963	0.308779	-1.449475
H	-2.228916	0.633581	-2.364132
H	-2.069959	1.057831	-0.774418
C	0.228155	1.037022	-2.234659
N	0.70002	1.873418	-2.911145
C	-0.54244	-1.198657	0.751241
H	-0.335266	-2.117941	0.20189
H	-0.024317	-1.26283	1.713498
H	-1.624464	-1.133244	0.922633
N	-0.422174	1.278118	0.632567
H	0.430086	1.82387	0.734951
H	-0.748927	1.084284	1.573332
F	2.650301	0.0	0.0
