17

C	-0.552548	-0.022964	-1.411787
C	0.0	0.0	0.0
F	-1.997759	-0.127166	-1.338419
H	1.094401	0.0	0.0
N	-0.185346	1.133371	-2.125876
H	-0.787111	1.268193	-2.927283
H	-0.251833	1.904528	-1.46834
C	-0.170755	-1.23855	-2.162673
N	0.07511	-2.206567	-2.779303
C	-0.472485	-1.195141	0.810704
H	0.019369	-1.162116	1.786429
H	-0.178084	-2.133831	0.332745
H	-1.560077	-1.202132	0.953492
N	-0.375947	1.294602	0.588315
H	0.408172	1.583117	1.16162
H	-1.199643	1.208258	1.173355
F	2.630994	0.0	0.0
