17

C	-0.41643	-0.052279	-1.461231
C	0.0	0.0	0.0
F	-1.835873	-0.304433	-1.560279
H	1.091092	0.0	0.0
N	-0.07773	1.142938	-2.114755
H	-0.218957	1.904734	-1.458622
H	-0.572896	1.259352	-2.98621
C	0.192175	-1.210738	-2.158589
N	0.661093	-2.127838	-2.72096
C	-0.496572	-1.220471	0.756354
H	-0.108797	-1.1737	1.776976
H	-1.592294	-1.27469	0.78962
H	-0.115479	-2.141211	0.305321
N	-0.448759	1.273994	0.563801
H	-1.353404	1.177008	1.012077
H	0.232973	1.546716	1.258034
F	2.640323	0.0	0.0
