17

C	-0.503221	-0.024392	-1.439018
C	0.0	0.0	0.0
F	-0.381715	-1.305742	-1.972642
H	1.095528	0.0	0.0
N	-1.889119	0.350494	-1.5123
H	-2.139991	0.596579	-2.462638
H	-1.965797	1.178743	-0.925939
C	0.342293	0.843556	-2.302703
N	0.887618	1.557975	-3.058847
C	-0.544925	-1.166133	0.799113
H	-0.276659	-2.113398	0.330606
H	-0.084818	-1.145603	1.791126
H	-1.636352	-1.125965	0.903136
N	-0.394256	1.310492	0.563963
H	0.469121	1.760025	0.845575
H	-0.953368	1.176855	1.396778
F	2.649151	0.0	0.0
