17

C	-0.545465	0.077809	-1.411261
C	0.0	0.0	0.0
F	0.009445	-0.972767	-2.17807
H	1.09498	0.0	0.0
N	-1.976577	0.000147	-1.46303
H	-2.283899	0.018647	-2.429229
H	-2.25788	-0.883493	-1.055423
C	-0.13733	1.329901	-2.085575
N	0.131381	2.28568	-2.710806
C	-0.435379	-1.281679	0.700009
H	-1.4955	-1.280533	0.996948
H	-0.237538	-2.156546	0.073862
H	0.170883	-1.384983	1.603374
N	-0.387124	1.228088	0.69125
H	-1.219313	1.104904	1.255693
H	0.389109	1.492214	1.28457
F	2.64322	0.0	0.0
