17

C	-0.546267	0.015078	-1.411514
C	0.0	0.0	0.0
F	0.008033	-1.067805	-2.133522
H	1.095284	0.0	0.0
N	-1.978042	-0.069321	-1.455722
H	-2.25345	-0.936965	-1.010489
H	-2.285376	-0.095227	-2.421355
C	-0.143761	1.236338	-2.144279
N	0.133475	2.149021	-2.828059
C	-0.433841	-1.251227	0.754891
H	-1.489511	-1.230599	1.064843
H	-0.250993	-2.150482	0.160145
H	0.183849	-1.324521	1.652406
N	-0.388174	1.255972	0.636742
H	-1.23834	1.1644	1.182864
H	0.378252	1.536722	1.237927
F	2.643458	0.0	0.0
