17

C	-0.420525	0.149755	-1.453259
C	0.0	0.0	0.0
F	0.002934	-0.980547	-2.184669
H	1.101787	0.0	0.0
N	-1.835605	0.326138	-1.611477
H	-2.074577	0.359618	-2.595973
H	-2.302399	-0.467051	-1.187414
C	0.247629	1.313655	-2.08273
N	0.676295	2.262636	-2.624163
C	-0.56414	-1.267014	0.620557
H	-0.060781	-1.409845	1.578366
H	-0.363947	-2.140559	-0.004944
H	-1.642487	-1.198181	0.823775
N	-0.383622	1.185074	0.773371
H	0.413642	1.80939	0.766985
H	-1.176453	1.661739	0.360632
F	2.641953	0.0	0.0
