17

C	-0.06588	-0.026215	-1.553799
C	0.0	0.0	0.0
F	0.019882	1.336118	-2.003552
H	1.099097	0.0	0.0
N	1.013741	-0.801156	-2.001447
H	1.855241	-0.561189	-1.422815
H	1.16972	-0.70181	-2.99642
C	-1.362199	-0.478526	-2.113172
N	-2.416154	-0.8307	-2.496321
C	-0.551998	-1.274412	0.602006
H	-0.109751	-2.147317	0.118737
H	-0.301831	-1.294528	1.664834
H	-1.644433	-1.333937	0.504002
N	-0.57155	1.173486	0.626984
H	-1.525423	1.31005	0.303406
H	-0.03546	1.977249	0.323892
F	2.748023	0.0	0.0
