17

C	-0.562239	-0.005442	-1.414116
C	0.0	0.0	0.0
F	-0.262729	-1.213877	-2.030682
H	1.10099	0.0	0.0
N	-2.004145	0.162686	-1.528713
H	-2.418335	-0.648529	-1.077533
H	-2.214272	0.968761	-0.944727
C	0.070753	1.075642	-2.209731
N	0.522339	1.951404	-2.847069
C	-0.49592	-1.184476	0.80649
H	-1.565877	-1.122821	1.054612
H	0.072456	-1.219434	1.739088
H	-0.311783	-2.119826	0.275599
N	-0.431838	1.290762	0.590355
H	-0.835516	1.129045	1.504786
H	0.419868	1.821648	0.73841
F	2.643439	0.0	0.0
