12
Coordinates from ORCA-job run
  C   -0.29295042949001      0.20300214056313      0.12072448141353
  C   0.63671727676503     -0.71891258268850     -0.23913710124210
  H   0.32696732553740     -1.75275051377244     -0.37252652836684
  C   -1.74060814827312     -0.12863136340532      0.36464900636881
  H   -2.39619035030936      0.45574744041735     -0.28631112660668
  H   -2.02756453996200      0.08034392530928      1.39892341861146
  H   -1.92199945058627     -1.18813125015319      0.17052376853259
  C   0.13856377767706      1.55374409375509      0.27390410510438
  N   0.53716357706029      2.65790321319793      0.37774497672942
  N   1.98658436732151     -0.50177894444833     -0.37298535617263
  H   2.27827812287043      0.46249287744170     -0.44177605458204
  H   2.47603847138904     -1.12202903621670     -0.99573358978992
