12
Coordinates from ORCA-job run
  C   -0.15544977314405      0.57987115198428      0.08949682498027
  C   1.02974258395983      0.10887279647581     -0.37248695218442
  H   1.84181392958686      0.79693290209866     -0.58854385919815
  C   -1.32719839361771     -0.32821363280447      0.36703508435651
  H   -1.55321642734368     -0.94420546401140     -0.50935674461487
  H   -1.12875135992478     -0.99653341100693      1.21257282935893
  H   -2.21948358033723      0.24888291041483      0.60731360555722
  C   -0.27871860277489      1.97944409562417      0.32407712385245
  N   -0.40596584376560      3.13218806662705      0.52819185942826
  N   1.27247485037486     -1.20835088708895     -0.69194830492873
  H   2.24138037086022     -1.47798572267455     -0.72218717320899
  H   0.68337224612617     -1.89190280563848     -0.24316429339848
