12
Coordinates from ORCA-job run
  C   -0.18409659588320      0.57910027079226     -0.01619185067489
  C   0.97044040000835      0.07197845329846     -0.51632697522868
  H   1.70312546881019      0.73045778918286     -0.97421794430032
  C   -1.24728518912242     -0.29892308537938      0.59538743216185
  H   -0.90494953187200     -0.75281218954736      1.53223194145643
  H   -1.52427375855661     -1.10566054398699     -0.09088672203930
  H   -2.14681972213609      0.27436693116239      0.81756124346197
  C   -0.38797736902480      1.98745520282801     -0.07525330835999
  N   -0.58148767617825      3.14848234382858     -0.10740605895514
  N   1.27176774108467     -1.26925314089746     -0.56947055694972
  H   0.78761826007376     -1.86691280889844      0.08118707953418
  H   2.24493797279640     -1.49927922238293     -0.67761428010638
