12
Coordinates from ORCA-job run
  C   -0.29182845999144      0.20409072215804      0.11898006856033
  C   0.59290620205239     -0.68681587255205     -0.39757850405249
  H   0.26321467978530     -1.70538612045302     -0.58867876771319
  C   -1.72352136091433     -0.13383465604686      0.43590969498746
  H   -1.94849378508760      0.04278505740803      1.49097674838121
  H   -1.91977113640173     -1.18562739709665      0.21655180983294
  H   -2.41543001918949      0.47060799010512     -0.15675693911692
  C   0.17305545681473      1.52903993677100      0.37098277411302
  N   0.59940728441676      2.60882277503750      0.57306014966388
  N   1.87694839068500     -0.41384774727805     -0.80402173774711
  H   2.52032656077388     -1.18688765173020     -0.78500396681057
  H   2.27218618705653      0.45505296367714     -0.47442133009855
