12
Coordinates from ORCA-job run
  C   -0.30237231650429      0.17897342082304      0.13306155810315
  C   0.63766552021959     -0.56054039064731     -0.50944166618690
  H   0.31714706502878     -1.39924877784139     -1.12306876100575
  C   -1.78011833451089     -0.08742376560531      0.03394592307177
  H   -2.21523949199317     -0.28366793348540      1.01732959755677
  H   -1.96399900634030     -0.95729133211533     -0.60046070565013
  H   -2.30951445441508      0.76582439170051     -0.39865441839873
  C   0.14713509148965      1.26543238108612      0.94061712954391
  N   0.56124599235431      2.14766381242918      1.60304123965791
  N   1.98753893576828     -0.30536472447487     -0.54610462209700
  H   2.58330641767734     -1.10113191729445     -0.69989586125553
  H   2.33720458122578      0.33777483542520      0.14963058666054
