12
Coordinates from ORCA-job run
  C   -0.16671321486605      0.57442992777886     -0.11031093534322
  C   0.96327389696750     -0.04690521923956     -0.53147671464644
  H   1.70869268697516      0.50100412194329     -1.10079353580613
  C   -1.24514339756695     -0.15262421335803      0.65347456084634
  H   -2.12217502298887      0.47945248015139      0.78876773130902
  H   -1.56124063255391     -1.05263953031006      0.11633498515268
  H   -0.89781717707251     -0.45578282563232      1.64789618701600
  C   -0.32742372386102      1.95876566963590     -0.40377684128392
  N   -0.48366994984626      3.10359939305958     -0.63127906552113
  N   1.22069355384219     -1.38841598746587     -0.36613900101662
  H   0.72539962551291     -1.85494475354017      0.37688295105331
  H   2.18512335545784     -1.66493906302300     -0.44058032175989
