12
Coordinates from ORCA-job run
  C   -0.29230940495671      0.17954023875520      0.15173361659403
  C   0.61873074360852     -0.66176409436635     -0.40108651644642
  H   0.26865518810243     -1.56793056113302     -0.88993167019004
  C   -1.77497734681197     -0.07763733317815      0.14338694244524
  H   -2.16668738801618     -0.17818327147884      1.15914652784984
  H   -1.99418325867656     -1.00121307577938     -0.39687447982812
  H   -2.31631000828755      0.73867783616817     -0.34184707707547
  C   0.19440786382800      1.36631163626339      0.77596473358457
  N   0.63489628209941      2.33998791274566      1.27251864844991
  N   1.98556702382619     -0.53737202745764     -0.33347031630811
  H   2.50597968698169     -0.96666627324906     -1.07966814520650
  H   2.33623061830273      0.36924901271001     -0.05987226386891
