12
Coordinates from ORCA-job run
  C   -0.31049526684211      0.18162987755199      0.10869478766079
  C   0.65917080110471     -0.65528978678306     -0.34166177950720
  H   0.45398533433476     -1.72250068166003     -0.38385408266126
  C   -1.67387009512442     -0.28344127552874      0.54419829204482
  H   -1.87739134818200      0.00160097413293      1.57970845599199
  H   -2.46006584733557      0.14990183066743     -0.07988018868018
  H   -1.74280299714685     -1.37086692037492      0.46908289689628
  C   -0.00879553160451      1.57464815563698      0.16714259808332
  N   0.28578354934690      2.71484350201362      0.20911126167678
  N   1.88118808093306     -0.28464145834556     -0.84930299620089
  H   2.61685087314989     -0.96632314960525     -0.77199437415807
  H   2.17644244736615      0.66043893229462     -0.65124487114638
