12
Coordinates from ORCA-job run
  C   -0.08157864475139      0.56898349326092      0.19923018845671
  C   1.09387674353978     -0.02537151125129     -0.12503419414845
  H   2.03014959680293      0.51133151823512     -0.00123289678082
  C   -1.40841958908951     -0.12317320649875      0.01132463832177
  H   -1.51475998043997     -0.97816797224981      0.68858181167367
  H   -1.51299965975720     -0.48854769850155     -1.01533146060452
  H   -2.23597932105961      0.55738910669092      0.20926466002613
  C   -0.04847912600997      1.88863955737499      0.73373229332785
  N   -0.04921334246779      2.97783961835607      1.18130467730501
  N   1.20231280830447     -1.27073960728948     -0.70021352346399
  H   2.09879068681744     -1.71891047271982     -0.61462755104611
  H   0.42629982811082     -1.89927282540732     -0.56599864306724
