12
Coordinates from ORCA-job run
  C   -0.17146467253442      0.58348657040192     -0.01113566171954
  C   0.98762493966461      0.06107578415046     -0.48370336716231
  H   1.74848212093028      0.71163052062143     -0.90565586819715
  C   -1.27095459721645     -0.28274396603271      0.55095026571474
  H   -1.54427675971530     -1.07052775888626     -0.15844295639638
  H   -2.16460291604430      0.30522470606202      0.75815329527035
  H   -0.96544591521686     -0.76133846179674      1.48825841052653
  C   -0.34470479274417      1.99649222741390     -0.05160398240781
  N   -0.51244064749561      3.16191956195290     -0.06895648925863
  N   1.26149146316362     -1.28562877827710     -0.55466358123734
  H   2.23331802716664     -1.53366610474706     -0.63101086738515
  H   0.74297375004197     -1.88492430086274      0.06781080225270
