12
Coordinates from ORCA-job run
  C   -0.12603113418677      0.59166773624035      0.06284435947740
  C   1.01217652474908      0.04399136102375     -0.43171082347465
  H   1.80673208327176      0.68187111761621     -0.80834004317710
  C   -1.24180900905145     -0.25135284243481      0.62795973304701
  H   -2.00874836617065      0.37218219566442      1.08643011920291
  H   -1.72571758570002     -0.85089594899603     -0.15131106304296
  H   -0.86216177062732     -0.93432444989616      1.39461460066351
  C   -0.26108880616966      2.00924154604708      0.04041596576636
  N   -0.40032216878322      3.17857139313036      0.03021715754002
  N   1.29514205522070     -1.30241027876831     -0.42238353835859
  H   0.50893377007060     -1.92939053471365     -0.36082286850887
  H   2.00289440737695     -1.60915129491320     -1.06791359913504
