12
Coordinates from ORCA-job run
  C   -0.20772224345078      0.55937768489332     -0.11800654077146
  C   1.03117735417032      0.07286668433176     -0.37952375308239
  H   1.79152355416424      0.71724378518907     -0.81175067662698
  C   -1.30528813894696     -0.30581943106227      0.44939974379798
  H   -1.07731303408507     -0.62218169421639      1.47358915603993
  H   -1.44475911329877     -1.20455655040681     -0.15982867282189
  H   -2.25267975547286      0.23147624223549      0.47506264003949
  C   -0.46778928381733      1.93270254922011     -0.39116735515499
  N   -0.70807400760133      3.06590540560391     -0.60297585545944
  N   1.40025938923947     -1.24277270594858     -0.21609642959598
  H   2.38850930102573     -1.41708754965326     -0.14688074457311
  H   0.85115597807335     -1.78815442018634      0.42917848820882
