12
Coordinates from ORCA-job run
  C   -0.18446193571601      0.57491468551072     -0.07627207813000
  C   0.96704574999743      0.01633917274904     -0.52581341396957
  H   1.69811319388523      0.62119863659563     -1.05477861297400
  C   -1.24356352935706     -0.23271466149179      0.63158916491664
  H   -2.14257189435788      0.36044764335408      0.79636791783452
  H   -0.89473765565381     -0.58248639137275      1.60994826418799
  H   -1.52279533514338     -1.10940794512872      0.03848758545363
  C   -0.38764938776583      1.96903549115300     -0.28406713171899
  N   -0.57983578765760      3.12039557671738     -0.43959059995911
  N   1.26608173638895     -1.32398388451150     -0.44021891594237
  H   0.78351492013283     -1.85066027685328      0.27042970100131
  H   2.23885992524712     -1.56507804672180     -0.52608188070005
