12
Coordinates from ORCA-job run
  C   -0.29468453005565      0.17661374248108      0.15063288394260
  C   0.62318172678771     -0.65786226896574     -0.40107290098487
  H   0.27876883815741     -1.55193340197134     -0.91554486277241
  C   -1.77828115357904     -0.07101523476068      0.10566337194252
  H   -2.19326504554900     -0.18587025554109      1.11066711180419
  H   -1.99111821350778     -0.98413512990002     -0.45452401894298
  H   -2.30369404536738      0.75680533833880     -0.37765106935712
  C   0.18597408350445      1.34878063066518      0.80648176647032
  N   0.62415733824103      2.30990137923375      1.32889397451742
  N   1.98952561968684     -0.54354255575711     -0.30118048875631
  H   2.52115754565915     -0.95493299294350     -1.04960535682760
  H   2.33727783602227      0.35619074912066     -0.00176041103577
