12
Coordinates from ORCA-job run
  C   -0.30373199493203      0.18170295527922      0.12478864224146
  C   0.64182284934029     -0.57848272741872     -0.48460117090233
  H   0.32891980694800     -1.44982507982020     -1.05515741081706
  C   -1.77927726544561     -0.10300281843225      0.04439086641337
  H   -2.31689447837202      0.71979820218140     -0.43428214448981
  H   -1.95705604727916     -1.00879796781055     -0.53932850883961
  H   -2.21026728800224     -0.24706263917471      1.03854122768355
  C   0.13694224122644      1.31078247738196      0.87717028715202
  N   0.54336620191271      2.22781760114880      1.49561944331391
  N   1.98896240909322     -0.31120057543430     -0.53775107325602
  H   2.33351012441351      0.36661727436129      0.12693194761471
  H   2.59170344109690     -1.10834670226193     -0.65432210611419
