12
Coordinates from ORCA-job run
  C   -0.17375061118861      0.58056306114818     -0.06096698201382
  C   0.99073826563411      0.02666447060774     -0.48189893003657
  H   1.75108276390198      0.64357854976676     -0.95287239296166
  C   -1.27285277882838     -0.24370177924662      0.56239436990241
  H   -0.97843220328895     -0.62944612911529      1.54502551457331
  H   -2.17642808802455      0.34966262024197      0.69978375259069
  H   -1.52649035520661     -1.09627972640746     -0.07593992067769
  C   -0.35195460852502      1.98542465888863     -0.20920562665689
  N   -0.52279408533598      3.14611411849121     -0.31032469940485
  N   1.26890467447497     -1.32013965812726     -0.44255585092721
  H   2.24132679731579     -1.57149333699271     -0.49683604025154
  H   0.74965022907125     -1.86994684925516      0.22339680586384
