13
Coordinates from ORCA-job run
  C   -0.63834001159097     -0.68353263335651      0.22833223496331
  C   0.50672754130620      0.10570053743827     -0.40957611480822
  Br  -0.32100140121359     -1.07022004320703      2.07538279731009
  H   0.20631852924817      0.27028447773374     -1.44909699862671
  H   -0.76073826448594     -1.62235586865041     -0.30951803141281
  N   -1.92189245147200      0.09881743288965      0.01525614242679
  O   -2.50078726022647      0.60693248618675      0.96175232834961
  O   -2.24310749700174      0.16512844618179     -1.16915706719721
  N   1.70566050904778     -0.70981596627230     -0.41191498438336
  H   2.39842928360055     -0.30106840356390     -1.02713483363597
  H   2.10083941906433     -0.75832139569212      0.51984706542814
  C   0.64733545558780      1.42597597250388      0.23676931708016
  N   0.82055614813588      2.47347495780821      0.74005814450618
