13
Coordinates from ORCA-job run
  C   -0.76256232612947     -0.28096948052763     -0.39214250750354
  C   0.75066759664264     -0.19289737189267     -0.13274219567178
  Br  -1.27116488608991     -1.93680448295200     -1.22808836236610
  H   1.03850266255179     -1.09254184611656      0.41845308210194
  H   -1.12977994472788      0.54210618261009     -1.00428832158074
  N   -1.46503214581734     -0.16284385802278      0.93164643256511
  O   -1.05007180820779     -0.87047998561820      1.84370794545726
  O   -2.37795546914001      0.65425253549671      0.99627926646494
  N   1.15770596712394      0.96018795295952      0.63841502985189
  H   0.85394991678292      0.88813094095575      1.59984465069294
  H   0.84254162751844      1.83148828247369      0.23197215096543
  C   1.43899839116187     -0.19100045568299     -1.42992804183958
  N   1.97320041833081     -0.14862841368293     -2.47412912913778
