13
Coordinates from ORCA-job run
  C   -0.85226967367077     -0.20620420998736     -0.39438036867277
  C   0.64284972401588     -0.20074602675534     -0.08545727362723
  Br  -1.39044359727587     -1.75760454991092     -1.39325014412776
  H   0.84711304203198     -1.10001064020569      0.50166810434692
  H   -1.17142232744713      0.68405950046898     -0.93412134341627
  N   -1.58188316902733     -0.18248472840705      0.92277871326833
  O   -2.44665856217430      0.67663710710848      1.04441344898236
  O   -1.24842346069801     -1.01589033184588      1.75434296575561
  N   0.91010279523345      0.96706972573708      0.73631556148622
  H   1.06535359925291      1.78974802075925      0.16691150566915
  H   1.72360655767908      0.82049598940313      1.31886427304676
  C   1.42274965510507     -0.25512903639286     -1.33274479114995
  N   2.07932541697505     -0.21894081997181     -2.30634065156135
