13
Coordinates from ORCA-job run
  C   -0.68206744251072     -0.61782274525846      0.28385124477887
  C   0.50515079393650      0.03591626630707     -0.42625358059215
  Br  -0.34885741571817     -0.90801931555401      2.14574860049526
  H   0.20012546538022      0.14537051045352     -1.47128010787389
  H   -0.89251247395502     -1.57746664255873     -0.18596527543099
  N   -1.90758900224874      0.24784312122214      0.04494177850129
  O   -2.21997871059020      0.30457335086261     -1.14252244877913
  O   -2.45989906242805      0.81149459268107      0.97529150879716
  N   1.64331474244961     -0.86099681069160     -0.38072386786410
  H   2.34280537762693     -0.56367778009101     -1.04973606011701
  H   2.06422709312957     -0.85316061166927      0.54086583552030
  C   0.74951003243835      1.38632825153605      0.11943545283979
  N   1.00377060248972      2.45061781276064      0.54734691972461
