13
Coordinates from ORCA-job run
  C   -0.67604649379956     -0.65662471417594      0.19634370808442
  C   0.52358615513803      0.08832519005198     -0.39233475052127
  Br  -0.43389188450330     -1.08942781019062      2.04485091684285
  H   0.26350407998131      0.28419073638454     -1.43728367253450
  H   -0.82559678073792     -1.57960195507554     -0.36170688796843
  N   -1.91455507525196      0.18895942202411     -0.04042284753466
  O   -2.19570086526785      0.29040820415550     -1.23256072887099
  O   -2.49789366567758      0.70758943976241      0.89756159242124
  N   1.68302606779197     -0.78195022546743     -0.37256134637504
  H   2.41214073183597     -0.39777750521731     -0.96089691772998
  H   2.04732735538179     -0.86284540186957      0.56943118239595
  C   0.70479316173264      1.39003103412242      0.28114834768927
  N   0.91030721337649      2.41972358549544      0.80843140410115
