13
Coordinates from ORCA-job run
  C   -0.80554088496949     -0.60628519865979     -0.29557375718457
  C   0.64862852625380     -0.13216976097689     -0.44333040099151
  Br  -0.86064815833512     -2.44581223080381      0.26160539099039
  H   1.15143679540059     -0.88919037413670     -1.06463830506343
  H   -1.35481370731408     -0.51997528386571     -1.23140959823200
  N   -1.50763370095708      0.30175719016480      0.69299428016935
  O   -1.68539499477746     -0.06968362288116      1.83987756400401
  O   -1.80112388392289      1.39041801979585      0.20814474717703
  N   1.22573753055942      0.06300818875066      0.87557190680993
  H   1.31135733740958     -0.82755853970753      1.35154595511114
  H   2.14515763149082      0.47943832304790      0.80037067774761
  C   0.70569769151800      1.13135099057349     -1.19057105546102
  N   0.82813981764390      2.12370229869889     -1.80558740507693
