13
Coordinates from ORCA-job run
  C   -0.91079705341268     -0.02229577796786     -0.30730060139494
  C   0.59961444646576     -0.23027552010777     -0.22355377600820
  Br  -1.74561670034677     -1.20885771315289     -1.56779517764645
  H   0.75992884420709     -1.26691006115833      0.08412005980156
  H   -1.17840807644321      1.00183801421740     -0.56310074910881
  N   -1.47511109843122     -0.27331247599052      1.06591729823050
  O   -2.20497529136480      0.60145386798884      1.51643037271953
  O   -1.15391834458346     -1.31980755048583      1.61241653798856
  N   1.10104815814198      0.65048105991373      0.81716525853683
  H   1.28493084370078      1.57837393270664      0.45619274053733
  H   1.95563482645430      0.28632997912396      1.21647127074867
  C   1.21537204118584     -0.01939975975919     -1.54398833758884
  N   1.75229740442638      0.22138200467183     -2.56097489681575
