19

C	-0.467482	-0.001064	-1.46814
C	0.0	0.0	0.0
Cl	0.168831	1.503301	-2.262059
H	1.096593	0.0	0.0
C	0.164516	-1.180678	-2.192051
H	-0.038377	-1.125627	-3.264993
H	1.243188	-1.168358	-2.012677
H	-0.250722	-2.115407	-1.802683
C	-1.979947	0.035397	-1.627911
H	-2.399145	0.943791	-1.189744
H	-2.424628	-0.834113	-1.133714
H	-2.246906	0.015008	-2.688289
C	-0.453335	-1.235946	0.623207
N	-0.839349	-2.22664	1.128273
C	-0.44964	1.191598	0.846412
H	-0.141016	2.118332	0.361385
H	0.06152	1.138468	1.810657
H	-1.529247	1.21377	1.022023
H	2.791903	0.0	0.0
