19

C	-0.294632	0.025342	-1.497876
C	0.0	0.0	0.0
Cl	-2.107469	0.073185	-1.822481
H	1.098995	0.0	0.0
C	0.32465	1.26308	-2.122577
H	0.235296	1.221319	-3.211227
H	1.382854	1.276133	-1.832348
H	-0.159848	2.17657	-1.77465
C	0.263041	-1.229476	-2.144128
H	1.330857	-1.270845	-1.895642
H	-0.228096	-2.124495	-1.757852
H	0.131329	-1.194789	-3.228879
C	-0.484683	-1.220415	0.624245
N	-0.868968	-2.196555	1.156526
C	-0.44986	1.225721	0.790815
H	-1.518791	1.423437	0.672209
H	0.123441	2.098093	0.471702
H	-0.234323	1.069366	1.850487
H	2.763675	0.0	0.0
