19

C	-0.447403	-0.034801	-1.477071
C	0.0	0.0	0.0
Cl	0.006366	1.54408	-2.247116
H	1.096514	0.0	0.0
C	0.3377	-1.118943	-2.197475
H	1.402957	-0.972149	-2.001697
H	0.137382	-1.089888	-3.272228
H	0.04441	-2.098463	-1.809616
C	-1.949029	-0.189873	-1.660644
H	-2.493209	0.625582	-1.180383
H	-2.198668	-0.187081	-2.725152
H	-2.275663	-1.137713	-1.224052
C	-0.438028	-1.24091	0.626783
N	-0.806366	-2.236848	1.134237
C	-0.465406	1.191911	0.834399
H	-1.555437	1.272789	0.901043
H	-0.061117	1.084726	1.844406
H	-0.057853	2.110799	0.411793
H	2.808259	0.0	0.0
