19

C	-0.450968	0.072364	-1.469517
C	0.0	0.0	0.0
Cl	0.055144	-1.476842	-2.267515
H	1.096299	0.0	0.0
C	-1.95689	0.175437	-1.648562
H	-2.211901	0.160172	-2.71167
H	-2.462768	-0.659018	-1.158441
H	-2.323562	1.112227	-1.21865
C	0.298433	1.194128	-2.174764
H	0.13641	1.136767	-3.254451
H	-0.065272	2.164491	-1.825421
H	1.364885	1.106765	-1.948651
C	-0.535259	-1.177908	0.663429
N	-1.000919	-2.097574	1.230823
C	-0.361653	1.247632	0.816458
H	0.155949	2.115276	0.407014
H	-1.435599	1.445234	0.869761
H	0.013782	1.109837	1.833521
H	2.793133	0.0	0.0
