19

C	-0.465666	-0.011063	-1.46807
C	0.0	0.0	0.0
Cl	0.109831	1.523164	-2.252718
H	1.096703	0.0	0.0
C	0.216096	-1.158389	-2.195332
H	-0.158334	-2.109953	-1.807282
H	0.009747	-1.107962	-3.267325
H	1.290819	-1.102755	-2.013485
C	-1.976968	-0.036457	-1.63187
H	-2.43385	0.843627	-1.175189
H	-2.384034	-0.932758	-1.156036
H	-2.241756	-0.047863	-2.692745
C	-0.448137	-1.23882	0.623361
N	-0.829527	-2.231309	1.127471
C	-0.447986	1.191559	0.847308
H	-0.120372	2.117437	0.373763
H	0.050125	1.122592	1.816366
H	-1.528616	1.226417	1.008271
H	2.80111	0.0	0.0
