17

C	-0.619128	0.002046	-1.398165
C	0.0	0.0	0.0
Cl	0.010175	1.315533	-2.401216
H	1.092769	0.0	0.0
N	-0.197864	-1.290912	-2.162114
O	-0.898487	-1.589713	-3.127572
O	0.774244	-1.919718	-1.768097
N	-2.029917	0.068725	-1.307314
H	-2.306447	-0.684513	-0.682748
H	-2.440459	-0.063573	-2.223268
N	-0.534232	-1.219033	0.664075
H	-0.484533	-1.040775	1.660975
H	0.124394	-1.970418	0.476981
N	-0.412075	1.214873	0.651919
H	-1.377607	1.174636	0.94789
H	0.207337	1.415445	1.424438
Cl	3.460207	0.0	0.0
