17

C	-0.542338	0.006197	-1.435791
C	0.0	0.0	0.0
Cl	0.152303	1.337717	-2.385867
H	1.093187	0.0	0.0
N	-0.084615	-1.276844	-2.183715
O	0.877509	-1.89466	-1.750151
O	-0.744327	-1.578396	-3.178883
N	-1.954694	0.091268	-1.431726
H	-2.311574	-0.058564	-2.36747
H	-2.271568	-0.648035	-0.808445
N	-0.574273	-1.202776	0.626416
H	-0.67893	-0.965562	1.605666
H	0.119192	-1.940764	0.563062
N	-0.450893	1.170676	0.725544
H	0.261384	1.88595	0.658179
H	-1.313924	1.520658	0.325129
Cl	3.471262	0.0	0.0
