17

C	-0.429894	0.013187	-1.469143
C	0.0	0.0	0.0
Cl	-2.300838	0.286829	-1.557725
H	1.098809	0.0	0.0
N	0.081292	1.207591	-2.267408
O	0.05433	1.089264	-3.487565
O	0.45399	2.203381	-1.658226
N	-0.008492	-1.127883	-2.108529
H	-0.139312	-1.93482	-1.514772
H	-0.315097	-1.218615	-3.063378
N	-0.424643	-1.283942	0.537066
H	-1.332767	-1.156745	0.971922
H	0.246438	-1.580081	1.23506
N	-0.564161	1.09635	0.781294
H	-0.089247	1.056036	1.678577
H	-0.26721	1.965831	0.351683
Cl	3.398104	0.0	0.0
