17

C	-0.568817	-0.001095	-1.420115
C	0.0	0.0	0.0
Cl	0.096412	1.308584	-2.403677
H	1.092784	0.0	0.0
N	-0.112876	-1.298453	-2.156068
O	-0.791274	-1.623691	-3.1303
O	0.865172	-1.901185	-1.736497
N	-1.982479	0.062285	-1.389917
H	-2.348866	-0.055072	-2.326518
H	-2.283343	-0.708216	-0.798992
N	-0.542131	-1.228555	0.637451
H	0.156998	-1.957199	0.526325
H	-0.605201	-1.03717	1.630753
N	-0.43943	1.21195	0.635771
H	0.109447	1.385302	1.466612
H	-1.429775	1.185645	0.841602
Cl	3.483443	0.0	0.0
