17

C	-0.551796	-0.007379	-1.425987
C	0.0	0.0	0.0
Cl	0.235467	1.350413	-2.382778
H	1.0935	0.0	0.0
N	-0.112854	-1.257707	-2.173535
O	-0.909439	-1.700296	-3.001765
O	1.000325	-1.692377	-1.937449
N	-1.950736	0.045319	-1.419001
H	-2.229653	0.858874	-0.884934
H	-2.33184	0.036563	-2.354384
N	-0.463714	-1.213064	0.622302
H	0.153517	-1.475052	1.378353
H	-1.420908	-1.120032	0.936453
N	-0.543945	1.217259	0.644844
H	0.043344	1.997254	0.361405
H	-0.380268	1.098953	1.639128
Cl	3.471347	0.0	0.0
