17

C	-0.640893	0.001824	-1.405672
C	0.0	0.0	0.0
Cl	0.183794	1.190131	-2.413908
H	1.095013	0.0	0.0
N	-0.429118	-1.384048	-2.017434
O	0.67975	-1.658406	-2.454254
O	-1.382251	-2.161785	-1.937995
N	-2.047358	0.267649	-1.421132
H	-2.137549	1.1674	-0.958894
H	-2.48408	-0.433103	-0.830313
N	-0.548136	-1.142813	0.749972
H	-0.08059	-1.115232	1.651958
H	-0.232476	-2.009399	0.324138
N	-0.43235	1.234375	0.645705
H	0.374334	1.687958	1.053866
H	-1.101515	1.011869	1.371399
Cl	3.418073	0.0	0.0
