18

C	-0.313431	0.105972	-1.492791
C	0.0	0.0	0.0
F	-1.628581	0.569675	-1.695496
H	1.098785	0.0	0.0
N	0.586955	1.033081	-2.095337
H	1.522313	0.912608	-1.707177
H	0.61914	0.924907	-3.100437
C	-0.312424	-1.223864	-2.164856
N	-0.299618	-2.262661	-2.713035
C	-0.553795	-1.255528	0.652799
H	-0.09714	-2.159257	0.245034
H	-1.639773	-1.321348	0.523111
H	-0.339152	-1.231905	1.723993
C	-0.474606	1.265543	0.709007
H	-1.56553	1.290731	0.788499
H	-0.047025	1.289634	1.714772
H	-0.142896	2.157559	0.176512
Cl	3.439113	0.0	0.0
