18

C	-0.313291	0.112508	-1.49259
C	0.0	0.0	0.0
F	-1.628737	0.576452	-1.693212
H	1.09876	0.0	0.0
N	0.58663	1.042715	-2.091561
H	0.619186	0.939709	-3.097414
H	1.522152	0.921644	-1.703384
C	-0.313674	-1.214366	-2.169529
N	-0.313745	-2.254645	-2.715132
C	-0.553193	-1.258264	0.648302
H	-0.336949	-1.238926	1.719453
H	-1.639537	-1.323656	0.519838
H	-0.097	-2.160339	0.236259
C	-0.47497	1.262478	0.714346
H	-1.565766	1.287005	0.794023
H	-0.047392	1.282302	1.720009
H	-0.14365	2.156885	0.185764
Cl	3.438225	0.0	0.0
