18

C	-0.463482	0.001079	-1.450277
C	0.0	0.0	0.0
F	0.024348	-1.117515	-2.106596
H	1.096638	0.0	0.0
N	-1.902233	-0.064024	-1.556237
H	-2.192617	0.140782	-2.504505
H	-2.323089	0.614982	-0.936625
C	0.071674	1.174617	-2.19837
N	0.355424	2.13802	-2.807874
C	-0.468902	-1.266422	0.709816
H	0.000531	-1.30951	1.695832
H	-0.158105	-2.151827	0.154346
H	-1.555858	-1.294423	0.831202
C	-0.443133	1.261748	0.738539
H	-1.525076	1.289671	0.92162
H	0.053926	1.288113	1.710682
H	-0.149501	2.169352	0.20445
Cl	3.472339	0.0	0.0
