18

C	-0.331975	-3.9e-05	-1.500952
C	0.0	0.0	0.0
F	-0.45734	1.345705	-1.937039
H	1.096079	0.0	0.0
N	0.659039	-0.657814	-2.243517
H	1.558335	-0.740056	-1.781559
H	0.390954	-1.414969	-2.842487
C	-1.669188	-0.579626	-1.78026
N	-2.732653	-1.036185	-1.981452
C	-0.415947	-1.326821	0.633438
H	-0.065877	-2.174435	0.038247
H	-1.502268	-1.404277	0.746861
H	0.045589	-1.41101	1.620187
C	-0.56707	1.18925	0.753682
H	-1.661737	1.212191	0.69764
H	-0.179019	2.126166	0.356769
H	-0.280655	1.120193	1.806705
Cl	3.464614	0.0	0.0
