17

C	-0.317397	0.081999	-1.508986
C	0.0	0.0	0.0
Br	-2.281052	0.097282	-1.786642
H	1.108321	0.0	0.0
C	0.262153	1.370201	-2.068874
H	-0.193513	2.248045	-1.607914
H	1.337114	1.372303	-1.859384
H	0.098225	1.416807	-3.147563
C	0.262575	-1.13859	-2.204953
H	-0.194521	-2.060893	-1.842115
H	0.09964	-1.067796	-3.282604
H	1.337916	-1.164442	-1.995859
C	-0.481382	-1.233499	0.613549
N	-0.865734	-2.236403	1.089565
C	-0.478758	1.161759	0.742851
N	-0.858505	2.109691	1.32333
Cl	3.207999	0.0	0.0
