17

C	-0.458727	0.066969	-1.482899
C	0.0	0.0	0.0
Br	0.11699	1.814846	-2.181645
H	1.107749	0.0	0.0
C	0.27186	-1.012003	-2.267716
H	0.043715	-0.92258	-3.332083
H	1.34908	-0.921937	-2.110774
H	-0.054454	-1.99837	-1.922022
C	-1.969399	-0.012854	-1.628789
H	-2.249617	0.075501	-2.680875
H	-2.32229	-0.978313	-1.252283
H	-2.4623	0.785897	-1.070448
C	-0.447158	-1.26984	0.57899
N	-0.829287	-2.297513	1.00241
C	-0.523665	1.100947	0.804878
N	-0.980272	1.973624	1.445415
Cl	3.210734	0.0	0.0
