17

C	-0.314019	-0.13424	-1.506861
C	0.0	0.0	0.0
Br	-2.278004	-0.160298	-1.787343
H	1.108169	0.0	0.0
C	0.264257	1.062671	-2.24345
H	1.339484	1.097075	-2.036317
H	-0.193468	1.997018	-1.912075
H	0.100482	0.954547	-3.318028
C	0.266862	-1.441726	-2.021154
H	-0.18933	-2.304507	-1.531964
H	1.342015	-1.436091	-1.809731
H	0.10387	-1.524793	-3.097702
C	-0.481502	-1.136034	0.77962
N	-0.869344	-2.065186	1.384982
C	-0.484888	1.253599	0.569159
N	-0.875245	2.273339	1.001425
Cl	3.211429	0.0	0.0
