15

C	0.0	0.0	0.0
C	-0.382638	-0.153415	-1.50557
F	1.395169	0.0	0.0
H	0.553926	-0.490795	-1.959287
N	-0.489056	1.193671	0.58089
H	-0.314825	1.189458	1.579927
H	-1.503614	1.224425	0.436704
C	-0.338989	-1.243844	0.746019
N	-0.50658	-2.174321	1.443367
C	-0.660537	1.171214	-2.108125
N	-0.85743	2.16817	-2.69723
N	-1.37004	-1.183672	-1.743502
H	-1.510513	-1.281623	-2.742307
H	-2.258579	-0.907227	-1.311983
Cl	-3.668741	0.0	0.0
