15

C	0.0	0.0	0.0
C	-0.642722	-0.225984	-1.368445
F	1.412419	0.0	0.0
H	-1.711223	-0.385897	-1.109559
N	-0.482824	1.202472	0.525862
H	-0.511061	1.911459	-0.193618
H	0.014078	1.486346	1.354747
C	-0.312125	-1.14313	0.896597
N	-0.439206	-2.062016	1.615532
C	-0.08342	-1.411574	-2.024396
N	0.378135	-2.316661	-2.614673
N	-0.547631	0.979268	-2.183663
H	0.209706	0.915772	-2.851621
H	-1.422987	1.112515	-2.674163
Cl	-3.7106	0.0	0.0
