15

C	0.0	0.0	0.0
C	-0.317402	-0.217207	-1.523033
F	1.400261	0.0	0.0
H	0.460936	-0.911209	-1.856816
N	-0.558661	1.142348	0.600477
H	-1.038541	1.724737	-0.071798
H	-1.220484	0.908819	1.329811
C	-0.360272	-1.248371	0.710154
N	-0.586348	-2.276722	1.231163
C	-0.055005	1.059912	-2.20909
N	0.173797	2.080879	-2.740316
N	-1.596441	-0.745922	-1.906902
H	-1.643443	-1.71788	-1.626268
H	-2.372678	-0.285606	-1.417071
Cl	-3.977345	0.0	0.0
