19

C	-0.389266	0.065834	-1.489514
C	0.0	0.0	0.0
Br	0.108745	-1.657481	-2.33655
H	1.090891	0.0	0.0
C	-1.86236	0.277712	-1.806708
H	-2.004049	0.346969	-2.888382
H	-2.21436	1.215234	-1.361452
H	-2.473371	-0.535263	-1.416199
C	0.522498	1.126764	-2.099752
H	0.192819	2.115339	-1.762218
H	1.537763	0.94115	-1.730416
H	0.480961	1.102648	-3.191494
N	-0.620129	-1.193888	0.656513
O	0.088679	-2.153745	0.945091
O	-1.836679	-1.137202	0.87693
N	-0.388239	1.158281	0.764566
H	-1.21458	1.632769	0.431588
H	0.406576	1.782764	0.798656
F	2.628037	0.0	0.0
