19

C	-0.460773	0.038182	-1.458718
C	0.0	0.0	0.0
Br	0.207172	-1.542812	-2.454494
H	1.100308	0.0	0.0
C	-1.965461	0.111914	-1.648031
H	-2.337138	0.984168	-1.099656
H	-2.452533	-0.789232	-1.274127
H	-2.217462	0.233605	-2.704765
C	0.276211	1.223293	-2.080823
H	0.158259	1.222963	-3.16719
H	1.33152	1.137621	-1.808618
H	-0.123373	2.148856	-1.6639
N	-0.496241	-1.154806	0.805664
O	-0.351706	-1.06763	2.030031
O	-1.005445	-2.133799	0.253271
N	-0.356854	1.242059	0.662717
H	0.431436	1.490653	1.248391
H	-1.160953	1.121531	1.265351
F	2.564858	0.0	0.0
