19

C	-0.229154	0.046649	-1.506347
C	0.0	0.0	0.0
Br	-2.191343	0.021357	-1.934897
H	1.097443	0.0	0.0
C	0.357272	1.367909	-1.982704
H	-0.162415	2.213967	-1.539077
H	1.395193	1.359253	-1.629525
H	0.321635	1.430528	-3.073294
C	0.454053	-1.097515	-2.23599
H	0.448154	-0.902933	-3.31186
H	-0.011044	-2.061298	-2.043851
H	1.479352	-1.109473	-1.849482
N	-0.487232	-1.296519	0.605406
O	0.056708	-2.345102	0.26295
O	-1.396021	-1.242096	1.442666
N	-0.519308	1.134771	0.68733
H	-1.496718	0.99412	0.91217
H	-0.003466	1.24794	1.550557
F	2.61038	0.0	0.0
