19

C	-0.22373	-0.009352	-1.508
C	0.0	0.0	0.0
Br	-2.185874	-0.025016	-1.941387
H	1.094076	0.0	0.0
C	0.383449	1.284841	-2.030603
H	1.420357	1.273449	-1.673051
H	0.352297	1.30832	-3.12298
H	-0.124046	2.154204	-1.619246
C	0.445319	-1.189965	-2.191647
H	0.445361	-1.035909	-3.273991
H	-0.033029	-2.139572	-1.965104
H	1.470089	-1.200556	-1.802929
N	-0.493897	-1.269946	0.654823
O	0.038016	-2.334853	0.348007
O	-1.39789	-1.176677	1.4931
N	-0.514423	1.162479	0.641773
H	-1.49224	1.035092	0.876177
H	0.006772	1.312899	1.496086
F	2.61123	0.0	0.0
