19

C	-0.524657	0.053794	-1.443325
C	0.0	0.0	0.0
Br	-0.000863	-1.575153	-2.440936
H	1.093013	0.0	0.0
C	-2.037499	0.152726	-1.541945
H	-2.347974	0.252255	-2.58507
H	-2.370952	1.034238	-0.986571
H	-2.518735	-0.731178	-1.119065
C	0.207918	1.214317	-2.103108
H	0.0357	1.222614	-3.182147
H	1.272804	1.109368	-1.87777
H	-0.154553	2.145343	-1.662854
N	-0.515272	-1.241136	0.691463
O	0.118731	-2.284249	0.577155
O	-1.572972	-1.150226	1.336906
N	-0.428907	1.182147	0.707612
H	0.31153	1.410002	1.360147
H	-1.278186	0.990378	1.22502
F	2.597972	0.0	0.0
