19

C	-0.194267	0.010384	-1.519953
C	0.0	0.0	0.0
Br	-2.132187	0.161682	-2.02092
H	1.093227	0.0	0.0
C	0.533105	1.242367	-2.040345
H	1.556824	1.153702	-1.648443
H	0.078714	2.165719	-1.674251
H	0.528605	1.257836	-3.134933
C	0.383645	-1.232251	-2.173791
H	0.380976	-1.118975	-3.262127
H	-0.161219	-2.137245	-1.908911
H	1.409412	-1.305806	-1.794344
N	-0.576026	-1.247308	0.591366
O	-1.670259	-1.170286	1.151103
O	0.059562	-2.29614	0.464597
N	-0.47219	1.126407	0.737281
H	0.26153	1.821418	0.764973
H	-1.332228	1.511732	0.36471
F	2.625555	0.0	0.0
