19

C	-0.497155	0.005232	-1.452303
C	0.0	0.0	0.0
Br	0.024177	-1.687404	-2.335615
H	1.090975	0.0	0.0
C	-2.004356	0.119217	-1.607949
H	-2.523387	-0.721094	-1.143722
H	-2.272082	0.153384	-2.666723
H	-2.338026	1.045229	-1.131839
C	0.273152	1.127848	-2.135067
H	1.331561	1.00601	-1.893471
H	0.108629	1.115805	-3.214369
H	-0.072761	2.077319	-1.720564
N	-0.488434	-1.238919	0.721293
O	0.262615	-2.20223	0.819252
O	-1.636109	-1.207981	1.196657
N	-0.479847	1.18478	0.666741
H	0.19491	1.421723	1.384534
H	-1.378899	1.002755	1.096922
F	2.611597	0.0	0.0
