19

C	-0.344031	-0.054297	-1.521023
C	0.0	0.0	0.0
Br	-0.027993	1.78319	-2.2173
H	1.090354	0.0	0.0
C	0.672783	-0.948477	-2.219691
H	0.626439	-0.82378	-3.304576
H	0.458625	-1.991544	-1.970026
H	1.660932	-0.698537	-1.816629
C	-1.789886	-0.392053	-1.8451
H	-2.003755	-1.418896	-1.531918
H	-2.488784	0.272076	-1.329442
H	-1.967615	-0.31228	-2.920173
N	-0.537694	-1.290366	0.557884
O	-1.650762	-1.267269	1.093436
O	0.129845	-2.316178	0.408232
N	-0.508431	1.068477	0.797694
H	-1.398282	1.423636	0.475702
H	0.180182	1.806874	0.782147
F	2.631793	0.0	0.0
