19

C	-0.496502	0.071473	-1.455253
C	0.0	0.0	0.0
Br	-0.034199	-1.586476	-2.433259
H	1.091096	0.0	0.0
C	-2.000239	0.249052	-1.582342
H	-2.293651	1.148014	-1.032118
H	-2.536159	-0.608419	-1.168036
H	-2.284706	0.364498	-2.631245
C	0.312247	1.19239	-2.098703
H	0.172045	1.20566	-3.181604
H	1.362304	1.036641	-1.838624
H	-0.018227	2.142706	-1.672341
N	-0.536763	-1.224458	0.691616
O	0.095972	-2.271833	0.60768
O	-1.611019	-1.117052	1.305437
N	-0.421467	1.196301	0.693238
H	-1.261477	1.015651	1.229971
H	0.336236	1.449732	1.317979
F	2.609808	0.0	0.0
