18

C	-0.431202	-0.088372	-1.474897
C	0.0	0.0	0.0
Cl	-2.186984	-0.347543	-1.632058
H	1.095434	0.0	0.0
N	-0.088788	1.268069	-2.103157
O	1.108117	1.441327	-2.304161
O	-0.982412	2.083902	-2.307832
C	0.331187	-1.162206	-2.221414
H	0.039256	-2.138734	-1.832367
H	0.097075	-1.121081	-3.287603
H	1.400784	-1.010181	-2.05766
C	-0.431155	-1.219878	0.677658
N	-0.789403	-2.187421	1.239662
C	-0.49746	1.243275	0.734212
H	-0.164392	1.194369	1.772226
H	-1.586143	1.323342	0.70755
H	-0.055385	2.136387	0.28981
Br	3.498272	0.0	0.0
