18

C	-0.505508	-0.006615	-1.451736
C	0.0	0.0	0.0
Cl	0.269792	1.320342	-2.352011
H	1.093271	0.0	0.0
N	-0.015671	-1.298669	-2.129868
O	1.094363	-1.699182	-1.813224
O	-0.765768	-1.814163	-2.958989
C	-2.004796	0.082272	-1.611719
H	-2.26761	0.045319	-2.666674
H	-2.481416	-0.758243	-1.102365
H	-2.36075	1.020617	-1.187359
C	-0.469218	-1.229976	0.63758
N	-0.89692	-2.196151	1.152373
C	-0.471292	1.215915	0.799749
H	-1.553868	1.224597	0.9471
H	0.014104	1.189619	1.776541
H	-0.159994	2.132636	0.298042
Br	3.497992	0.0	0.0
