18

C	-0.479898	-0.005168	-1.463761
C	0.0	0.0	0.0
Cl	0.28458	1.349846	-2.342263
H	1.09323	0.0	0.0
N	0.049251	-1.290062	-2.132151
O	1.201328	-1.604769	-1.88426
O	-0.7114	-1.868105	-2.907245
C	-1.974739	0.043202	-1.661788
H	-2.208098	-0.002333	-2.723663
H	-2.442875	-0.809154	-1.165192
H	-2.361763	0.973589	-1.248487
C	-0.460178	-1.242649	0.620759
N	-0.85425	-2.230174	1.121893
C	-0.497869	1.203892	0.797345
H	-0.185992	2.127711	0.30991
H	-0.033077	1.173489	1.783912
H	-1.583845	1.200385	0.921677
Br	3.3103	0.0	0.0
