18

C	-0.530422	-0.029191	-1.435758
C	0.0	0.0	0.0
Cl	0.20828	1.294297	-2.368335
H	1.095843	0.0	0.0
N	-0.079828	-1.323107	-2.134102
O	0.708845	-2.048968	-1.543452
O	-0.556319	-1.526932	-3.247796
C	-2.037649	0.043687	-1.558974
H	-2.491633	-0.792133	-1.020421
H	-2.394497	0.981791	-1.134795
H	-2.322747	-0.005095	-2.607881
C	-0.513807	-1.159996	0.725317
N	-1.004263	-2.037406	1.333947
C	-0.408742	1.271707	0.757258
H	-0.062546	2.153463	0.218023
H	-1.486392	1.337607	0.925515
H	0.095277	1.258493	1.725173
Br	3.465507	0.0	0.0
