18

C	-0.41727	0.124423	-1.475234
C	0.0	0.0	0.0
Cl	-2.163153	-0.180881	-1.698516
H	1.105105	0.0	0.0
N	-0.160489	1.579073	-1.886261
O	0.950702	1.814033	-2.34713
O	-1.040286	2.407622	-1.67694
C	0.391424	-0.797262	-2.35664
H	0.145834	-1.827905	-2.10143
H	1.452641	-0.625323	-2.168058
H	0.156773	-0.625983	-3.409404
C	-0.420202	-1.310846	0.487675
N	-0.761987	-2.351738	0.912804
C	-0.502829	1.105525	0.926507
H	-0.030584	2.052349	0.666254
H	-0.209576	0.860248	1.948657
H	-1.587506	1.21444	0.875331
Br	3.455194	0.0	0.0
