18

C	-0.559986	0.060115	-1.430119
C	0.0	0.0	0.0
Cl	0.194803	1.402403	-2.309788
H	1.09351	0.0	0.0
N	-0.147115	-1.239231	-2.138406
O	0.990179	-1.326593	-2.57157
O	-1.004791	-2.122779	-2.161971
C	-2.067029	0.196321	-1.501713
H	-2.547848	-0.586243	-0.914829
H	-2.354627	1.17489	-1.11843
H	-2.401105	0.115872	-2.536656
C	-0.47331	-1.218266	0.654598
N	-0.889406	-2.162017	1.218628
C	-0.407167	1.213405	0.847504
H	-1.480081	1.245521	1.050213
H	-0.094864	2.131648	0.349008
H	0.129129	1.15319	1.79579
Br	3.450384	0.0	0.0
