17

C	-0.433546	-0.000129	-1.447765
C	0.0	0.0	0.0
F	-1.840189	0.000832	-1.56743
H	1.097264	0.0	0.0
C	0.034665	1.197174	-2.174164
N	0.385441	2.135487	-2.786452
C	0.03306	-1.19844	-2.173637
N	0.382428	-2.137569	-2.785663
C	-0.466782	-1.26372	0.708989
H	-0.064164	-1.253669	1.725158
H	-0.073999	-2.160323	0.222254
H	-1.558271	-1.335792	0.763014
C	-0.466653	1.263833	0.708903
H	-1.558137	1.335616	0.763645
H	-0.063308	1.254192	1.724785
H	-0.074507	2.160433	0.221644
H	2.808257	0.0	0.0
