17

C	-0.432908	-5e-06	-1.447764
C	0.0	0.0	0.0
F	-1.839924	-1.3e-05	-1.567888
H	1.097261	0.0	0.0
C	0.034401	1.198225	-2.172946
N	0.38531	2.137971	-2.78326
C	0.034411	-1.198234	-2.172942
N	0.385286	-2.137978	-2.783278
C	-0.466582	-1.264466	0.707983
H	-1.558106	-1.341402	0.754775
H	-0.066164	-2.159773	0.224871
H	-0.071123	-1.251155	1.727038
C	-0.466587	1.264465	0.70798
H	-1.558111	1.341391	0.754783
H	-0.066183	2.159774	0.224859
H	-0.071118	1.251164	1.727031
H	2.808193	0.0	0.0
