17

C	-0.442318	-0.016659	-1.453061
C	0.0	0.0	0.0
F	0.004462	1.114713	-2.121109
H	1.097095	0.0	0.0
C	0.060041	-1.197459	-2.188975
N	0.442893	-2.116972	-2.810645
C	-1.922889	-0.017064	-1.558856
N	-3.097735	-0.028287	-1.590095
C	-0.457252	-1.261479	0.719385
H	-0.065445	-2.159296	0.233216
H	-1.548782	-1.34001	0.793581
H	-0.043551	-1.243143	1.731416
C	-0.483318	1.265611	0.690481
H	-1.57063	1.282221	0.839428
H	-0.185329	2.152347	0.127656
H	0.00347	1.325078	1.668793
H	2.826967	0.0	0.0
