19

C	0.0	0.0	0.0
C	-0.27571	0.103878	-1.540715
Cl	1.797234	0.0	0.0
H	0.453776	-0.604191	-1.935539
N	-0.412959	1.205401	0.846294
O	-0.438351	1.017527	2.055823
O	-0.606402	2.277087	0.289422
C	-0.506687	-1.259422	0.649957
H	-0.178815	-2.121394	0.073088
H	-1.600009	-1.208042	0.656925
H	-0.12219	-1.318448	1.666264
C	-0.070594	1.445298	-2.222391
H	0.054695	1.26942	-3.293066
H	0.817565	1.942595	-1.838687
H	-0.934112	2.083574	-2.074164
N	-1.545183	-0.541413	-2.089824
O	-2.285668	0.140532	-2.781246
O	-1.627407	-1.756149	-1.930304
Cl	-3.642025	0.0	0.0
