19

C	0.0	0.0	0.0
C	-0.309592	0.198334	-1.53088
Cl	1.773391	0.0	0.0
H	0.476321	-0.397845	-1.99636
N	-0.42962	1.148668	0.920868
O	-0.296138	2.293093	0.506784
O	-0.799487	0.840537	2.044904
C	-0.48054	-1.308934	0.575377
H	-1.572189	-1.285314	0.597712
H	-0.080222	-1.425062	1.581471
H	-0.135298	-2.123128	-0.057566
C	-0.236091	1.603821	-2.096425
H	-1.109616	2.181041	-1.808876
H	0.662108	2.10658	-1.746049
H	-0.206411	1.53248	-3.184723
N	-1.520926	-0.517878	-2.131323
O	-1.530373	-1.739175	-2.010344
O	-2.275174	0.130802	-2.840027
Cl	-3.546429	0.0	0.0
