19

C	0.0	0.0	0.0
C	-0.400571	0.087572	-1.486743
Cl	1.777013	0.0	0.0
H	0.023572	1.006971	-1.881045
N	-0.364771	1.349162	0.654872
O	-0.405399	1.357458	1.877762
O	-0.526058	2.320009	-0.075185
C	-0.62114	-1.105217	0.807798
H	-1.703425	-0.9389	0.853569
H	-0.421875	-2.057852	0.321947
H	-0.212565	-1.103545	1.815942
C	-1.877671	-0.020217	-1.782311
H	-2.024098	0.038931	-2.865011
H	-2.45026	0.768178	-1.298731
H	-2.30094	-0.957224	-1.427943
N	0.30862	-0.985297	-2.266584
O	0.125435	-2.159087	-1.951763
O	0.991751	-0.612239	-3.219674
Cl	-4.599422	0.0	0.0
