15
Coordinates from ORCA-job run
  C   0.45644192034076     -0.21243758546427     -0.16589128438120
  C   -0.94867226201345     -0.18750200843643      0.42935576452318
  Br  0.67382149048377     -1.99640347245125     -1.08242401505479
  H   -1.03893840381733      0.66503477434709      1.10630402964412
  H   -1.17098211645619     -1.12150008722071      0.93927052464143
  C   1.46916817360584     -0.21531069615773      0.97310806405928
  H   2.47693765134248     -0.33612866407264      0.57116786887422
  H   1.28836553502238     -1.02917369169415      1.67753198744727
  H   1.41094744985231      0.74363666891877      1.49795888925154
  N   0.63948605626631      0.82375263797352     -1.10963752357116
  H   1.59248185064055      1.14303432510424     -1.18502111709211
  H   -0.03072597777935      1.57600515726992     -1.06364788996239
  N   -2.00822497365306     -0.00415088961107     -0.60417419042895
  O   -2.18388066549144      1.14673772875988     -1.00976687296558
  O   -2.62622572834356     -0.99659419726517     -0.97313423498485
