15
Coordinates from ORCA-job run
  C   0.45652388118589     -0.02160071987674     -0.12642158752048
  C   -0.94957713222363     -0.19893975755227      0.43022531625821
  Br  0.59391212063724     -1.35054533157731     -1.67681339597307
  H   -1.08427278441805     -1.19746948791483      0.83861776166323
  H   -1.11883674675016      0.56389270197182      1.19571868729177
  C   1.47170413875292     -0.49031593201615      0.90179763898259
  H   1.39302240881478      0.14376323959401      1.78934652031264
  H   1.30905795673514     -1.53276014578620      1.17459235607345
  H   2.48169539606229     -0.39841771383139      0.49786825269584
  N   0.71286312094394      1.30803921271788     -0.50709949858635
  H   1.64604330615238      1.42006530227992     -0.88069203397238
  H   0.02334578544473      1.66232723274984     -1.15699622282028
  N   -2.03403518362672     -0.02012550363001     -0.57973543340917
  O   -2.89958873215547     -0.88646775229210     -0.63093661723740
  O   -2.00185753555528      0.99955465516354     -1.26747174375860
