15
Coordinates from ORCA-job run
  C   0.52999627558085     -0.33798953928920     -0.35138999697980
  C   -0.93312071147366     -0.76205345716079     -0.22431316361791
  Br  1.48209516195125     -2.02606625669277     -0.80485535922074
  H   -1.34844832275734     -0.95986945269893     -1.21285091673250
  H   -1.04351738783900     -1.61756491007655      0.43608180282839
  C   1.09980061661085      0.14892253091236      0.97450021448120
  H   0.94576201675026     -0.57522921021016      1.77660562609149
  H   0.61858322716360      1.09284422853514      1.24867764611246
  H   2.17161818263780      0.32854559737403      0.87256106672502
  N   0.68242010483851      0.55699443846338     -1.45941221121976
  H   1.59424834425884      0.99662927058083     -1.45082733318345
  H   -0.04229318948191      1.26556070271704     -1.43877842848929
  N   -1.72950654620596      0.34434984512635      0.38828638368317
  O   -1.89303960250625      1.36033301661574     -0.29014436476181
  O   -2.13659816952785      0.18359319580353      1.53585903428353
