11
Coordinates from ORCA-job run
  C   0.59158917503272     -0.46956574758311      0.64683604357901
  C   -0.70743511984665     -0.36000240552658     -0.12632579510219
  F   0.54740813136465      0.42066311324596      1.71372497989828
  H   -0.67771179043769     -1.08089908209549     -0.94810395265922
  H   0.71424552107155     -1.47277793067115      1.06572520242706
  H   -1.51387070871194     -0.66175021743302      0.55891170084633
  C   1.75824899667589     -0.14607974875051     -0.18757510434262
  N   2.70696457730635      0.10449137560384     -0.82978393533869
  N   -0.82726700908371      0.98173212108885     -0.66808662349940
  H   -0.98250410051967      1.64198391922221      0.08213011721695
  H   -1.60866767285150      1.04120460289902     -1.30645263302552
