19

C	0.0	0.0	0.0
C	-0.413634	-0.127658	-1.482053
Cl	1.872846	0.0	0.0
H	0.347939	0.390508	-2.071477
C	-0.412577	1.307994	0.643396
H	0.008978	1.374306	1.650281
H	-0.047014	2.16034	0.068793
H	-1.502345	1.336438	0.706778
N	-0.507314	-1.090038	0.726198
H	-0.330653	-1.01798	1.717865
H	-0.160881	-1.9605	0.346426
C	-1.777498	0.494942	-1.765115
H	-2.048345	0.280118	-2.803818
H	-1.763043	1.580154	-1.650232
H	-2.571512	0.108166	-1.119814
N	-0.358593	-1.551984	-1.84614
H	-1.289557	-1.938134	-1.71538
H	-0.138958	-1.63112	-2.831326
Cl	-4.895043	0.0	0.0
