19

C	0.0	0.0	0.0
C	-0.524193	-0.116255	-1.44161
Cl	1.797673	0.0	0.0
H	-1.585193	-0.362347	-1.3118
C	-0.440213	1.301456	0.655052
H	-0.096523	1.321817	1.693518
H	-0.025143	2.163596	0.131689
H	-1.533455	1.329492	0.641489
N	-0.454006	-1.18474	0.705536
H	-1.475436	-1.143714	0.672163
H	-0.181501	-1.103846	1.680246
C	0.148736	-1.228768	-2.226379
H	1.144601	-0.917736	-2.550098
H	0.235519	-2.122551	-1.609257
H	-0.449985	-1.469009	-3.111672
N	-0.373462	1.160797	-2.152238
H	-1.166795	1.744776	-1.90276
H	-0.470513	0.974549	-3.1454
Cl	-3.78249	0.0	0.0
