19

C	0.0	0.0	0.0
C	-0.376069	0.303042	-1.457148
Cl	1.898505	0.0	0.0
H	0.155716	1.226429	-1.730482
C	-0.402209	1.078387	0.980842
H	0.030785	0.873879	1.962959
H	-1.490656	1.08194	1.069014
H	-0.048689	2.05627	0.648968
N	-0.497442	-1.250035	0.363667
H	-0.237789	-1.554025	1.289339
H	-0.312089	-1.938873	-0.353387
C	-1.875446	0.508829	-1.615702
H	-2.099724	0.703827	-2.670386
H	-2.450774	-0.353426	-1.282668
H	-2.248623	1.356635	-1.043865
N	0.046247	-0.836717	-2.279423
H	1.031389	-0.758401	-2.500388
H	-0.479911	-0.836282	-3.143797
Cl	-5.041844	0.0	0.0
