19

C	0.0	0.0	0.0
C	-0.421048	0.283408	-1.480272
Cl	1.873758	0.0	0.0
H	0.425715	-0.016538	-2.104563
C	-0.403406	1.050621	1.02375
H	-1.495541	1.098101	1.035213
H	-0.057286	0.733859	2.011885
H	0.025355	2.029176	0.811433
N	-0.479549	-1.242796	0.376945
H	-0.294123	-1.589126	1.298456
H	-0.74052	-1.880708	-0.35381
C	-0.687099	1.76839	-1.730192
H	-0.900802	1.91371	-2.793829
H	-1.563438	2.094219	-1.167769
H	0.173084	2.393951	-1.471913
N	-1.531703	-0.591974	-1.843774
H	-1.780532	-0.418695	-2.810069
H	-2.359441	-0.390032	-1.274602
Cl	-4.248907	0.0	0.0
