19

C	0.0	0.0	0.0
C	-0.466589	0.238273	-1.450033
Cl	1.814481	0.0	0.0
H	-1.551052	0.357287	-1.343616
C	-0.442607	1.141971	0.895825
H	-0.054808	2.08646	0.520878
H	-0.082666	0.954788	1.908909
H	-1.535143	1.167519	0.894722
N	-0.46285	-1.235191	0.581149
H	-1.478572	-1.144792	0.654483
H	-0.263454	-2.006854	-0.043176
C	-0.207904	-0.946802	-2.381692
H	-0.791318	-1.825061	-2.09953
H	0.854643	-1.209534	-2.403721
H	-0.512701	-0.673321	-3.395622
N	0.073494	1.502375	-1.958168
H	1.018758	1.348844	-2.292884
H	-0.48851	1.793069	-2.750757
Cl	-3.777983	0.0	0.0
