19

C	0.0	0.0	0.0
C	-0.339773	0.26616	-1.515502
Cl	1.802786	0.0	0.0
H	0.373242	-0.357955	-2.070672
C	-0.525578	1.059297	0.944965
H	-1.615368	1.10242	0.846101
H	-0.276007	0.777329	1.969929
H	-0.097412	2.037699	0.731303
N	-0.444609	-1.287349	0.478797
H	-1.454653	-1.230551	0.603231
H	-0.254226	-1.998008	-0.220894
C	-0.114338	1.720329	-1.914926
H	-0.901064	2.349432	-1.489745
H	0.857833	2.097065	-1.589926
H	-0.18275	1.798471	-3.001463
N	-1.659586	-0.124138	-1.964162
H	-2.405475	0.298901	-1.41368
H	-1.792746	-1.119889	-1.839608
Cl	-4.178019	0.0	0.0
