19

C	0.0	0.0	0.0
C	-0.362812	0.316524	-1.461077
Cl	1.897584	0.0	0.0
H	0.170994	1.244126	-1.719694
C	-0.408189	1.066841	0.989003
H	0.015177	0.848035	1.971962
H	-1.497902	1.07365	1.067875
H	-0.048532	2.047114	0.672463
N	-0.502478	-1.252676	0.344749
H	-0.254051	-1.561908	1.270995
H	-0.304771	-1.935359	-0.373702
C	-1.859488	0.525107	-1.627543
H	-2.220663	1.383715	-1.065137
H	-2.099366	0.704144	-2.681464
H	-2.440277	-0.326795	-1.273518
N	0.068353	-0.813266	-2.288952
H	-0.446506	-0.804617	-3.160139
H	1.05734	-0.736653	-2.49413
Cl	-5.031226	0.0	0.0
