19

C	0.0	0.0	0.0
C	-0.334271	-0.265809	-1.516825
Cl	1.808299	0.0	0.0
H	0.3774	-1.044213	-1.824251
C	-0.523435	1.319477	0.524528
H	-0.271604	1.40682	1.582917
H	-1.613789	1.327451	0.420142
H	-0.09739	2.16413	-0.015214
N	-0.446814	-1.047448	0.885584
H	-1.459771	-0.960454	0.965934
H	-0.241808	-1.952343	0.473294
C	-0.105049	0.964758	-2.388049
H	0.863365	1.43386	-2.205171
H	-0.166306	0.665253	-3.435958
H	-0.896311	1.697393	-2.209468
N	-1.653802	-0.782585	-1.810449
H	-1.786017	-1.686974	-1.37488
H	-2.402397	-0.205562	-1.42829
Cl	-4.172952	0.0	0.0
