16

C	-0.419456	-0.028773	-1.415179
C	0.0	0.0	0.0
F	-0.132379	1.119245	-2.052702
H	1.092545	0.0	0.0
H	-0.326665	0.980618	0.366561
N	0.17643	-1.147187	-2.269317
O	0.787553	-2.04583	-1.715002
O	-0.020326	-1.031004	-3.47659
N	-1.930003	-0.240273	-1.580893
O	-2.632564	0.763607	-1.57108
O	-2.327661	-1.402629	-1.604056
C	-0.535251	-1.116783	0.885229
H	-0.270654	-2.093569	0.483919
H	-0.054041	-1.025	1.861557
H	-1.62064	-1.080229	1.029924
F	2.589852	0.0	0.0
