16

C	-0.384475	0.018744	-1.428896
C	0.0	0.0	0.0
F	-0.128046	-1.151027	-2.035171
H	1.092559	0.0	0.0
H	-0.3371	-0.979897	0.357575
N	-1.883682	0.281565	-1.633731
O	-2.238802	1.449601	-1.767129
O	-2.620076	-0.693804	-1.542861
N	0.283066	1.100045	-2.27716
O	0.708194	2.094518	-1.71028
O	0.300226	0.88201	-3.4853
C	-0.565682	1.114833	0.866093
H	-0.261279	2.090909	0.493331
H	-0.148023	1.001878	1.869165
H	-1.659368	1.094909	0.948404
F	2.582669	0.0	0.0
