16

C	-0.400368	-0.025107	-1.423482
C	0.0	0.0	0.0
F	-0.124732	1.131474	-2.046098
H	1.092558	0.0	0.0
H	-0.330284	0.983804	0.35409
N	0.227493	-1.129733	-2.271779
O	0.186865	-0.942189	-3.484607
O	0.682502	-2.108609	-1.700857
N	-1.90753	-0.257398	-1.606409
O	-2.288371	-1.421679	-1.696406
O	-2.621678	0.736587	-1.542334
C	-0.562159	-1.105375	0.880491
H	-1.653158	-1.070001	0.987852
H	-0.118791	-0.996293	1.872855
H	-0.280614	-2.086767	0.503707
F	2.582959	0.0	0.0
