16

C	-0.371226	-0.008415	-1.425091
C	0.0	0.0	0.0
F	-0.025252	-1.123184	-2.076572
H	1.095233	0.0	0.0
H	-0.356414	0.932835	0.436532
N	-1.883766	0.18063	-1.729388
O	-2.573021	0.708892	-0.864574
O	-2.272777	-0.200173	-2.831164
N	0.24315	1.174286	-2.17381
O	-0.06207	2.278627	-1.736241
O	0.95068	0.932709	-3.138709
C	-0.510413	-1.228203	0.73785
H	-0.114446	-2.134195	0.274969
H	-0.124867	-1.199538	1.75929
H	-1.603324	-1.296481	0.783228
F	2.591413	0.0	0.0
