16

C	-0.401539	0.023258	-1.423201
C	0.0	0.0	0.0
F	-0.131198	-1.135819	-2.042262
H	1.092542	0.0	0.0
H	-0.327348	-0.982244	0.358741
N	-1.90801	0.261588	-1.607535
O	-2.284248	1.426597	-1.701614
O	-2.626078	-0.728484	-1.540422
N	0.233502	1.11943	-2.277292
O	0.193846	0.927726	-3.491039
O	0.693894	2.09592	-1.707665
C	-0.561493	1.107479	0.878879
H	-0.115316	1.003094	1.870167
H	-0.282376	2.087002	0.497259
H	-1.652047	1.06972	0.989419
F	2.588425	0.0	0.0
