16

C	-0.4192	-0.00704	-1.416194
C	0.0	0.0	0.0
F	-0.11804	1.144588	-2.042697
H	1.092542	0.0	0.0
H	-0.334836	0.973508	0.378335
N	0.171139	-1.120142	-2.280229
O	-0.073722	-1.022324	-3.480701
O	0.81725	-2.004066	-1.73629
N	-1.930886	-0.200089	-1.580988
O	-2.621588	0.811984	-1.56174
O	-2.339148	-1.358014	-1.617083
C	-0.538665	-1.13477	0.858931
H	-1.626156	-1.108359	0.995094
H	-0.265685	-2.102413	0.440171
H	-0.067192	-1.063984	1.842008
F	2.572432	0.0	0.0
