16

C	-0.512392	-0.027595	-1.379764
C	0.0	0.0	0.0
F	-1.872561	0.054398	-1.500067
H	1.090237	0.0	0.0
H	-0.351414	0.935867	0.44422
N	-0.015167	1.113317	-2.261216
O	0.374233	2.129162	-1.702595
O	-0.148264	0.951502	-3.471861
N	-0.089196	-1.30133	-2.090059
O	1.084711	-1.360795	-2.422286
O	-0.941173	-2.17632	-2.211188
C	-0.468201	-1.217263	0.793196
H	-1.547655	-1.394954	0.751049
H	0.049715	-2.11265	0.441435
H	-0.174203	-1.07729	1.83567
F	2.588025	0.0	0.0
