16

C	-0.392932	0.003122	-1.419453
C	0.0	0.0	0.0
F	-0.044104	1.108132	-2.084755
H	1.095151	0.0	0.0
H	-0.348336	-0.934701	0.440459
N	0.191193	-1.192691	-2.174113
O	0.878524	-0.962691	-3.15709
O	-0.113596	-2.292221	-1.725095
N	-1.915187	-0.166432	-1.686867
O	-2.570218	-0.764915	-0.84128
O	-2.347424	0.298658	-2.738788
C	-0.526075	1.219984	0.741093
H	-1.618898	1.246401	0.824512
H	-0.184543	2.136042	0.254744
H	-0.104087	1.218499	1.748251
F	2.589782	0.0	0.0
