16

C	0.0	0.0	0.0
C	-0.354128	0.069755	-1.487957
F	1.40721	0.0	0.0
H	-0.048999	-0.87673	-1.928678
H	-0.334427	0.900077	0.519991
N	-0.503704	-1.227447	0.545508
H	0.260128	-1.763737	0.932098
H	-1.245918	-1.065282	1.216784
N	0.52988	1.09751	-2.128023
O	1.193867	0.755806	-3.108232
O	0.531605	2.230282	-1.651948
C	-1.792899	0.40109	-1.793685
H	-2.010625	0.187749	-2.842726
H	-1.975561	1.455226	-1.595712
H	-2.516876	-0.129578	-1.152098
H	-4.083909	0.0	0.0
