16

C	0.0	0.0	0.0
C	-0.353223	-0.156492	-1.485356
F	1.389126	0.0	0.0
H	0.327478	0.522529	-2.004827
H	-0.30063	1.003231	0.321487
N	-0.52546	-1.064921	0.797357
H	-0.433489	-0.808392	1.777074
H	-1.533023	-1.056483	0.595559
N	-1.698104	0.379751	-1.810788
O	-1.814425	1.630205	-1.666199
O	-2.688247	-0.410138	-1.560062
C	-0.18988	-1.573458	-1.993893
H	-0.343862	-1.591419	-3.076498
H	-0.92294	-2.228329	-1.529925
H	0.814232	-1.93784	-1.762935
H	-3.135971	0.0	0.0
