17

C	-0.42022	0.039051	-1.457579
C	0.0	0.0	0.0
Cl	-2.220633	-0.05505	-1.701238
H	1.095007	0.0	0.0
C	0.016433	1.270559	-2.109042
N	0.335366	2.291477	-2.593772
N	0.20725	-1.135296	-2.210673
O	1.256557	-0.886194	-2.796363
O	-0.33189	-2.231311	-2.098
C	-0.4778	-1.221467	0.758952
H	-1.568652	-1.26851	0.832493
H	-0.109342	-2.147517	0.316183
H	-0.06091	-1.13214	1.763502
N	-0.365741	1.23029	0.685402
H	0.383562	1.900165	0.548244
H	-1.240237	1.623841	0.35645
H	2.703699	0.0	0.0
