17

C	-0.486329	0.005047	-1.466582
C	0.0	0.0	0.0
Cl	0.12698	-1.378003	-2.386222
H	1.093938	0.0	0.0
C	-1.946565	0.008031	-1.549628
N	-3.122097	-0.042298	-1.541086
N	0.003097	1.296513	-2.148943
O	1.075508	1.282001	-2.723745
O	-0.730653	2.271546	-1.987416
C	-0.506874	-1.234926	0.723967
H	-0.222361	-2.157607	0.216055
H	-1.59451	-1.212643	0.857407
H	-0.036143	-1.227246	1.708215
N	-0.387295	1.198198	0.718295
H	-1.304335	1.546669	0.467685
H	0.304943	1.923827	0.560606
H	2.78925	0.0	0.0
