17

C	-0.528828	0.016488	-1.426529
C	0.0	0.0	0.0
Cl	0.223376	-1.251094	-2.436094
H	1.094394	0.0	0.0
C	-1.981105	-0.14016	-1.486069
N	-3.141494	-0.326245	-1.444856
N	-0.190557	1.349562	-2.107378
O	0.849442	1.890042	-1.775507
O	-0.974486	1.731244	-2.974182
C	-0.458276	-1.238704	0.746989
H	-1.544417	-1.25053	0.899732
H	-0.163695	-2.151644	0.226202
H	0.042612	-1.240471	1.718798
N	-0.484926	1.23961	0.610661
H	0.33325	1.781962	0.872241
H	-1.018736	1.039926	1.446803
H	2.809767	0.0	0.0
