17

C	-0.50469	-0.00854	-1.427283
C	0.0	0.0	0.0
Cl	-2.30809	-0.089297	-1.541313
H	1.094709	0.0	0.0
C	-0.089712	1.186307	-2.157799
N	0.193247	2.144714	-2.776218
N	0.065044	-1.228271	-2.160979
O	1.092869	-1.033165	-2.798396
O	-0.498143	-2.303849	-1.992417
C	-0.431375	-1.193747	0.830236
H	0.061013	-1.093023	1.801777
H	-0.104171	-2.138728	0.3946
H	-1.516418	-1.231232	0.976896
N	-0.372589	1.289331	0.568488
H	0.459966	1.670321	1.009636
H	-1.098718	1.18519	1.266132
H	2.706693	0.0	0.0
