17

C	-0.442096	-0.005462	-1.452144
C	0.0	0.0	0.0
Cl	-0.086413	1.524395	-2.276845
H	1.096208	0.0	0.0
C	0.185321	-1.093534	-2.202872
N	0.681059	-1.966462	-2.813051
N	-1.973673	-0.199722	-1.596337
O	-2.67509	0.36438	-0.765649
O	-2.383508	-0.890968	-2.524528
C	-0.424417	-1.289585	0.694598
H	-0.141872	-2.179056	0.12361
H	0.114089	-1.336569	1.645064
H	-1.501895	-1.318931	0.895129
N	-0.380071	1.218808	0.680239
H	0.405652	1.490886	1.262326
H	-1.206956	1.092608	1.248503
H	2.733541	0.0	0.0
