11
Coordinates from ORCA-job run
  C   0.65278747133880      0.15886370739166      0.57100102569071
  C   -0.48501695396143     -0.10051894422496     -0.09127241637800
  H   0.71300276316408      0.13336495913182      1.65080890676785
  N   1.91378633946943      0.43833156681981     -0.09962657492253
  O   2.90590298127033      0.35636894467997      0.62616709593828
  O   1.89876005244151      0.72497172687150     -1.29388634247926
  N   -1.70016744400317     -0.39464577847754      0.73254983639321
  O   -2.73874738125826     -0.56747272532848      0.10599597596587
  O   -1.55532522339628     -0.43097732312254      1.94598172315033
  C   -0.69162264105219     -0.13276085351404     -1.49600879701222
  N   -0.91235996401281     -0.18552528022717     -2.65171043311424
