11
Coordinates from ORCA-job run
  C   0.68526012525749     -0.25733221046996      0.49290428649162
  C   -0.49660634560695      0.02632175235412     -0.07504015682600
  H   0.76931485647009     -0.86881061222430      1.38146090236899
  N   1.95621344450459      0.17898867994934     -0.06615078916790
  O   2.93794027369728     -0.42514517530174      0.36817837065943
  O   1.95752462620067      1.08205834270225     -0.89879806141029
  N   -1.72190845890410     -0.50780445637531      0.59928200397729
  O   -1.55333772599150     -1.21833385158758      1.57997062364079
  O   -2.79095620726567     -0.17524671374187      0.10169698669647
  C   -0.74250423529623      0.78257669092050     -1.25155456009168
  N   -1.00094035306568      1.38372755377454     -2.23094960633872
