11
Coordinates from ORCA-job run
  C   0.90165721794640     -0.08251398311983     -0.38751614016742
  C   -0.43633737933435     -0.15859169404720     -0.43070491566680
  H   1.53320038938413     -0.36298599752788     -1.22117304128706
  N   1.63027257846031      0.33423771843855      0.80131982413426
  O   1.03137210349696      0.99416087494796      1.64641622099661
  O   2.80719328741339     -0.02191089890183      0.83851363883281
  N   -1.31670445160289      0.18773176920528      0.70921955216436
  O   -1.92123085274784      1.24375933332612      0.59294164602445
  O   -1.38182194637782     -0.63554359336755      1.60983952301534
  C   -1.13301877453325     -0.57438106012510     -1.59845073027172
  N   -1.71458217210504     -0.92296246882852     -2.56140557777483
