11
Coordinates from ORCA-job run
  C   0.64334158439617      0.16239395960511      0.57831161492664
  C   -0.48018603323673     -0.11016842487789     -0.10295643829827
  H   0.67647399738953      0.16252217429948      1.65973371605783
  N   1.91710794115703      0.44842679634403     -0.06488224717134
  O   1.94717423783452      0.58784009225249     -1.28484993366380
  O   2.87351814914770      0.52488103296249      0.70856245839976
  N   -1.71078877771894     -0.39339786997277      0.70372282667921
  O   -2.73406323804906     -0.59352338428990      0.06081893235032
  O   -1.59077087742670     -0.39905858969364      1.92041240946061
  C   -0.66434858007959     -0.16202468096245     -1.51002697404482
  N   -0.87645840341394     -0.22789110566693     -2.66684636469614
