11
Coordinates from ORCA-job run
  C   0.77370861047488      0.49870649534212     -0.35135315757489
  C   -0.42168509079092     -0.09393656388619     -0.46962269432977
  H   1.27707938567649      0.97651150385524     -1.18384166837206
  N   1.50987451377163      0.52535547851518      0.90731325658072
  O   1.43046886594283     -0.45268957714473      1.64527738800297
  O   2.17331166821575      1.54437264601917      1.09085375241659
  N   -1.13345092340964     -0.71392167990190      0.66803551483989
  O   -1.37260760974880      0.00453733716004      1.62840057126977
  O   -1.42866599895915     -1.89061273104271      0.50918589387917
  C   -1.11571945772749     -0.16909438903330     -1.70866839611953
  N   -1.69231396344559     -0.22922851988291     -2.73458046059285
