11
Coordinates from ORCA-job run
  C   0.59943514556744      0.35248284679262      0.54727774787404
  C   -0.48067844820564     -0.12004495688061     -0.09353649977346
  H   0.56904754349679      0.67760669001163      1.57811191155910
  N   1.91795324319971      0.39167802609564     -0.06704343658963
  O   2.85208304501761      0.38669859051182      0.73513036838047
  O   1.99744099133684      0.42474609202860     -1.29214943055115
  N   -1.76968031970545     -0.13735520780838      0.66078898451936
  O   -2.75621408068789     -0.48564383304898      0.02295218036057
  O   -1.73145278564626      0.19566004156434      1.83718582153388
  C   -0.55089997873264     -0.62110700526526     -1.42099012941830
  N   -0.64803435564048     -1.06472128400141     -2.50772751789487
