11
Coordinates from ORCA-job run
  C   0.90719515985374     -0.01585690036435     -0.37945595907293
  C   -0.42375020547259     -0.16993191932976     -0.43639558386040
  H   1.55745830798310     -0.22412553518782     -1.21995674438924
  N   1.60623248216763      0.40022015384368      0.82701399569143
  O   0.95242398634687      0.92498582550018      1.72468711065882
  O   2.81716424335241      0.18221821242177      0.82556177484589
  N   -1.33429024790392      0.07960602169031      0.70486892405254
  O   -1.39944845161810     -0.80650965605843      1.54356348013535
  O   -1.95989962904611      1.12791561035950      0.64850925982271
  C   -1.08451550082933     -0.57927213432136     -1.62713832050711
  N   -1.63857014483370     -0.91924967855372     -2.60925793737707
