11
Coordinates from ORCA-job run
  C   0.62282308454148     -0.00551950711827      0.62663786726440
  C   -0.48389310749831     -0.05802897762991     -0.12955495621448
  H   0.59006808508988     -0.02471973740016      1.70792566309117
  N   1.95501186743361      0.14328948598199      0.06027883604386
  O   2.14252265859386     -0.19853142097028     -1.10457194655864
  O   2.78830590033868      0.61111957261257      0.83668853365261
  N   -1.79352573370521     -0.14938381107180      0.58532759548345
  O   -1.75772573857676     -0.37404131232229      1.78667330279942
  O   -2.79039279558289      0.02054863299391     -0.10684872464494
  C   -0.57412366746142     -0.00600520358761     -1.54610967882401
  N   -0.69807055317291      0.04127227851186     -2.71644649209284
