11
Coordinates from ORCA-job run
  C   0.89057360968308     -0.23717845951986     -0.31188700842180
  C   -0.44597097309751     -0.25149602167017     -0.39739742934006
  H   1.52668695879270     -0.60756230018585     -1.10702376537991
  N   1.61898727276933      0.36438197417009      0.80395869947902
  O   1.60570537645939     -0.21733606870232      1.88280358409544
  O   2.22841828258116      1.38954216277991      0.51102226674705
  N   -1.31732812020916      0.37208943457920      0.62560352783986
  O   -2.02863600302282      1.27789361450398      0.20716764411937
  O   -1.25010387728955     -0.07053010675551      1.76580805920907
  C   -1.13198357227475     -0.77850021010300     -1.52746715870670
  N   -1.69634895439188     -1.24130401909648     -2.45158841964134
