11
Coordinates from ORCA-job run
  C   0.86301341710808      0.19932000788459     -0.44226535207506
  C   -0.44814229945090     -0.07955518871687     -0.46648251882703
  H   1.46614563045574      0.35451331671920     -1.32764721435649
  N   1.60781026129688      0.30137828426995      0.81033352540768
  O   1.09616848822197      0.91549938911003      1.74195011676413
  O   2.71499775424820     -0.23161666298894      0.78549320511598
  N   -1.21930174852080     -0.30227209468254      0.77760509520130
  O   -0.80660139957088     -1.18436775028633      1.51983829424802
  O   -2.20590239958470      0.41035031856354      0.90911367383799
  C   -1.21764692755938     -0.15200671830773     -1.66035036057782
  N   -1.84954077664421     -0.23024290156490     -2.64958846473872
