11
Coordinates from ORCA-job run
  C   0.83556090583908      0.27184772120319     -0.44200615490706
  C   -0.46434066167705     -0.05438873451253     -0.43631141765528
  H   1.38439550821646      0.48876528910878     -1.35007185967123
  N   1.63868599735214      0.30775309407428      0.77286820176019
  O   2.81555305178430     -0.01389901906083      0.62256433486758
  O   1.09287754214161      0.66090308597683      1.81426800115199
  N   -1.20549111194149     -0.39985834163012      0.79836852503419
  O   -2.13341490718191      0.34916690035179      1.07232143154648
  O   -0.84017993472438     -1.40609554824026      1.38879468478821
  C   -1.24573754048863     -0.08375070971183     -1.62395379785683
  N   -1.87890884932015     -0.12144373755929     -2.61584194905826
