11
Coordinates from ORCA-job run
  C   0.66462517799110      0.09855479563571      0.57661500569288
  C   -0.49429203900398     -0.03385693151396     -0.08539171351207
  H   0.72201965949145      0.08732976120790      1.65683283962372
  N   1.94737709062947      0.19024748995316     -0.10398118029296
  O   1.97388762138440      0.60810079185119     -1.25867428622061
  O   2.90938415507241     -0.17295020626606      0.57308985195065
  N   -1.74043417388500     -0.15687748463552      0.73302483809177
  O   -2.78514338395008     -0.25543697982281      0.10046611556033
  O   -1.61155112175990     -0.14442850490431      1.94879467717970
  C   -0.69073791551862     -0.08038484581663     -1.49132183120701
  N   -0.89613507045126     -0.14029788568869     -2.64945431686641
