11
Coordinates from ORCA-job run
  C   0.93199268630676     -0.28117246494395     -0.11681962073689
  C   -0.37891395854127     -0.30237642246757     -0.40127094781762
  H   1.65162006173010     -0.90519520020312     -0.63194882001365
  N   1.51404027828922      0.56874895558408      0.91083455927160
  O   0.77194574697124      1.33265287982529      1.52277173974712
  O   2.72722175791289      0.43464306677582      1.06969434603969
  N   -1.39539170280204      0.52933906973741      0.28360954739967
  O   -1.65001591188669      1.59608685477884     -0.25463010316887
  O   -1.90681776367440      0.02928488684490      1.27386913399608
  C   -0.91086910110062     -1.14992330095868     -1.41178796509973
  N   -1.35581209320520     -1.85308832497303     -2.24532186961739
