11
Coordinates from ORCA-job run
  C   0.58765262992670      0.57115241045284      0.33078869034178
  C   -0.48163994075638     -0.14929546557241     -0.04499382070480
  H   0.50511367291323      1.50495001537187      0.86725555502403
  N   1.95130709330743      0.18052704062465      0.00558901829339
  O   2.76764166557195      1.10074098662741      0.05832296228466
  O   2.17929027518031     -0.99093417499548     -0.28462178669347
  N   -1.82994889531249      0.37851803319501      0.32916928446395
  O   -2.78812591126461     -0.21020557305377     -0.15796182649912
  O   -1.86147907059858      1.34447235891277      1.07830432267021
  C   -0.49458436272578     -1.36256998521591     -0.78398728290858
  N   -0.53522715624179     -2.36735564634698     -1.39686511627203
