11
Coordinates from ORCA-job run
  C   0.91576635223502     -0.12892876229771     -0.32913463483142
  C   -0.42093254485350     -0.18235421579528     -0.42972082256327
  H   1.57465118841738     -0.45812349115254     -1.12283448751723
  N   1.61002272958553      0.36968941007557      0.84822167500149
  O   2.83854462276573      0.34907466382827      0.77412111668484
  O   0.93679442817505      0.76179364818523      1.79785476696542
  N   -1.35702988253689      0.25485825536300      0.63169693449177
  O   -1.72340515481058      1.41830965706586      0.56378379018387
  O   -1.70281837086064     -0.61293216055919      1.41891432123946
  C   -1.06486460702439     -0.67911870371647     -1.59641920525375
  N   -1.60772876109272     -1.09226830099675     -2.55648345440118
