11
Coordinates from ORCA-job run
  C   0.84918466938756      0.24235668336810     -0.42696289209450
  C   -0.43540647964487     -0.14377217657976     -0.43154555684888
  H   1.41547833306089      0.39882467771769     -1.33664524153484
  N   1.59732139297866      0.51147756039232      0.79138635007638
  O   2.70244259532842      1.02514592340246      0.61912626996849
  O   1.08486659353419      0.20999945665641      1.86644389984795
  N   -1.24639113768896     -0.35379532478331      0.78989768759862
  O   -1.33686142113186     -1.51403711112686      1.16184391900701
  O   -1.78016635664090      0.64297469507681      1.25291890023650
  C   -1.13487378187344     -0.40149945272500     -1.64274165014949
  N   -1.71659440730967     -0.61767493139885     -2.64372168610725
