11
Coordinates from ORCA-job run
  C   0.55969442029419      0.43101955540033      0.53288544117901
  C   -0.46895023858811     -0.14869828632571     -0.10326256378988
  H   0.42373816816716      1.07688146431717      1.39006001768318
  N   1.93559640520995      0.29876312975843      0.07846548867507
  O   2.24149358830520     -0.67809121966421     -0.60046148367363
  O   2.67931769460665      1.21272960768778      0.43566629207205
  N   -1.83830417760385      0.09079144600779      0.44952678192755
  O   -1.92775866063346      0.84390641683249      1.40856181251456
  O   -2.75078868987952     -0.50193670958218     -0.11354784339722
  C   -0.42229630648574     -0.97563130873860     -1.25707616489949
  N   -0.43174220339247     -1.64973409569329     -2.22281777829120
