11
Coordinates from ORCA-job run
  C   0.62793190736062      0.07309620771793      0.61615019344058
  C   -0.48381888554887     -0.06054860063585     -0.12279232990440
  H   0.62474802478256     -0.03775713599185      1.69229230628320
  N   1.93928530960575      0.31312821317302      0.03317540818345
  O   2.00628101005417      0.73220243103962     -1.11947425972997
  O   2.88375641996856      0.06221749211597      0.78294828087517
  N   -1.76136227937043     -0.32739104738618      0.61090826122490
  O   -2.77497510176469     -0.34990869617637     -0.07691029974673
  O   -1.68591202990845     -0.49167468788480      1.82008026186439
  C   -0.61028174648922      0.02288996343692     -1.53483433507059
  N   -0.76665262869000      0.06374586059159     -2.70154348742000
