11
Coordinates from ORCA-job run
  C   0.79166922142012      0.39547646074583     -0.35214847500333
  C   -0.43332445900604     -0.13759033466069     -0.46065208584353
  H   1.33701569390631      0.74734803968000     -1.22041254285242
  N   1.51521190588178      0.57151351821046      0.90682288173328
  O   1.45428378951796      1.69309695486152      1.39196633205325
  O   2.16591955088215     -0.38815992546883      1.29626388648620
  N   -1.20669672893834     -0.62734391846278      0.70383577055121
  O   -2.22926259386806     -1.25074709149760      0.44294874134994
  O   -0.75515795668614     -0.36960331865525      1.81182156769308
  C   -1.07310340565930     -0.27600796892320     -1.72686874914479
  N   -1.56755501745043     -0.35798241582946     -2.79157732702288
