11
Coordinates from ORCA-job run
  C   0.59473918616320      0.29764764987889      0.58311897687473
  C   -0.47996355788739     -0.09555673434237     -0.11637648217225
  H   0.53547715215112      0.59469003732272      1.62170901861387
  N   1.93902449281847      0.28588596052079      0.02608617199392
  O   2.83674031230997      0.21083776737833      0.86538577091624
  O   2.07304635694126      0.35064563589361     -1.19315642064348
  N   -1.80155197541139     -0.06154656549036      0.58313881536477
  O   -2.77618127261608     -0.33524465424535     -0.10699074385667
  O   -1.79689444128184      0.23963040733863      1.76817664265691
  C   -0.52327256635681     -0.54551563752424     -1.46283545624797
  N   -0.60216368683052     -0.94147386673065     -2.56925629350007
