11
Coordinates from ORCA-job run
  C   0.64714737952095     -0.07138053765145      0.60381659367346
  C   -0.47541834185644     -0.09058708986440     -0.13008925942657
  H   0.66246361417390     -0.34616282894186      1.65011618818056
  N   1.91825855468798      0.39323224048722      0.06900546094793
  O   2.11258203711442      0.32555269718280     -1.14181647830736
  O   2.69811971951313      0.82307188663910      0.91961640479669
  N   -1.73197910164497     -0.52944919609102      0.55005417735575
  O   -2.76624854366604     -0.36422930659821     -0.08523016779676
  O   -1.62101032875735     -1.01377022675630      1.66716150524051
  C   -0.63162216619731      0.28720439480665     -1.48996301280164
  N   -0.81229282288828      0.58651796678747     -2.61467141186259
