11
Coordinates from ORCA-job run
  C   0.62143206610671      0.30065197246194      0.54689485690357
  C   -0.48336008843240     -0.09053341033648     -0.10637690157061
  H   0.58142390133592      0.77305847267648      1.51921162853769
  N   1.96128618148183      0.16854968409844     -0.00632274069269
  O   2.11849392391238     -0.50448771842583     -1.02149401846093
  O   2.83483129870241      0.76683453751901      0.62369262759453
  N   -1.79170314247760      0.11415501436486      0.59261896745705
  O   -2.76616610639015     -0.40117081078323      0.05812491258500
  O   -1.77495757032125      0.76395173754954      1.62818403297670
  C   -0.57928360187720     -0.69882406534694     -1.38600240212944
  N   -0.72199686204065     -1.19118541377779     -2.44653096320086
