11
Coordinates from ORCA-job run
  C   0.59264190866357      0.34161095060061      0.56250988165130
  C   -0.46324984402522     -0.17800131056505     -0.07832725842542
  H   0.51802422464255      0.76660919763534      1.55496048095842
  N   1.90717139159914      0.44130496486749     -0.05351850885242
  O   2.21669331637923     -0.38679408501307     -0.90812127804051
  O   2.60722275328566      1.36007567833391      0.37091528117914
  N   -1.77841876047980     -0.16729752083411      0.64027270807942
  O   -1.76445621134008      0.18305350387563      1.81166869295396
  O   -2.74944482293874     -0.50956444008244     -0.02177567495927
  C   -0.50494332226229     -0.70879132840853     -1.39296512035799
  N   -0.58024063352401     -1.14120561040978     -2.48561920418662
