11
Coordinates from ORCA-job run
  C   0.85111979479923      0.27117314474644     -0.40335663017478
  C   -0.45361090237132     -0.02562615623903     -0.45984358642955
  H   1.43316189326587      0.53760258639691     -1.27710220905536
  N   1.61255654106124      0.24288183847333      0.84224185222381
  O   2.64310947041695     -0.42045002082864      0.79303702968479
  O   1.18460142284174      0.89384038475619      1.78872845745497
  N   -1.22929788401927     -0.42566586849960      0.73677875463414
  O   -0.68518083883161     -1.20019857538724      1.51232072286330
  O   -2.35375421125192      0.05539814031251      0.81703922550097
  C   -1.19737354365741      0.02120976636122     -1.67178546120843
  N   -1.80533174225350      0.04983475990789     -2.67905815549387
