11
Coordinates from ORCA-job run
  C   0.87308933557940      0.16644830234741     -0.42450749139573
  C   -0.42063527756133     -0.18316797533270     -0.44238583781515
  H   1.47968081729263      0.22422788624257     -1.31974148725544
  N   1.56559146030627      0.54767026213398      0.79827019940814
  O   1.18428064419905      0.05442736711104      1.85618558274948
  O   2.49397887236833      1.33814234228337      0.64027197442235
  N   -1.26739210381326     -0.22590284975898      0.77225849770696
  O   -1.65730213972700     -1.34103185263208      1.08917041247625
  O   -1.51649930111136      0.84741598594007      1.30096635471027
  C   -1.08940295566699     -0.56045184051823     -1.63904455201984
  N   -1.64438935186574     -0.86677762781646     -2.63144365298731
