11
Coordinates from ORCA-job run
  C   0.82667702041202      0.29690552729490     -0.44542607729709
  C   -0.45807716405813     -0.08603410230269     -0.43087848752692
  H   1.36193916828476      0.52423216255852     -1.35891065725676
  N   1.63335422900213      0.39458987136903      0.76218973437317
  O   1.05532791720219      0.56086626160838      1.83304417875233
  O   2.84698821140147      0.30678975602592      0.58161482734758
  N   -1.19462174407950     -0.43470226295514      0.80594650583190
  O   -2.04638768646424      0.37453039816214      1.14432387880115
  O   -0.90730119670981     -1.50311873127762      1.32471384344800
  C   -1.23503923563975     -0.17621086654336     -1.61846983214481
  N   -1.88185951935114     -0.25784801394007     -2.59914791432855
