11
Coordinates from ORCA-job run
  C   0.59752315260289      0.31125389714651      0.56585706534081
  C   -0.47811279976359     -0.08684921106600     -0.13071135798986
  H   0.51310622046551      0.80556912883132      1.52454626619871
  N   1.96274638439458      0.14823038436819      0.08899513860735
  O   2.15647765613398     -0.48054016096187     -0.94825427211259
  O   2.81912832824230      0.67686364811441      0.80017798867228
  N   -1.81739110439468      0.15059169814708      0.49709998680529
  O   -2.77388984658389     -0.34414950349814     -0.08709785102112
  O   -1.84094226891525      0.80381067264788      1.53037841750685
  C   -0.51904258503366     -0.72902955622959     -1.39663196174542
  N   -0.62060313714820     -1.25375099749978     -2.44635942026231
