11
Coordinates from ORCA-job run
  C   0.84798684124437      0.29139529890158     -0.38887576442605
  C   -0.44971878794115     -0.03426172038697     -0.46213165509800
  H   1.43478396227213      0.57463187337000     -1.25444207786494
  N   1.60180640256853      0.26146632945987      0.86207073034692
  O   2.67480335318132     -0.32816800706948      0.79275190103414
  O   1.13274583249683      0.85123614198347      1.82990921893259
  N   -1.23473150834592     -0.45747198961586      0.72040427933605
  O   -2.34918241955943      0.04334667736340      0.81203641980696
  O   -0.70791247281684     -1.26812603443853      1.47002294020456
  C   -1.18292462715381      0.01819772273819     -1.67960966508714
  N   -1.76665657594602      0.04975370769432     -2.70213632718510
