11
Coordinates from ORCA-job run
  C   0.55904656725521      0.50629633624148      0.45824873796576
  C   -0.46993416851122     -0.14134231278219     -0.10877821918139
  H   0.42433106408521      1.21423331987368      1.26518015767160
  N   1.94508477736594      0.26761199661394      0.08420474152568
  O   2.77103435144593      0.67137124662236      0.90383994522060
  O   2.18119614285168     -0.29591605702132     -0.98133647996943
  N   -1.84166112377380      0.19505837835577      0.38706864557181
  O   -1.91723949394369      0.92468146645021      1.36535369230769
  O   -2.77036931374002     -0.29136767778687     -0.24676883595671
  C   -0.42939156359104     -1.11356203142185     -1.14306100423151
  N   -0.45109723944422     -1.93806466514522     -1.98395138092411
