11
Coordinates from ORCA-job run
  C   0.56256925342242      0.55582066281478      0.39475218756716
  C   -0.47507908920100     -0.14743697939830     -0.08239778242934
  H   0.44664013065945      1.32571987786932      1.14593341439842
  N   1.93715687633410      0.29213528617978     -0.00350861277241
  O   2.78136655608893      0.64747621671982      0.81935870725300
  O   2.14513561049337     -0.24438810270498     -1.08854706005239
  N   -1.83430834124807      0.19965558795920      0.43705807499989
  O   -2.76573671278053     -0.43348981985610     -0.04543756340481
  O   -1.89933154908216      1.07848571196920      1.28457802345055
  C   -0.44641042371374     -1.20267489633242     -1.03266699825192
  N   -0.45200231097277     -2.07030354522030     -1.82912239075816
