11
Coordinates from ORCA-job run
  C   0.91776179857114     -0.28319080479699     -0.21423449611314
  C   -0.40872342997039     -0.28632305319847     -0.40307800740124
  H   1.59804297680829     -0.88605855138950     -0.80290828143298
  N   1.55705993126086      0.50580212891746      0.83062642165100
  O   1.09948091653394      1.61822140808640      1.07460383023485
  O   2.52476121250014     -0.03405923893679      1.36191381802569
  N   -1.34067838522767      0.50863349326366      0.42963707615411
  O   -2.03818588717188      1.30048422977065     -0.19049679246944
  O   -1.33714326291751      0.27845315046120      1.63024944306322
  C   -1.03084062554117     -1.04374646545709     -1.43319930742775
  N   -1.54053524484578     -1.67821629672054     -2.28411370428431
