11
Coordinates from ORCA-job run
  C   0.91714045399173     -0.25323331763562     -0.23106131328872
  C   -0.41359846017034     -0.39648251203536     -0.29050976103830
  H   1.60022707327690     -0.88663329376254     -0.78350234193717
  N   1.56092733807528      0.79201397983455      0.55512615893325
  O   2.54800874294300      1.29675539796321      0.02546348854259
  O   1.08718014289624      1.05924129674813      1.65528051072049
  N   -1.34954009566160      0.49599732825529      0.42806311223827
  O   -2.14436281209678     -0.07139390495938      1.16632203507561
  O   -1.25293745256963      1.69293456778248      0.19733739386315
  C   -1.03037187710541     -1.43229467850574     -1.04721381893243
  N   -1.52267305357938     -2.29690486368502     -1.67630546417675
