11
Coordinates from ORCA-job run
  C   0.60552098433500      0.34157427043893      0.54824575314069
  C   -0.45375434131729     -0.20653895832446     -0.06538732704985
  H   0.58352293459431      0.64852422392420      1.58560094719954
  N   1.84865205678038      0.63466760109307     -0.14957664380842
  O   2.11615044655884      0.00354743486426     -1.16875856962598
  O   2.52968296916354      1.51712856128588      0.37330974823848
  N   -1.68931930648607     -0.40899174677296      0.75274780062572
  O   -2.67342471196545     -0.80846172582682      0.14167448698170
  O   -1.61328471670272     -0.15896758414957      1.94716500355323
  C   -0.55880736742379     -0.61035106354479     -1.42307208704690
  N   -0.69493894753675     -0.95213101298774     -2.54194911220822
