11
Coordinates from ORCA-job run
  C   0.92889011260302     -0.27018154781145     -0.18194260210985
  C   -0.39267806871797     -0.31021525500011     -0.39918359327003
  H   1.63466460330866     -0.88316260658919     -0.72873818239064
  N   1.52782395949074      0.57367310143754      0.84321476284810
  O   1.01875384062834      1.66983674859505      1.05805064742863
  O   2.51688909325001      0.09268466665793      1.39169526648721
  N   -1.36183923371973      0.49734214260272      0.37683329492637
  O   -2.03541124278794      1.27304913311085     -0.28803517877474
  O   -1.41057519413123      0.28753912563377      1.58005284284523
  C   -0.97475073324649     -1.12445822824151     -1.40912998639858
  N   -1.45276713667742     -1.80610728039561     -2.24181727159169
