11
Coordinates from ORCA-job run
  C   0.84416870671560      0.27303290973387     -0.42567053069947
  C   -0.45017874947548     -0.07580961943923     -0.44154537939984
  H   1.40735805538784      0.48251247845930     -1.32658407722982
  N   1.62260445486351      0.35468834631617      0.80126648473708
  O   1.02310163724686      0.54570853858202      1.85603012032013
  O   2.83690433577335      0.22758541087850      0.65209414992678
  N   -1.22573230799974     -0.39895454888599      0.77830530347988
  O   -0.97830494742867     -1.47102709232127      1.30980066180701
  O   -2.06386552690765      0.43402424746298      1.09160673235404
  C   -1.19902809619552     -0.15029862276198     -1.64797189609112
  N   -1.81802756198011     -0.22146204802436     -2.64733156920469
