11
Coordinates from ORCA-job run
  C   0.79276560479237      0.35004223515956     -0.43239920437246
  C   -0.44966906392449     -0.14771755662555     -0.43453354297889
  H   1.30355969566452      0.62776367187490     -1.34924694238210
  N   1.54507808543948      0.63732817907707      0.78151391332938
  O   2.59603808238077      0.01014419078381      0.87982429535751
  O   1.09729723102262      1.48936294366077      1.53876781811027
  N   -1.15494200297728     -0.55293445685451      0.80160617205522
  O   -2.37723267881421     -0.46236045964252      0.77005503751492
  O   -0.46162192235516     -0.93447744741581      1.73714494441697
  C   -1.15810980499906     -0.39870370195131     -1.64498617690424
  N   -1.73316322622957     -0.61944759806642     -2.64874631414659
