11
Coordinates from ORCA-job run
  C   0.76527812508475      0.51428091697257     -0.34523164558882
  C   -0.43275053760519     -0.07712502653913     -0.45706080360490
  H   1.22662052554457      1.06382388611284     -1.15639722484942
  N   1.53262606626404      0.51352815866468      0.89158131081333
  O   1.30964332441328     -0.37400956547731      1.71074973314639
  O   2.35475416442322      1.42286200557291      0.99093272467488
  N   -1.09554696505683     -0.80291453577425      0.65099017844424
  O   -1.12929525076028     -2.01844602814349      0.52414816758541
  O   -1.57374665870638     -0.11416058760875      1.53990767072417
  C   -1.17027759574347     -0.06783572729908     -1.67268187990880
  N   -1.78530519785773     -0.05800349648097     -2.67693823143648
