11
Coordinates from ORCA-job run
  C   0.61344734129409      0.20684148947430      0.60117867283541
  C   -0.47968066914666     -0.10011718981534     -0.11336572156656
  H   0.56358384163047      0.49223304665522      1.64343869463619
  N   1.94829872798752      0.24339143574325      0.02317772726741
  O   2.15135235734733     -0.35106843583040     -1.03243086548284
  O   2.76914874950177      0.88896267460876      0.67599568382725
  N   -1.79413585689152     -0.06949971830379      0.60200188535458
  O   -2.77529154298926     -0.35310560538514     -0.07466761010934
  O   -1.77634019733545      0.22819684628276      1.78771135096037
  C   -0.55324338644002     -0.45235878534163     -1.48726447239195
  N   -0.66813936495827     -0.73547575808800     -2.62477534533054
