19

C	-0.036705	0.021652	-0.008739
C	-0.403164	-0.003885	-1.498147
Cl	1.789772	0.106668	0.084084
H	0.074635	-0.882292	-1.948072
C	-0.61966	1.184889	0.769806
H	-0.26556	1.129433	1.803146
H	-1.710236	1.077944	0.766557
H	-0.333981	2.141218	0.337799
C	-0.468735	-1.297402	0.609627
H	-1.566268	-1.325266	0.614186
H	-0.064677	-2.145361	0.049559
H	-0.105057	-1.355353	1.638879
N	0.332689	1.121358	-2.266102
O	0.123573	2.289929	-1.958945
O	1.051508	0.763269	-3.203349
N	-1.788838	0.123233	-1.720952
H	-2.44476	-0.028799	-0.889472
H	-2.094971	-0.491804	-2.463074
H	-3.458331	-0.369515	0.212758
