19

C	-0.037248	0.022415	-0.008383
C	-0.404489	-0.027008	-1.496941
Cl	1.788971	0.115599	0.081819
H	0.07637	-0.910385	-1.9336
C	-0.623824	1.195063	0.753167
H	-0.34203	2.145886	0.306679
H	-0.268649	1.156389	1.786894
H	-1.713997	1.08401	0.752561
C	-0.464008	-1.28873	0.630139
H	-1.561451	-1.320373	0.636046
H	-0.057142	-2.143592	0.082738
H	-0.099478	-1.329723	1.659917
N	0.327048	1.089082	-2.282188
O	0.113724	2.261445	-1.992846
O	1.046912	0.719413	-3.214138
N	-1.790635	0.091504	-1.721559
H	-2.446077	-0.047618	-0.887498
H	-2.094946	-0.537645	-2.45248
H	-3.456553	-0.376093	0.222477
