13

C	0.0	0.0	0.0
C	-0.448529	-0.103185	-1.464228
Br	1.920491	0.0	0.0
H	-0.020421	0.786137	-1.945053
H	-0.366563	0.9029	0.469474
N	-0.438325	-1.143875	0.866811
O	-0.597517	-2.23145	0.333229
O	-0.520755	-0.898911	2.063792
C	-1.91978	-0.056986	-1.747341
N	-2.681197	-0.01229	-2.657286
C	0.13586	-1.24976	-2.17428
N	0.595412	-2.116733	-2.819851
F	-2.407402	0.0	0.0
