13

C	0.0	0.0	0.0
C	-0.445631	-0.007689	-1.470253
Br	1.920389	0.0	0.0
H	-0.059545	0.93858	-1.874291
H	-0.371069	0.865726	0.531803
N	-0.437717	-1.205961	0.775999
O	-0.606458	-2.246124	0.156774
O	-0.512552	-1.059524	1.989538
C	-1.914493	-0.015027	-1.760447
N	-2.67452	0.021204	-2.671648
C	0.201423	-1.061727	-2.264831
N	0.714237	-1.845078	-2.97325
F	-2.409077	0.0	0.0
