18

C	-0.468487	0.008851	-1.462594
C	0.0	0.0	0.0
Br	-0.026061	1.842231	-2.219392
H	1.102002	0.0	0.0
C	0.383198	-0.968576	-2.254146
H	0.182121	-1.980313	-1.892324
H	0.13006	-0.917339	-3.316156
H	1.441952	-0.742726	-2.116299
N	-1.851356	-0.293583	-1.587522
H	-2.123798	-0.322521	-2.56162
H	-2.407461	0.388263	-1.085962
N	-0.457879	-1.162127	0.711105
H	-1.225899	-1.607211	0.228037
H	0.313397	-1.79759	0.854469
N	-0.522883	1.200924	0.747765
O	-1.735177	1.42405	0.660041
O	0.254769	1.838985	1.443218
Br	3.53328	0.0	0.0
