18

C	-0.507669	-0.125131	-1.444289
C	0.0	0.0	0.0
Br	-0.056362	1.612692	-2.390433
H	1.08909	0.0	0.0
C	0.291761	-1.199195	-2.161092
H	0.011191	-1.236501	-3.217184
H	1.361564	-0.997601	-2.069175
H	0.06492	-2.166974	-1.703144
N	-1.903137	-0.398356	-1.497196
H	-2.203647	-0.496972	-2.457923
H	-2.423717	0.340701	-1.042698
N	-0.452091	-1.077971	0.832657
H	-1.266021	-1.531791	0.437908
H	0.306421	-1.728473	0.983861
N	-0.501181	1.282305	0.623304
O	-1.72789	1.432631	0.658575
O	0.312118	2.068797	1.087638
Br	3.510216	0.0	0.0
