17

C	0.0	0.0	0.0
C	-0.331266	0.01605	-1.527183
Br	1.992737	0.0	0.0
H	-1.413043	-0.179027	-1.527827
N	-0.380292	1.232062	0.638218
H	-0.485072	0.993578	1.621796
H	0.343194	1.929467	0.51617
N	-0.767661	-1.093282	0.666352
O	-0.760662	-2.198935	0.047327
O	-0.759404	-1.032349	1.932438
C	0.369264	-0.999299	-2.436019
H	1.402774	-0.722898	-2.643289
H	-0.173833	-1.045523	-3.38539
H	0.331525	-1.971471	-1.950084
C	-0.147903	1.367719	-2.047757
N	0.011785	2.436208	-2.511432
H	-2.083816	0.0	0.0
