16

C	0.0	0.0	0.0
C	-0.593622	-0.052992	-1.395817
Br	2.029375	0.0	0.0
H	-1.694818	-0.078166	-1.077861
C	-0.356163	1.236536	0.705667
N	-0.524655	2.260483	1.256974
N	-0.395544	-1.136551	0.734478
H	0.196231	-1.302569	1.534446
H	-0.41291	-1.924934	0.099293
N	-0.189056	-1.298296	-2.02287
H	0.673765	-1.126612	-2.53175
H	-0.902171	-1.582854	-2.68181
N	-0.180601	1.109984	-2.193924
H	-0.920501	1.2744	-2.870265
H	-0.169955	1.934901	-1.6007
F	-2.845844	0.0	0.0
