16

C	0.0	0.0	0.0
C	-0.476201	-0.015835	-1.511567
Br	1.951355	0.0	0.0
H	0.407469	-0.024781	-2.155271
C	-0.334156	1.279139	0.656238
N	-0.531454	2.25782	1.275745
N	-0.499959	-1.053292	0.83725
H	-1.512937	-0.828741	0.849013
H	-0.413884	-1.902958	0.284629
N	-1.214709	1.210794	-1.765215
H	-2.065522	1.100465	-1.193234
H	-1.48115	1.217481	-2.746007
N	-1.191108	-1.274582	-1.72239
H	-2.073514	-1.117564	-1.21326
H	-1.401321	-1.336091	-2.713237
F	-2.833988	0.0	0.0
