17

C	-0.626701	-0.101806	-1.400442
C	0.0	0.0	0.0
Br	-0.147458	1.562968	-2.456507
H	1.089735	0.0	0.0
N	-0.001161	-1.187407	-2.072913
H	0.022487	-1.974872	-1.434132
H	-0.495103	-1.426216	-2.923698
N	-2.054215	-0.217503	-1.304694
H	-2.453738	-0.26802	-2.23422
H	-2.451011	0.579109	-0.821678
N	-0.421066	-1.143478	0.748622
H	0.165728	-1.251438	1.566106
H	-1.400009	-1.087707	0.995578
N	-0.449412	1.30417	0.657832
O	0.363826	2.207743	0.785349
O	-1.62461	1.354569	1.04911
Cl	3.391661	0.0	0.0
