17

C	-0.481883	-0.020779	-1.468405
C	0.0	0.0	0.0
Br	-0.187421	1.698158	-2.370171
H	1.089882	0.0	0.0
N	0.302497	-0.991979	-2.209554
H	0.226178	-1.858729	-1.681402
H	1.284822	-0.720531	-2.162617
N	-1.893173	-0.294217	-1.512529
H	-2.035381	-1.159727	-0.999369
H	-2.134763	-0.465498	-2.48369
N	-0.425788	-1.237928	0.615807
H	0.320344	-1.558731	1.220535
H	-1.249059	-1.058361	1.179262
N	-0.517406	1.187591	0.775793
O	-1.532021	1.020023	1.462303
O	0.091544	2.24647	0.674389
Cl	3.306166	0.0	0.0
