12
Coordinates from ORCA-job run
  C   -0.63584973043120     -0.22486847446930     -0.55215885629004
  C   0.45114013563159      0.62343904232774      0.13071000091103
  Cl  0.02016190788624     -1.33243651471659     -1.72040128543654
  H   -0.05711339193432      1.26810457729926      0.85765398290526
  H   -1.36925050645171      0.42666270760182     -1.02816418118279
  N   -1.39612104044326     -0.93446944755000      0.56744997864546
  O   -1.95649172675886     -0.15198116029673      1.32898959680246
  O   -1.38464454809328     -2.15133544216980      0.62863691795239
  C   1.12950610685355      1.46788765207673     -0.85423120249872
  N   1.64857592927645      2.15864980615581     -1.64890137936325
  C   1.40193732193730     -0.23021121000253      0.84908801113644
  N   2.14614954252748     -0.91844153625640      1.44132841641830
