12
Coordinates from ORCA-job run
  C   -0.48016920867848     -0.54775115621748     -0.59508296834632
  C   0.75558473580874      0.32993252001294     -0.37253372767475
  Cl  -0.01657686560331     -2.20917421102207     -0.92072447921756
  H   1.31659046375297      0.29782817236347     -1.31575957038461
  H   -1.06464344911038     -0.17719525264260     -1.43758660635605
  N   -1.41353101789879     -0.51023834228537      0.59668549591165
  O   -2.55643812698927     -0.88462893706992      0.37211325441971
  O   -0.95182070263829     -0.11841222201109      1.66236091755373
  C   1.64523493888513     -0.16660779224783      0.68108666095505
  N   2.41697356104084     -0.56379045751080      1.47094783681169
  C   0.34917021419307      1.71916996025481     -0.13801383495388
  N   -0.00037454276224      2.83186771837595     -0.00449297871867
