12
Coordinates from ORCA-job run
  C   -0.48615333569573     -0.54316359018821     -0.59428211587860
  C   0.76945623361356      0.30447536173347     -0.36662832234857
  Cl  -0.06334609610847     -2.22080617254192     -0.89004669669664
  H   1.34225543808622      0.24469521978186     -1.30139805360697
  H   -1.04943414183102     -0.16924224742239     -1.44963212506439
  N   -1.43432996731471     -0.46363280687370      0.58403822264168
  O   -2.58380344237712     -0.81030420918134      0.34877804471589
  O   -0.97639399401645     -0.07012167310797      1.65068559954593
  C   1.63099010381575     -0.20115452233910      0.70594842104726
  N   2.37921645278354     -0.60851152080764      1.51307095395944
  C   0.39709230969410      1.70713672247517     -0.15651357980210
  N   0.07545043935033      2.83062943847177     -0.04502034851294
