16
Coordinates from ORCA-job run
  C   0.75761697277964     -0.12514624099067     -0.15558564737893
  C   -0.63585659043722     -0.34577187526845     -0.77114117329797
  F   0.99046212126305     -1.22610280281087      0.68667164326497
  H   -0.56396737228367     -1.20470385982306     -1.45012631173287
  N   0.75845272462315      1.02051110559783      0.70946000526676
  H   1.49829967183740      0.92870202500761      1.39420859420284
  H   0.89993464711191      1.86196504103534      0.16468228631866
  N   1.73449760820152     -0.05330370534968     -1.18613162193255
  H   1.74292243329988     -0.89556759090091     -1.74896212451773
  H   2.65595428728251      0.09116346383328     -0.79122472195095
  C   -0.98068984780390      0.83185123915174     -1.56877704621040
  N   -1.28099524126729      1.79031920796800     -2.17626652272119
  C   -1.70182507888786     -0.61827674372438      0.29005352724339
  H   -1.74483325526910      0.21602576715685      0.98884409661043
  H   -1.45053380354320     -1.52596687103753      0.83780905065383
  H   -2.67843927690683     -0.74669815984510     -0.17951403381829
