16
Coordinates from ORCA-job run
  C   0.72821215218680      0.18100901156362     -0.17837737646570
  C   -0.69404352784404      0.05699401679068     -0.75021969911900
  F   0.55915316037964      0.36822415076273      1.22555609020843
  H   -0.56814179812675     -0.06463503785866     -1.83031263740762
  N   1.41325148823929      1.27733656363223     -0.75687725537980
  H   0.84960800832348      2.11742781084334     -0.71367072496736
  H   2.27441940863942      1.44956916026855     -0.25066922415083
  N   1.45347559497679     -1.02896831227499     -0.40037094673331
  H   1.34383818590559     -1.64946294076251      0.39011988190483
  H   2.43531229666234     -0.84121595079964     -0.54968988209626
  C   -1.43560337034192      1.29773164073483     -0.51251522176862
  N   -2.01525148366937      2.30125669162327     -0.32323453941817
  C   -1.44705357746047     -1.14409118078983     -0.17779901675817
  H   -0.91576905471310     -2.06107106451637     -0.43427323612993
  H   -2.45067031534545     -1.19940960965224     -0.60159089702450
  H   -1.53173716781223     -1.05969494956501      0.90592468530602
