16
Coordinates from ORCA-job run
  C   0.74406389607285      0.10964012624112      0.02469061294258
  C   -0.64429810611835      0.05898727813717     -0.65902614247863
  F   0.50933358365422      0.02353865776221      1.38691547366979
  H   -0.47380823423877      0.06970589420945     -1.74393336876070
  N   1.48682747311875      1.33220944364108     -0.13884412896617
  H   0.97479120547882      2.12287071667821      0.23558611195630
  H   1.69357612651362      1.50048313434889     -1.11477628304584
  N   1.49434377936260     -1.04221179433434     -0.36499986831406
  H   1.50128725229335     -1.16117986929985     -1.36955904434730
  H   2.44638526210403     -0.93111064432514     -0.03574700281412
  C   -1.37657595969890      1.28354022312978     -0.33098968658279
  N   -1.95468610735455      2.26790245147315     -0.05582301262111
  C   -1.45445843219366     -1.18128900826539     -0.27244359490493
  H   -0.88994689019774     -2.08146413301575     -0.51144196280750
  H   -1.65162905565893     -1.17339149112306      0.79899895851135
  H   -2.40620579313734     -1.19723098525753     -0.80660706143688
