18

C	0.0	0.0	0.0
C	-0.305408	0.002906	-1.531928
F	1.368685	0.0	0.0
H	-0.149818	1.04234	-1.822672
C	-0.409841	1.235078	0.760264
H	0.025895	1.191609	1.75961
H	-1.501159	1.236148	0.77557
H	0.00359	2.098223	0.228834
N	-0.386515	-1.26926	0.709898
O	-0.274906	-2.312086	0.064876
O	-0.628455	-1.210554	1.907694
N	-1.684797	-0.306393	-2.056109
O	-1.993892	-1.486076	-2.13925
O	-2.266478	0.624365	-2.601237
N	0.565514	-0.835397	-2.337298
H	1.523318	-0.613891	-2.098922
H	0.389577	-1.79213	-2.050311
F	-2.500338	0.0	0.0
