18

C	0.0	0.0	0.0
C	-0.357989	0.150003	-1.496812
F	1.371754	0.0	0.0
H	0.410539	0.847894	-1.853709
C	-0.372751	1.174557	0.878986
H	-1.452236	1.173562	0.991159
H	0.160405	1.053515	1.821243
H	-0.032567	2.082895	0.384025
N	-0.401315	-1.297314	0.696008
O	-0.759806	-2.277316	0.055896
O	-0.21447	-1.301752	1.90947
N	-1.626777	0.96475	-1.82941
O	-2.402689	0.480532	-2.643941
O	-1.62344	2.142656	-1.48878
N	-0.266935	-1.053743	-2.251843
H	-0.520106	-0.840571	-3.20675
H	-0.951954	-1.699185	-1.890478
F	-2.490112	0.0	0.0
