16

C	0.0	0.0	0.0
C	-0.425998	0.042442	-1.472657
F	1.390365	0.0	0.0
H	0.341868	-0.478681	-2.051077
H	-0.327037	-0.973979	0.373099
C	-0.546896	1.110081	0.857245
H	-0.254406	0.947002	1.896447
H	-0.159596	2.077251	0.531826
H	-1.638872	1.115797	0.795766
N	-0.22761	1.506227	-1.951097
O	-1.204587	2.248916	-1.973285
O	0.92096	1.835212	-2.255829
N	-1.695747	-0.499041	-1.678599
H	-2.457098	-0.179327	-1.069333
H	-1.999622	-0.4496	-2.639522
Cl	-4.347269	0.0	0.0
