16

C	0.0	0.0	0.0
C	-0.431776	-0.331066	-1.435624
F	1.387521	0.0	0.0
H	0.394575	-0.894085	-1.883351
H	-0.319452	-0.864121	0.589105
C	-0.559595	1.265784	0.600792
H	-0.247322	1.338077	1.644913
H	-1.651865	1.224046	0.56437
H	-0.199845	2.14293	0.065003
N	-0.415861	0.951057	-2.316341
O	-1.308704	1.072178	-3.151471
O	0.541117	1.714421	-2.192976
N	-1.625477	-1.068663	-1.493961
H	-2.408069	-0.657086	-0.96993
H	-1.929002	-1.194621	-2.44872
Cl	-4.239571	0.0	0.0
