16

C	0.0	0.0	0.0
C	-0.35177	-0.056194	-1.500981
F	1.391278	0.0	0.0
H	0.257747	-0.856525	-1.924391
H	-0.331388	-0.951967	0.428481
C	-0.559722	1.150654	0.792224
H	-1.65192	1.123695	0.739515
H	-0.261276	1.049283	1.838446
H	-0.201367	2.105331	0.408248
N	0.22844	1.192773	-2.141832
O	-0.423925	2.227721	-2.03338
O	1.312265	1.095547	-2.718492
N	-1.701617	-0.189977	-1.91762
H	-1.964732	-1.165678	-1.936714
H	-2.386048	0.263701	-1.311886
Cl	-4.231421	0.0	0.0
