16

C	0.0	0.0	0.0
C	-0.530842	-0.216125	-1.415922
F	1.396439	0.0	0.0
H	-1.564147	-0.557238	-1.307664
H	-0.308588	-0.862393	0.595774
C	-0.491556	1.281468	0.619087
H	-1.58329	1.275197	0.623236
H	-0.122121	1.353762	1.644529
H	-0.120296	2.141942	0.057365
N	0.26348	-1.378873	-1.968079
O	1.125753	-1.152546	-2.81103
O	0.026483	-2.480724	-1.475875
N	-0.482	0.87427	-2.33698
H	0.360981	1.42176	-2.225425
H	-1.298568	1.452463	-2.187144
Cl	-3.690431	0.0	0.0
