16

C	0.0	0.0	0.0
C	-0.52961	-0.304003	-1.399641
F	1.396381	0.0	0.0
H	-1.566073	-0.628877	-1.271836
H	-0.309918	-0.82293	0.648528
C	-0.492062	1.317986	0.537369
H	-0.122522	1.454749	1.555934
H	-1.583872	1.310484	0.543452
H	-0.122087	2.141955	-0.077525
N	0.2562	-1.507591	-1.872996
O	1.116894	-1.345531	-2.731894
O	0.012946	-2.571779	-1.306332
N	-0.469052	0.72346	-2.389665
H	-1.283867	1.313483	-2.283763
H	0.375558	1.273253	-2.308253
Cl	-3.692897	0.0	0.0
