16

C	-0.56527	0.003393	-1.419642
C	0.0	0.0	0.0
F	0.054172	0.919151	-2.200971
H	1.089338	0.0	0.0
N	-0.198121	-1.340689	-2.114882
O	-0.76554	-1.519206	-3.191269
O	0.61137	-2.086486	-1.583798
N	-1.948278	0.240167	-1.4462
H	-2.44233	-0.303384	-0.750783
H	-2.316121	0.065943	-2.373191
C	-0.549958	-1.115866	0.754032
N	-1.016169	-2.032977	1.321664
N	-0.442121	1.298145	0.637091
O	-1.322719	1.24984	1.49466
O	0.109583	2.307578	0.224707
Cl	3.152677	0.0	0.0
