16

C	-0.635139	-0.004039	-1.385057
C	0.0	0.0	0.0
F	-1.995019	0.250968	-1.234874
H	1.092713	0.0	0.0
N	-0.126601	1.113061	-2.29453
O	0.925927	1.658269	-2.022533
O	-0.820669	1.297862	-3.290514
N	-0.375255	-1.188211	-2.081528
H	-0.873249	-1.19168	-2.961914
H	-0.581178	-2.01439	-1.538142
C	-0.462848	-1.189781	0.704816
N	-0.843662	-2.197072	1.174794
N	-0.427495	1.210061	0.789352
O	-0.457272	1.082833	2.007901
O	-0.661122	2.238316	0.167028
Cl	3.122074	0.0	0.0
