16

C	-0.364351	-0.037875	-1.481153
C	0.0	0.0	0.0
F	-1.657865	-0.380185	-1.715848
H	1.092211	0.0	0.0
N	-0.214086	1.371656	-2.102972
O	0.59777	2.1245	-1.5821
O	-0.832403	1.566855	-3.144729
N	0.500294	-0.954102	-2.098819
H	0.40106	-0.94104	-3.106007
H	1.468192	-0.814589	-1.803242
C	-0.492657	-1.20204	0.655597
N	-0.902302	-2.156685	1.203307
N	-0.553616	1.176618	0.744044
O	-0.034805	1.420997	1.824686
O	-1.511376	1.76369	0.246283
Cl	3.168813	0.0	0.0
