13

C	0.0	0.0	0.0
C	-0.52135	-0.033092	-1.422802
Cl	1.791241	0.0	0.0
H	-1.628266	-0.109935	-1.270454
H	-0.301312	-0.925314	0.489133
H	-0.239487	0.854717	-1.989221
N	-0.542278	1.099254	0.741097
H	-0.409386	1.95102	0.201627
H	-1.564266	0.889305	0.728619
N	-0.059952	-1.201863	-2.191714
O	0.303211	-1.026008	-3.360462
O	-0.103528	-2.300974	-1.633439
H	-2.986764	0.0	0.0
