13

C	0.0	0.0	0.0
C	-0.467058	-0.012294	-1.442134
Cl	1.790156	0.0	0.0
H	-1.576587	-0.054004	-1.341912
H	-0.331906	-0.920461	0.476932
H	-0.10983	0.860332	-1.988531
N	-0.501304	1.115563	0.744117
H	-1.529678	0.953324	0.718119
H	-0.30247	1.966497	0.224775
N	0.012055	-1.199421	-2.172782
O	-0.14457	-2.294828	-1.631778
O	0.510868	-1.038247	-3.291795
H	-2.895719	0.0	0.0
