11

C	-0.553115	0.066265	-1.426293
C	0.0	0.0	0.0
Br	0.117657	-1.403539	-2.522705
H	1.092761	0.0	0.0
H	-1.638205	-0.054767	-1.429087
H	-0.317224	0.904902	0.531603
C	-0.24262	1.337956	-2.070824
N	-0.06466	2.376638	-2.590628
C	-0.537637	-1.160233	0.700118
N	-1.018894	-2.073548	1.259537
Br	3.452372	0.0	0.0
