11

C	-0.557412	0.029679	-1.425301
C	0.0	0.0	0.0
Br	-0.009885	-1.579969	-2.387498
H	1.09267	0.0	0.0
H	-1.648843	-0.009991	-1.412738
H	-0.324752	-0.927844	0.479772
C	-0.160679	1.214006	-2.178837
N	0.082375	2.182345	-2.797041
C	-0.529975	1.133506	0.751486
N	-0.996505	2.041806	1.331458
Br	3.457713	0.0	0.0
