11

C	-0.555191	0.003375	-1.424742
C	0.0	0.0	0.0
Br	0.1052	-1.516976	-2.460337
H	1.09277	0.0	0.0
H	-1.641453	-0.113393	-1.421382
H	-0.315459	0.926746	0.493241
C	-0.229397	1.240718	-2.124438
N	-0.018927	2.255311	-2.68026
C	-0.531854	-1.127759	0.753998
N	-1.004198	-2.022174	1.349139
Br	3.455296	0.0	0.0
