11

C	-0.463744	-0.011811	-1.460254
C	0.0	0.0	0.0
Br	0.105734	1.630849	-2.34741
H	1.092673	0.0	0.0
H	0.036819	-0.822905	-1.992771
H	-0.356817	0.901532	0.503707
C	-1.909779	-0.13689	-1.608716
N	-3.075691	-0.241772	-1.713628
C	-0.499584	-1.184877	0.690498
N	-0.901351	-2.147764	1.229602
Br	3.453589	0.0	0.0
