11

C	-0.40967	0.04405	-1.469826
C	0.0	0.0	0.0
Br	-2.350733	0.265833	-1.716547
H	1.095069	0.0	0.0
H	0.047399	0.907541	-1.955671
H	-0.357181	-0.916593	0.474839
C	-0.017456	-1.173452	-2.169665
N	0.260736	-2.155005	-2.751848
C	-0.487635	1.16094	0.732011
N	-0.883562	2.095379	1.322115
Br	3.420638	0.0	0.0
