11

C	-0.471356	-0.012126	-1.454535
C	0.0	0.0	0.0
Br	0.058883	1.610642	-2.394146
H	1.092853	0.0	0.0
H	0.042126	-0.825801	-1.971119
H	-0.318798	-0.939216	0.466742
C	-1.916154	-0.178201	-1.584897
N	-3.077815	-0.335074	-1.668331
C	-0.548777	1.115639	0.758531
N	-1.006798	2.00686	1.370316
Br	3.443374	0.0	0.0
