14

C	-0.412973	-0.033452	-1.445478
C	0.0	0.0	0.0
Cl	-2.206199	-0.194314	-1.678255
H	1.093768	0.0	0.0
H	-0.3838	-0.904825	0.479298
C	0.008325	1.158435	-2.173135
N	0.324279	2.119209	-2.77001
N	0.19529	-1.269976	-2.107412
O	0.838702	-1.115183	-3.137963
O	-0.022934	-2.332085	-1.540713
N	-0.455206	1.250635	0.594354
H	-1.180652	1.098885	1.279878
H	0.347188	1.663293	1.052429
F	2.583173	0.0	0.0
