14

C	-0.557489	0.019527	-1.402921
C	0.0	0.0	0.0
Cl	0.10972	-1.319654	-2.371364
H	1.091498	0.0	0.0
H	-0.340276	-0.938465	0.45482
C	-2.019385	-0.060549	-1.434489
N	-3.184833	-0.202577	-1.371876
N	-0.166515	1.315316	-2.127564
O	-0.903987	1.660345	-3.048719
O	0.853545	1.872151	-1.766627
N	-0.519899	1.190557	0.676908
H	-1.103733	0.944801	1.463857
H	0.285056	1.699956	1.020793
F	2.608022	0.0	0.0
