14

C	-0.495825	-0.073096	-1.444277
C	0.0	0.0	0.0
Cl	0.282487	-1.381279	-2.32519
H	1.090548	0.0	0.0
H	-0.401214	0.929366	0.418222
C	-1.946123	-0.243898	-1.531635
N	-3.109997	-0.402711	-1.56147
N	-0.178141	1.27651	-2.110659
O	-0.865194	2.205909	-1.696049
O	0.716175	1.3508	-2.933772
N	-0.45371	-1.195298	0.701014
H	-1.119961	-0.971431	1.426618
H	0.365877	-1.611124	1.126551
F	2.605845	0.0	0.0
