14

C	-0.483892	-0.031022	-1.420832
C	0.0	0.0	0.0
Cl	-0.150836	1.509812	-2.256343
H	1.09338	0.0	0.0
H	-0.387157	0.906226	0.473551
C	0.100113	-1.131628	-2.182873
N	0.572582	-2.010911	-2.801348
N	-2.020317	-0.197938	-1.478157
O	-2.657521	0.389968	-0.613337
O	-2.496918	-0.868894	-2.38655
N	-0.459469	-1.245009	0.617072
H	0.34484	-1.669294	1.062394
H	-1.173075	-1.076247	1.312517
F	2.598771	0.0	0.0
