15

C	-0.504018	0.035031	-1.433213
C	0.0	0.0	0.0
Cl	0.454887	-1.088095	-2.470302
H	1.095041	0.0	0.0
H	-1.523908	-0.350585	-1.480886
C	-0.390244	1.429441	-2.025805
H	-1.046361	2.124531	-1.498231
H	-0.668433	1.409758	-3.081105
H	0.640306	1.77849	-1.937973
N	-0.400733	-1.196749	0.7293
O	-0.861138	-2.159042	0.096495
O	-0.139133	-1.212742	1.940249
C	-0.403131	1.159241	0.763593
N	-0.694611	2.14153	1.34397
H	2.402476	0.0	0.0
