15

C	-0.432203	-0.104507	-1.452261
C	0.0	0.0	0.0
Cl	0.207387	1.327599	-2.332777
H	1.099527	0.0	0.0
H	0.08718	-0.965251	-1.873027
C	-1.930258	-0.187487	-1.659616
H	-2.311801	-1.071957	-1.146189
H	-2.416928	0.705269	-1.261038
H	-2.16741	-0.265553	-2.72425
N	-0.308953	-1.184448	0.753095
O	-0.227461	-1.118583	1.992849
O	-0.418758	-2.255469	0.116153
C	-0.46899	1.186941	0.671661
N	-0.802608	2.201953	1.167142
H	2.345763	0.0	0.0
