15

C	-0.487221	-0.140066	-1.432679
C	0.0	0.0	0.0
Cl	0.456466	-1.408069	-2.301864
H	1.099099	0.0	0.0
H	-1.51608	-0.503782	-1.447701
C	-0.325981	1.16369	-2.195286
H	0.712717	1.494287	-2.131555
H	-0.97027	1.937622	-1.773236
H	-0.58709	1.017582	-3.245159
N	-0.413393	-1.089592	0.871511
O	-0.160444	-0.953264	2.07745
O	-0.876727	-2.122464	0.362491
C	-0.39436	1.251702	0.605191
N	-0.670658	2.308969	1.044137
H	2.395829	0.0	0.0
