15

C	-0.347797	-0.027007	-1.476086
C	0.0	0.0	0.0
Cl	-2.134448	-0.161594	-1.753518
H	1.093665	0.0	0.0
H	-0.089414	0.97315	-1.833741
C	0.403603	-1.049181	-2.303458
H	0.298336	-0.807092	-3.364938
H	0.033214	-2.054771	-2.119444
H	1.456392	-0.991793	-2.009077
N	-0.386077	-1.17359	0.775823
O	-0.351363	-2.270642	0.208148
O	-0.592447	-1.021526	1.985347
C	-0.468093	1.207698	0.647339
N	-0.764405	2.236231	1.134006
H	2.464516	0.0	0.0
