18

C	0.0	0.0	0.0
C	-0.591884	-0.241209	-1.403107
Br	1.965917	0.0	0.0
H	-1.658096	-0.440051	-1.206738
C	-0.365085	1.35126	0.430568
N	-0.573756	2.450317	0.79196
C	-0.468949	-1.015178	1.039942
H	-0.118721	-2.012078	0.777688
H	-1.562163	-0.992335	1.049407
H	-0.077287	-0.73851	2.020325
N	-0.012544	-1.5006	-1.971936
O	0.845378	-1.402861	-2.8506
O	-0.433788	-2.567249	-1.521656
C	-0.428755	0.907381	-2.370806
H	-0.809289	0.616355	-3.351565
H	-1.026838	1.745977	-2.010173
H	0.615317	1.207805	-2.476869
Cl	-3.647648	0.0	0.0
