19

C	-0.409152	0.049195	-1.481296
C	0.0	0.0	0.0
Br	-0.052933	1.906309	-2.150383
H	1.097223	0.0	0.0
N	0.406222	-0.808523	-2.306414
H	1.379641	-0.711674	-2.019292
H	0.129257	-1.771703	-2.152606
C	-1.883113	-0.208108	-1.711539
H	-2.133261	-0.043047	-2.759777
H	-2.473166	0.453676	-1.078827
H	-2.117531	-1.24559	-1.452607
C	-0.448091	-1.316219	0.632054
H	-1.523947	-1.310951	0.828319
H	-0.19495	-2.177845	0.011105
H	0.079295	-1.447004	1.581008
N	-0.594738	1.094125	0.776886
H	-0.390247	0.906805	1.752603
H	-0.085321	1.941204	0.546461
Cl	3.51578	0.0	0.0
