19

C	-0.421703	0.070657	-1.47994
C	0.0	0.0	0.0
Br	0.111224	-1.682653	-2.396647
H	1.094451	0.0	0.0
N	-1.829471	0.272597	-1.614949
H	-2.338365	-0.510404	-1.22274
H	-2.082675	0.356322	-2.592292
C	0.359883	1.137456	-2.22452
H	1.428547	0.978605	-2.065844
H	0.139504	1.109014	-3.295198
H	0.079125	2.118957	-1.835235
C	-0.559069	-1.180475	0.777726
H	-1.652613	-1.125431	0.850834
H	-0.271646	-2.138135	0.344565
H	-0.164813	-1.118668	1.792607
N	-0.400614	1.244791	0.679133
H	-1.233623	1.61834	0.239167
H	0.348036	1.920441	0.590607
Cl	3.520729	0.0	0.0
