15
Coordinates from ORCA-job run
  C   0.64488868177628     -0.69885898294678      0.15804653202352
  C   -0.32114621440904      0.37775082677953      0.62001484774999
  H   1.58497272076109     -0.55012321359946      0.70035753017263
  H   -0.54988265996176      0.24928122354962      1.67920700489304
  N   1.01982046098030     -0.56052033604416     -1.31332191361828
  O   1.18423573352704      0.58785456603483     -1.69724209279023
  O   1.18679903048060     -1.59207462471505     -1.94072715498592
  C   0.10145332549335     -2.02099295872825      0.43183137940882
  N   -0.35367876388612     -3.06470865953557      0.72028013723897
  N   -1.62608752820978      0.34540097680426     -0.10993019101418
  O   -2.55932394094371      0.88533477715384      0.47142415942520
  O   -1.64148918334486     -0.20357493561415     -1.20716292713167
  N   0.29258052175133      1.76139193649241      0.50412751278140
  O   1.35557946605539      1.86825045839963      1.09863141945067
  O   -0.31772165007012      2.61458894596928     -0.11353624360395
