15
Coordinates from ORCA-job run
  C   0.66547002280790     -0.63222418688818      0.25613938098764
  C   -0.35502088391304      0.44902669167879      0.57762365529614
  H   1.60600109857463     -0.37681614291039      0.75138830074650
  H   -0.66103975811349      0.38543552751319      1.62293953490229
  N   1.02008458271287     -0.70244628624482     -1.22419804907233
  O   2.17722243311294     -1.00558775400248     -1.46628725933171
  O   0.11407057495221     -0.49277592965094     -2.01671129317421
  C   0.23595694834373     -1.95790836046686      0.68569121526666
  N   -0.05364829870532     -3.03546855222600      1.05285386582683
  N   -1.63691726655503      0.34511553356363     -0.22991553805883
  O   -2.24082102264237     -0.70124323579619     -0.05146750418541
  O   -1.94988279602041      1.29348639344143     -0.92782870257528
  N   0.22515504108414      1.81235634368852      0.37317699084341
  O   -0.30586387585163      2.70953421988771      1.01622235262238
  O   1.15923320021286      1.90951573841260     -0.41762695009407
