15
Coordinates from ORCA-job run
  C   0.72317926093379     -0.56013054732394     -0.01129158876483
  C   -0.00606645357723      0.77121159995900     -0.06440273141275
  H   1.77314878358716     -0.35269343927736      0.22357317679525
  H   0.49624623809523      1.48601339572692     -0.71208384561768
  N   0.74242965514252     -1.17554296568195     -1.40447025165950
  O   0.79138579728834     -2.39159072419614     -1.47260007024073
  O   0.77479656820889     -0.37122869426827     -2.32749054212231
  C   0.17810431100731     -1.48907054185758      0.96723786337853
  N   -0.21307939427638     -2.20208617040947      1.81452549600220
  N   -0.01554759249786      1.34755325911310      1.33049953984739
  O   1.09081601402873      1.70195405170633      1.72004734380723
  O   -1.07468286900398      1.37584189569401      1.93830490783739
  N   -1.41517746571386      0.64264312410495     -0.54970597926268
  O   -1.96687748354559      1.70549442120297     -0.80394226530966
  O   -1.87867536967707     -0.48836866449255     -0.64820105327785
