14
Coordinates from ORCA-job run
  C   -0.66352939734474      0.30621837051844      0.12091046998420
  C   0.62460506822698     -0.48985990535006     -0.19301365597912
  F   -0.24607010630344      1.53652929765782      0.63386059834322
  H   0.36510926701854     -1.53464632232409     -0.37435142655458
  N   -1.43826502927860      0.40608971314087     -1.04968576057595
  H   -2.35782164566593      0.78563362912393     -0.86496513213226
  H   -0.97027075930567      0.94871922441553     -1.76664866184557
  C   -1.45315741910772     -0.35855033121334      1.17326843607072
  N   -2.13308704997871     -0.85632925607107      1.99067203615524
  N   1.52287774916027     -0.46918569186029      1.02538910809813
  O   2.44870601990646      0.32937996704999      1.03819306026866
  O   1.20241142036624     -1.25859299099337      1.90681497790453
  C   1.30832171496985      0.09194800335960     -1.33879226399135
  N   1.79117016733646      0.56164629254606     -2.30065178574586
