14
Coordinates from ORCA-job run
  C   -0.75706358205948      0.04706393451792      0.34605226825686
  C   0.71576206462385     -0.41466052088701      0.30532878100121
  F   -1.31628425639838     -0.72164213968493      1.37858048925078
  H   1.15119725269875     -0.23076832686483      1.29025134164196
  N   -0.81352944602699      1.43131502566605      0.56096901300836
  H   -1.75463255242908      1.79807065762215      0.51496104098738
  H   -0.35126839062725      1.71652119983959      1.41491349946747
  C   -1.48464497661729     -0.30026971053463     -0.88526788915121
  N   -2.10986048492494     -0.57713070334776     -1.83980241815376
  N   1.47116383952708      0.45678418592082     -0.66657985043679
  O   1.28533518958991      0.23586728489951     -1.85593772596771
  O   2.17190052970383      1.32823287858596     -0.16651574543365
  C   0.84241651698538     -1.81659963815653     -0.05985560957920
  N   0.95050829595461     -2.95278412757632     -0.33609719489172
