14
Coordinates from ORCA-job run
  C   -0.69883486226203      0.10346610846600      0.43480097854252
  C   0.57938504834963     -0.62041243273235     -0.04758346902653
  F   -0.46782071125420      0.32026451182181      1.80649257325075
  H   0.66337574032385     -1.57605022422360      0.47199424167300
  N   -0.97713395286368      1.25963217209240     -0.29755476505076
  H   -1.83743948896662      1.70543210149289     -0.00985397753632
  H   -0.20009280083550      1.90688289162799     -0.31764121797019
  C   -1.82913694210297     -0.83878381480327      0.34179530966501
  N   -2.71891367317712     -1.60161094853834      0.27052717313595
  N   1.79114075348929      0.17740705598882      0.39083800195911
  O   2.56756787968232     -0.38697826506216      1.14775244130553
  O   1.88519255377618      1.31886289975722     -0.04859878636276
  C   0.60355391296856     -0.79710574696503     -1.49107372417205
  N   0.63915654287227     -0.97100630892237     -2.65189477941326
