14
Coordinates from ORCA-job run
  C   -0.69929920858538      0.12884814737310      0.42767448822375
  C   0.55532685249032     -0.64261056124926     -0.04323643238488
  F   -0.47649573485943      0.33024334566569      1.80266386220256
  H   0.59523768771037     -1.60277200298111      0.47332283342849
  N   -0.92331566268355      1.29822499088989     -0.30243537654758
  H   -0.12091982572344      1.91395695976247     -0.31291624012955
  H   -1.76860469044774      1.77620607631190     -0.02200471722570
  C   -1.86437341539912     -0.76806609653629      0.31618025563331
  N   -2.78156560321505     -1.49635187540908      0.23188547660942
  N   1.79169448988316      0.10555875372501      0.41227932968502
  O   1.93552000198014      1.24372905005329     -0.02219874777530
  O   2.53672605347621     -0.49132020159695      1.17575525555727
  C   0.58948679768576     -0.81400544944180     -1.48722396374829
  N   0.63058225768775     -0.98164113656685     -2.64874602352849
