14
Coordinates from ORCA-job run
  C   -0.72176381527410      0.20130874008440      0.35667981787613
  C   0.55542637985169     -0.63419103558061      0.10977850645395
  F   -0.57628653302326      0.65897935240612      1.68031353245187
  H   0.56557571157110     -1.47863049774253      0.80029628750587
  N   -0.90163339997858      1.21112666634277     -0.59124392480882
  H   -0.09885806896666      1.82114369686799     -0.67142842357496
  H   -1.76123387558947      1.72493010226183     -0.45529705405828
  C   -1.88152754326912     -0.70935888999835      0.35091044339511
  N   -2.79717149019170     -1.44432565437885      0.35059841418623
  N   1.76683031812547      0.19679339371622      0.48142603595308
  O   1.93527387765721      1.23496631963784     -0.14982580025174
  O   2.46854048207835     -0.23974664864819      1.38209909262506
  C   0.66924720789869     -1.07632076417548     -1.27127171783694
  N   0.77858074911039     -1.46767478079316     -2.37303520991655
