14
Coordinates from ORCA-job run
  C   -0.67471911721649      0.39038964538434      0.05063366291093
  C   0.59852353942661     -0.45362581610511     -0.17711127438625
  F   -0.30746843466484      1.71384792809241      0.23595671974150
  H   0.30001639123812     -1.47420724724907     -0.42019451937825
  N   -1.52311088458357      0.20068796373008     -1.06571435121413
  H   -2.43244261231413      0.61879465433354     -0.91280277793571
  H   -1.10805493684957      0.59154894114530     -1.90472109040962
  C   -1.35513657733878     -0.06938656881480      1.27538703118344
  N   -1.90297714571542     -0.44929415900370      2.24166499392068
  N   1.45899467200472     -0.56369121698285      1.06706790276183
  O   1.95182315949262     -1.66905382484399      1.26010399646834
  O   1.60026191877848      0.44476946526199      1.74406312368018
  C   1.39418788782791      0.12315178979188     -1.25293982620222
  N   2.00010213991435      0.59506844525998     -2.14139359114072
