14
Coordinates from ORCA-job run
  C   -0.55643544757321      0.49624495408361      0.05125654505096
  C   0.57858666831357     -0.50173720968361     -0.26193391410696
  F   -0.02232434065255      1.74948108093044      0.17181707275539
  H   0.15548747673427     -1.49453728572452     -0.43220775464310
  N   -1.44649229181033      0.51485307439419     -1.06880007038016
  H   -2.07570269492577      1.30583617667709     -0.98874862613088
  H   -1.99282198629511     -0.33634371042002     -1.12594867522110
  C   -1.19927162378053      0.15786418675829      1.34557996462391
  N   -1.78546133365361     -0.12350186099144      2.32465477920771
  N   1.47386058602299     -0.63682804495074      0.94987816817887
  O   1.23455940944964     -1.59702325457711      1.67520473846135
  O   2.31608137370489      0.23515795168634      1.11679126116718
  C   1.34638927135759     -0.04884129779424     -1.41160205049072
  N   1.97454493310815      0.28037523961170     -2.34694143847244
