14
Coordinates from ORCA-job run
  C   -0.51431607938628      0.52753201030844      0.12418831273617
  C   0.53166146300073     -0.51114540127009     -0.33367797869972
  F   0.12033277112766      1.71334193680902      0.37241367008878
  H   0.02867081021511     -1.44303185081883     -0.60252798880596
  N   -1.42150856508863      0.74473151371871     -0.96044761763003
  H   -1.99049828602981      1.56207287903035     -0.76894275622441
  H   -2.02883357994798     -0.05328742018429     -1.10482365606143
  C   -1.15698682388919      0.09163540445119      1.38903916853878
  N   -1.74649377269380     -0.25468348478540      2.34510395200832
  N   1.43869008722027     -0.85203776899725      0.82801746836922
  O   1.13616302626399     -1.86517392623201      1.45046356457422
  O   2.35367230529056     -0.07437184977961      1.06421594530667
  C   1.30811458012037      0.01247752909743     -1.44696097952166
  N   1.93933206379699      0.40094042865235     -2.35706110467895
