16
Coordinates from ORCA-job run
  C   -0.79337788124925      0.19854072455849     -0.03802805645053
  C   0.62713551753588      0.44650795317882      0.51327545279300
  Cl  -1.71883846935723      1.74190226848269      0.30032610401536
  H   0.58451046979486      0.73507649758476      1.56484303715411
  N   -1.35881622329553     -0.93644030267954      0.60087225319614
  H   -1.31904589803274     -0.88049497073922      1.61166406075267
  H   -2.31646977627341     -1.07716855468828      0.30521965811841
  N   -0.74635185561740      0.05773600749609     -1.47163638774456
  H   -1.60512995585918      0.37181057233139     -1.90147416866238
  H   -0.57277287990561     -0.91411376919143     -1.69992327079244
  N   1.30979329829350      1.39130282090196     -0.26812811191149
  H   2.26179264013406      1.53682940133426      0.03419633285431
  H   1.25561055618976      1.14259867413171     -1.24722907979448
  N   1.30062995167639     -0.93775340320423      0.55419790879511
  O   1.73651912766767     -1.37787062654496     -0.50615630474335
  O   1.35381137829826     -1.49746329295253      1.64598057242012
