16
Coordinates from ORCA-job run
  C   -0.61452141007236     -0.28618881613176     -0.26565291077943
  C   0.75660494177639      0.28548918639618      0.14320654332247
  Cl  -0.41572085088507     -1.83872430710427     -1.14372918423474
  H   0.56782316372029      1.26544073296512      0.59768069502357
  N   -1.15528099184295      0.64199051623349     -1.24864007109805
  H   -1.96254824138930      0.23125102139255     -1.70368194415849
  H   -1.45434753078092      1.48653851777957     -0.77102685284562
  N   -1.37078422112572     -0.57700526269466      0.91710207612721
  H   -1.39694776556207      0.21039510791449      1.55363802620141
  H   -2.30731839868092     -0.88330436488577      0.68838241090133
  N   1.70918709503371      0.30927488457557     -0.90064003496550
  H   2.18038234866200      1.19815394201737     -0.96175355492482
  H   1.29853383229181      0.07412851834377     -1.79180946920534
  N   1.27151809411987     -0.51963664695052      1.33416406561005
  O   1.84568881761026     -1.57363157603158      1.11432594191365
  O   1.04873111712497     -0.02317145381954      2.43943426311229
