16
Coordinates from ORCA-job run
  C   -0.72290386950964      0.20558794575758     -0.02452415535089
  C   0.73688273485883      0.31696743320272      0.47715812887981
  Cl  -1.43843459154662      1.87517617142658      0.30920419924396
  H   0.74599375374042      0.62780395699876      1.52156442538161
  N   -1.39325142823392     -0.83083549104478      0.66663030300280
  H   -1.34131169691555     -0.73794150724409      1.67398219759176
  H   -2.35912533189772     -0.91444767243703      0.37722553607993
  N   -0.74733341098115      0.06271676751100     -1.45365013597945
  H   -1.65023231716198      0.31525753107823     -1.83315377992075
  H   -0.51933328294717     -0.89580656647043     -1.69293312596029
  N   1.59187183094942      1.12250456580285     -0.31650224491274
  H   1.64731640195713      2.05990550603472      0.05227955217086
  H   1.24547363662148      1.14228351306649     -1.26910190681505
  N   1.27530549640099     -1.10141494869568      0.49976805713190
  O   1.50379168270337     -1.62079540007455     -0.58737987940564
  O   1.42529039196211     -1.62596180491238      1.59943282886217
