14

C	-0.433063	-0.046919	-1.448119
C	0.0	0.0	0.0
Br	-2.309667	-0.551877	-1.667012
H	1.094611	0.0	0.0
H	0.146896	-0.771848	-2.013541
H	-0.303066	-0.954762	0.441889
N	-0.192996	1.273191	-2.137025
O	-1.015862	2.171752	-1.995524
O	0.866812	1.356703	-2.74875
C	-0.547762	1.165627	0.809436
H	-0.138985	2.114415	0.45974
H	-0.241363	1.043908	1.850373
H	-1.638397	1.22467	0.768275
Br	3.647413	0.0	0.0
