14
Coordinates from ORCA-job run
  C   -0.58956359426600     -0.38972063282751     -0.47741630204157
  C   0.79735721506299      0.28505022631199     -0.37343569256080
  H   -0.48194724471091     -1.18502386151030     -1.23217568091308
  H   1.02240833814792      0.85044245355552     -1.28124604821135
  C   -1.59306238765397      0.54789842916010     -0.99332903846338
  N   -2.43408199478781      1.23274039693534     -1.44216604760024
  N   -0.97636203039035     -0.85134534718120      0.84464780604067
  H   -1.95243085211634     -1.11816935725669      0.85992462558850
  H   -0.41844457018132     -1.65333020189460      1.11584082834675
  C   1.81752142344457     -0.72551069235111     -0.12226162075985
  N   2.59324497895667     -1.59339384749736      0.03394716601740
  N   0.76074576995697      1.29115405306843      0.75727065090777
  O   1.34926490396533      1.01366561758636      1.79175733153822
  O   0.10635004457226      2.29754276390103      0.51764202211096
