14
Coordinates from ORCA-job run
  C   -0.67260667032138     -0.47388354503643     -0.16891014173336
  C   0.61923632386654      0.39416210313462     -0.23795391944535
  H   -0.35020397904688     -1.50514992453390      0.00523110616800
  H   0.38081909276580      1.43158127670981     -0.48186364812671
  C   -1.31880001021558     -0.39717547246542     -1.48536018989769
  N   -1.82552588772004     -0.29427968055864     -2.53935688843655
  N   -1.60162517124023     -0.10985567605287      0.86932902053670
  H   -1.25488028668684     -0.35465008492681      1.78681832146409
  H   -1.85938517411053      0.86794735620234      0.84037422273623
  C   1.59837453859389     -0.15595500833848     -1.16429334280189
  N   2.35971409062950     -0.62175932024326     -1.92810705494051
  N   1.19003082767344      0.40878264770218      1.15601008980414
  O   1.53064992027682     -0.67787346492834      1.61078058513204
  O   1.20220238553549      1.48910879333518      1.73530183954085
