14
Coordinates from ORCA-job run
  C   -0.60068385179355     -0.38919089675590     -0.46367743696197
  C   0.80315044482513      0.25239555326024     -0.38364182652800
  H   -0.51582459939871     -1.20996546266539     -1.19362901337487
  H   1.04080585869395      0.78311796135201     -1.30900263433051
  C   -1.58117267744186      0.55754196201880     -1.00646276030498
  N   -2.40608890336471      1.24913005920843     -1.47446054816046
  N   -0.99538371049834     -0.79961495204062      0.87278828344450
  H   -1.97841039573058     -1.03865343517826      0.89889464479608
  H   -0.45883715104904     -1.60813158452946      1.16665819530721
  C   1.79804596939264     -0.77552144415803     -0.10260916494734
  N   2.55163334222803     -1.65805108110602      0.07794327431206
  N   0.79593049612101      1.29393162250079      0.71521902655318
  O   0.16647168473872      2.30875015781618      0.44593582119222
  O   1.38136349327733      1.03426154027723      1.75604413900289
