16
Coordinates from ORCA-job run
  C   0.74856978567778     -0.28968490323366     -0.01829012360091
  C   -0.76680801208695     -0.52076449772670     -0.03059713336657
  H   1.23967929879542     -1.18571581549186      0.36195083587860
  H   -0.94162568001575     -1.31978524206233     -0.75578037583392
  N   1.17312787643014      0.82951613294305      0.87355788355305
  O   2.32594516379134      0.76999709236661      1.28620299511207
  O   0.34457718520127      1.70451662527692      1.11315233496777
  N   1.34181889753260     -0.06697194390727     -1.38852766883466
  O   1.89430108300244      0.99562634441491     -1.62053632344110
  O   1.20722427005373     -1.02677062183551     -2.13544260404663
  N   -1.46902153433467      0.69734044556586     -0.62563390431097
  O   -2.39405560163841      1.19722371185650     -0.01126879636664
  O   -1.02711746445718      1.05154002570134     -1.71456450309435
  N   -1.35202760055872     -0.85596933346503      1.21428839261226
  H   -1.14928881843037     -1.79946447019786      1.50735654438021
  H   -1.17429884896266     -0.18063355020496      1.94313244639177
