16
Coordinates from ORCA-job run
  C   0.83931061336358     -0.25743236815310     -0.02453997003278
  C   -0.63773505528802     -0.60644913226088      0.04221263701065
  H   1.41207599391751     -1.09688550933132      0.36759371295212
  H   -0.78794050219705     -1.45340801929032     -0.63209234154387
  N   1.19483445522006      0.92789626029968      0.81119408999349
  O   2.37003919880971      1.00866957612637      1.14638856105246
  O   0.28985794818332      1.71276567456820      1.08769450193360
  N   1.34118773987492     -0.03551315124167     -1.43136239853345
  O   1.86184548162389      1.03284548231874     -1.70452149344730
  O   1.18716943593003     -1.00615589639171     -2.15975532851380
  N   -1.49586301379048      0.51275507376176     -0.57597330870178
  O   -1.08678369016068      0.98861404806694     -1.62807202209774
  O   -2.53621418960377      0.79345024829214      0.00062911185635
  N   -0.99355775530472     -0.94771750416732      1.36838311645831
  H   -1.86666759999078     -1.45519137294852      1.39275991913814
  H   -1.09055906058753     -0.11724340964898      1.93946121247558
