16
Coordinates from ORCA-job run
  C   0.63628700877183      0.21210685395792     -0.55300662585916
  C   -0.71340914136488     -0.40921051172536     -0.22256071566332
  H   0.66618052509958      0.65119190342744     -1.54627809223631
  H   -1.00440211070602     -1.00874210108483     -1.08919569496027
  N   1.65917528844407     -0.88898574285285     -0.50808630382367
  O   2.44918961245669     -0.90822273720565      0.42306825793131
  O   1.56104084274453     -1.69077719728625     -1.42778737530542
  N   1.05376801040614      1.27929323162996      0.40587460705801
  O   0.46234123436442      1.34566923628215      1.48099701504997
  O   1.97217772659728      1.99442859034125      0.02557643237528
  N   -1.73479154717061      0.75195522837641     -0.22155864959728
  O   -1.58086384534292      1.60779040232719     -1.08872694073171
  O   -2.63518241716040      0.69837468667582      0.60283421567720
  N   -0.69611132959577     -1.20408980316511      0.93525753409253
  H   -1.52108838900799     -1.78013809821164      1.01290663393976
  H   -0.57331146853596     -0.65064394148646      1.77168570205307
