14
Coordinates from ORCA-job run
  C   0.55927505436494     -0.81467844913018      0.25668889795669
  C   -0.38679859391825      0.14200331193229     -0.45308712386265
  Br  0.50634819327959     -0.34772373318025      2.24126482619190
  H   -0.44415286993315     -0.18328667791394     -1.49550759793013
  H   0.16509238222809     -1.82732397143927      0.24907978659302
  N   1.82529411768591     -0.73543172813089     -0.33371422931814
  H   2.50168109529372     -1.35449160932074      0.08952803750065
  H   2.16350144028387      0.21761745428598     -0.36320502144127
  N   0.05561986348983      1.48197543213102     -0.37310450806102
  H   -0.47360614481407      2.08547109882551     -0.98693109542961
  H   -0.02447404893774      1.82756026028699      0.57542399026510
  N   -1.80592693484370     -0.10034502012169      0.07981219701205
  O   -2.42657090263265      0.86337164344631      0.51284946471892
  O   -2.21628265154638     -1.25371801167112     -0.00009762419550
