14
Coordinates from ORCA-job run
  C   0.94570372752452     -0.30398551703008      0.01007212857536
  C   -0.46991423904380      0.01688313090021     -0.46500460220204
  Br  1.85996516417520     -1.26162633295447     -1.49274820481164
  H   -1.00674665333928     -0.89559402693444     -0.72885841804753
  H   1.51272326253779      0.62149813568315      0.11827128900690
  N   0.93139389617342     -1.00404033058200      1.23380541957746
  H   0.47535775387377     -1.90484328089945      1.16204834045309
  H   1.85884253235932     -1.12404774783430      1.61592606381289
  N   -0.48135144508606      0.94403777893130     -1.53434775831918
  H   -0.13851829358813      1.84657700558590     -1.23009205947510
  H   -1.40539010850426      1.04946097243558     -1.92997440963921
  N   -1.19157430036314      0.54126833553600      0.78049192646852
  O   -1.99305450943658     -0.20538732729148      1.33103734207262
  O   -0.89843678728277      1.68179920445409      1.12937294252787
