14
Coordinates from ORCA-job run
  C   0.56794067952001     -0.84008449059739      0.11941704864311
  C   -0.43325630798982      0.18499098068360     -0.39119309961281
  Br  0.75235451218744     -0.54866986631590      2.12966551221597
  H   -0.61540168858165     -0.04684668487715     -1.44421814549954
  H   0.15490282787129     -1.84405750683068      0.07064739720546
  N   1.75941799796119     -0.72289825580625     -0.60423228555763
  H   2.11182694262331      0.22535727785724     -0.59148671207283
  H   2.46717694267747     -1.38356012111506     -0.31710124814156
  N   0.04394420859224      1.50818569028135     -0.24848278138872
  H   0.07819910951638      1.77005075306521      0.72928006651816
  H   -0.54014752620228      2.16849146061511     -0.74256970698505
  N   -1.78627865136402     -0.08745414985556      0.27936564463136
  O   -2.22771622329259     -1.22448321912538      0.14792393325519
  O   -2.33196282351895      0.84097813202086      0.86398437678889
