14
Coordinates from ORCA-job run
  C   0.89891951575596     -0.24176542260255     -0.03299736368379
  C   -0.55234941227217      0.02235162170689     -0.42916962601234
  Br  1.82184225995816     -0.86698763413914     -1.63088393815378
  H   -0.99687382893179     -0.89396350244181     -0.81522856253342
  H   1.38546795127581      0.70490296121706      0.22748245081819
  N   0.95648731120110     -1.26961589606970      0.98284164014253
  H   1.88273477040241     -1.67489389134344      1.02548566346988
  H   0.76210524069279     -0.84444211194090      1.88374986062023
  N   -0.80344880279191      1.12471582808698     -1.30321645722163
  H   -0.75191252801218      0.84159381215227     -2.27031179114023
  H   -0.16250838282071      1.88949677645840     -1.13621091136157
  N   -1.29906556860261      0.31415742259622      0.85404308816269
  O   -2.37216238898442     -0.24287065347999      1.03852772081202
  O   -0.76923613687045      1.13732068979971      1.60388822608122
