14
Coordinates from ORCA-job run
  C   0.97918330954002     -0.35547965244907     -0.11318818692470
  C   -0.47071236891552      0.07320147708202     -0.31794256286051
  Br  1.55066283155939     -1.21273301046814     -1.79925002780224
  H   -1.10674952752112     -0.81254844817679     -0.44509188905805
  H   1.60001598869326      0.53277154039618     -0.00654699636821
  N   1.21869097265360     -1.24377820419095      0.97150634652807
  H   1.27767886825189     -0.73951021162948      1.84488474199222
  H   0.53914344951314     -1.99053119340429      1.02762960513742
  N   -0.62561913930804      1.10443592318152     -1.30430919838702
  H   -0.07122242160763      0.88833794883656     -2.12203623575358
  H   -1.59578545053510      1.18746972872730     -1.58141487761900
  N   -0.96451648353372      0.69087910376014      0.97778813149348
  O   -0.15703694643482      1.27914030871769      1.69059064329088
  O   -2.17273308235534      0.59934468961733      1.18038050633125
