14
Coordinates from ORCA-job run
  C   0.51567248798399     -0.78293748667784      0.16283793098905
  C   -0.52589365703108      0.19559666245219     -0.38699673848833
  Br  0.65174774344640     -0.49804613617391      2.15393681530623
  H   -0.66114837121857     -0.06800318345466     -1.43863062969997
  H   0.15488854838351     -1.80558381383638      0.07520897707265
  N   1.73385816343823     -0.61514029812515     -0.52831391148564
  H   2.41135694899230     -1.32277864211043     -0.27873084437094
  H   2.13416661916934      0.29922395014605     -0.36214550619400
  N   -0.26571902001932      1.57979253970166     -0.26708974182593
  H   0.08453151030953      1.85159232056290      0.63996230774775
  H   0.28568249586640      1.94727881872459     -1.02546465344779
  N   -1.85657354924864     -0.15763490924120      0.26177838094937
  O   -2.26621983021641     -1.28956677913651      0.01093900583650
  O   -2.39735008985570      0.66720695716868      0.98270860761104
