14
Coordinates from ORCA-job run
  C   0.93121378918035     -0.31915025725113     -0.06176517321501
  C   -0.52544596544311      0.03307549640186     -0.40975124378404
  Br  1.70249481681682     -1.08956612741935     -1.71577488804015
  H   -1.07877099430074     -0.87285162522483     -0.66132384169454
  H   1.48799428379508      0.60407176520517      0.10830695057004
  N   1.11290884727375     -1.19521852856266      1.03783084101172
  H   1.22229391893119     -0.70313582214832      1.91219080769346
  H   0.40387681928127     -1.91174175354660      1.10813521151297
  N   -0.76290737045019      1.04547210742103     -1.38944291683569
  H   -0.13169071562963      1.82694902520858     -1.26446919882894
  H   -0.64846304714425      0.66683906030960     -2.31900337405847
  N   -1.11193856584355      0.51879784215457      0.89058641792296
  O   -0.69314463873074      1.60379912601734      1.28882039687219
  O   -1.91042117773626     -0.20734030856526      1.47466001087349
