14
Coordinates from ORCA-job run
  C   0.88859327457569     -0.20952153892923      0.01780013453048
  C   -0.57424477239320      0.03814524402870     -0.36230949618981
  Br  1.78454150492369     -0.86893074195215     -1.67767096729568
  H   -1.05706241869079     -0.90245254231246     -0.63159937516370
  H   1.38966051169452      0.73840824425324      0.21359113858049
  N   1.00101484236858     -1.06554132883587      1.12088103487839
  H   0.59971451362912     -1.98059607342707      0.96321993513403
  H   1.94522116339342     -1.15110789943644      1.46874275985824
  N   -0.85318631041450      1.03188253679206     -1.35072045423913
  H   -0.63545414174389      0.68201971105241     -2.27323018158278
  H   -0.31926216084109      1.87365989945259     -1.17411883869999
  N   -1.23652925422550      0.48846372083786      0.91579176088763
  O   -0.90766093927362      1.60221912258940      1.31405258800430
  O   -2.02434581300242     -0.27764835411302      1.45656996129754
