14
Coordinates from ORCA-job run
  C   0.93388567594894     -0.33872718858389      0.01170694719261
  C   -0.45946506028605      0.05904150930897     -0.47020651363874
  Br  1.84750130739609     -1.23932506418669     -1.52583781159526
  H   -1.02395522838498     -0.81821536547873     -0.79009491626609
  H   1.52977696474080      0.55795503198863      0.18651387262132
  N   0.86745962346799     -1.10837554930088      1.19139374891716
  H   0.38670904183151     -1.98867025852876      1.05513426309105
  H   1.78080331904627     -1.28007131200688      1.58755370950216
  N   -0.41887529838200      1.03980667144199     -1.48998054619526
  H   -0.04835860016588      1.91221242591519     -1.13467489104717
  H   -1.33112475690239      1.19896242012391     -1.89479980980897
  N   -1.18403278958126      0.54562611516363      0.78842039697093
  O   -0.84667839365701      1.65018273379696      1.20644347990079
  O   -2.03164580507201     -0.19140216965346      1.27942807035548
