14
Coordinates from ORCA-job run
  C   0.58390616380510     -0.79117730076032      0.20455941876094
  C   -0.49610085090038      0.20157947009072     -0.27432256246566
  Br  0.81572391622190     -0.56181996558743      2.14282790934288
  H   -0.64487469284224      0.00607207939078     -1.33991598875402
  H   0.21788367006663     -1.80905679570862      0.07374198498712
  N   1.84716002243755     -0.64871426519227     -0.44461227951955
  H   1.84273275399822     -1.08121773463637     -1.35914378845390
  H   2.13176848200337      0.31959647365050     -0.50930935811154
  N   -0.27557618160078      1.58376867040521     -0.07027385151656
  H   0.23691404249009      2.02332948855297     -0.81718057860689
  H   0.10293671062665      1.80347010466111      0.83963976376361
  N   -1.81067624216132     -0.22550086596985      0.36273024735241
  O   -2.33721313198776      0.51382112583113      1.18090778084106
  O   -2.21558466215704     -1.33315048472756      0.01135130238009
