14
Coordinates from ORCA-job run
  C   0.87173365693429     -0.30117525945089     -0.01125258825994
  C   -0.54690821217512      0.15620184383833     -0.32457315569261
  Br  1.64407668962996     -1.03006553730585     -1.73662825195744
  H   -1.18230593660477     -0.70364721765152     -0.55557218511337
  H   1.49444061620627      0.56695724478225      0.20409426404241
  N   0.89282859365318     -1.19938485455750      1.06425492803593
  H   0.39095934602730     -2.05808556095738      0.88113098515930
  H   1.82487038426902     -1.40084265202238      1.39592343932941
  N   -0.62538580276616      1.21655122109323     -1.26551531998300
  H   0.24186596852449      1.37743348721237     -1.75415774913624
  H   -1.37005589001274      1.08235969744883     -1.93146366624164
  N   -1.08349664195329      0.64921000035401      1.02091315682403
  O   -2.02732835276315      0.02583035897296      1.49903064776541
  O   -0.52429441896929      1.61865722824354      1.51381549522775
