14
Coordinates from ORCA-job run
  C   0.77359408470264     -0.66966865726441     -0.35242990375795
  C   -0.45643855416023      0.19435991683637     -0.61009285209229
  Br  0.17857181652603     -2.59266764222573     -0.37463009029601
  H   -0.94705977216459     -0.11176808935642     -1.53348021364312
  H   1.40410397666517     -0.59295531586118     -1.23702974461167
  N   1.49509440919977     -0.27595353536068      0.79155905102690
  H   0.96717174023795     -0.41091089240154      1.64347373013289
  H   2.39249635361830     -0.73585729445977      0.85050257345699
  N   -0.06030223851580      1.55507681378992     -0.66499821717819
  H   -0.83399773901642      2.17804011503663     -0.85345285397431
  H   0.43480455886586      1.82167856547113      0.17550130571311
  N   -1.51848726844555     -0.07548237483754      0.45898166147294
  O   -1.19175803730439      0.11506940070492      1.63131163759452
  O   -2.63679333020874     -0.39996101007170      0.07278391615617
