14
Coordinates from ORCA-job run
  C   0.90702006975511     -0.45122936200335     -0.05541476606430
  C   -0.46713966781449      0.03348441032959     -0.49603684758312
  Br  1.67751818528246     -1.46747585421518     -1.51981978506774
  H   -1.07842672204792     -0.81324532858610     -0.80550416455155
  H   1.57390287994087      0.40561676435204      0.08824637037450
  N   0.76141307876135     -1.31243254099984      1.10205162122227
  H   1.53201126833640     -1.96484024815038      1.15528592821513
  H   0.77373627415650     -0.73992521226100      1.93896394171313
  N   -0.40494656131343      1.02859815840739     -1.50700773360514
  H   -1.31970650125125      1.25769110692420     -1.87124248794688
  H   0.05710193534942      1.86682239548722     -1.17774405161538
  N   -1.16385937988813      0.56296628665679      0.75702725610176
  O   -2.35121343467294      0.29474524341220      0.90420688159870
  O   -0.49541142459396      1.30022418064641      1.48598783720862
