14
Coordinates from ORCA-job run
  C   0.58637906270799     -0.80885222779472      0.21182941108915
  C   -0.39951990488809      0.15002598093396     -0.43866425995408
  Br  0.56236592565972     -0.42681664899021      2.21399428737032
  H   -0.46881698014548     -0.13254746963364     -1.49270837206935
  H   0.21938381055950     -1.83080088319050      0.16822370408460
  N   1.83714089362987     -0.67030037216174     -0.40012026018207
  H   2.14962826886561      0.29193454925345     -0.39479577909563
  H   2.53846098054173     -1.28816431114885     -0.01771094973842
  N   0.00818993156746      1.49731938718648     -0.31058148769001
  H   -0.54825546551080      2.11084058888304     -0.88939288495031
  H   -0.06310742665778      1.80147394721948      0.65271445455707
  N   -1.80033651748216     -0.15368930239484      0.11065593388979
  O   -2.18166655848863     -1.31331196501716     -0.01177759941829
  O   -2.43684602035894      0.77288872685523      0.59833380210721
