14
Coordinates from ORCA-job run
  C   0.54791318873577     -0.77496782704682      0.37624508255713
  C   -0.37017805533149      0.08326797489417     -0.48085014875945
  Br  0.42448973918366     -0.06491766793104      2.28399093165769
  H   -0.39003279959313     -0.36949790691274     -1.47600048665080
  H   0.15261555709962     -1.78186391073580      0.48035148131565
  N   1.83471014989094     -0.76613483391835     -0.17335029441501
  H   2.49441627692834     -1.32457160491205      0.34902406245792
  H   2.17466873700524      0.17713926709033     -0.30875755997782
  N   0.07209488792244      1.42383374630545     -0.55232629810957
  H   -0.04298170091293      1.88538227391211      0.34170142594339
  H   -0.43223169271695      1.94431574660302     -1.25651693091411
  N   -1.80744326290655     -0.09449174466256      0.02638094701676
  O   -2.21778190251481     -1.24987098980368      0.07181993880616
  O   -2.44025912279016      0.91337747711796      0.31828784907206
