14
Coordinates from ORCA-job run
  C   0.95717337508520     -0.47111561492186     -0.10855121406892
  C   -0.43804265436651      0.04598295464693     -0.49627276959553
  Br  1.62912290139815     -1.48882250989306     -1.64041971237646
  H   -1.09345680108769     -0.77895058625488     -0.77881081009687
  H   1.62602960190306      0.38561820883757      0.00065187720217
  N   1.03311278614701     -1.26645811490499      1.07299680919628
  H   0.30988387278819     -1.97176077952498      1.11787159304676
  H   1.02579610893963     -0.69820474023633      1.90899625661111
  N   -0.38999224297900      1.03692234401289     -1.50306614708121
  H   -1.30905047632541      1.29164308853896     -1.83733638598615
  H   0.10086623991250      1.86191128623066     -1.18324691578288
  N   -1.02318760203309      0.56099903084034      0.82143629446178
  O   -0.54471183328523      1.61093999829126      1.24965104031315
  O   -1.88254327609680     -0.11870456566249      1.37610008415676
