14
Coordinates from ORCA-job run
  C   0.54769353401211     -0.79851213478415      0.32437620750309
  C   -0.41691892930742      0.09756096976251     -0.43757905281879
  Br  0.67362512165621     -0.06483978510145      2.22372244521213
  H   -0.57094228090636     -0.36256493491168     -1.41753082168596
  H   0.11709571287832     -1.78280535414708      0.48761981034583
  N   1.76342053155469     -0.86046401722376     -0.36484462993376
  H   2.13307446911345      0.06238653184231     -0.55248867712996
  H   2.44894934645300     -1.44853896920407      0.08680652460640
  N   0.08004005812848      1.41323821615245     -0.57793023734014
  H   0.08918330733494      1.88808230617773      0.31648834347879
  H   -0.47351668104210      1.95232057622669     -1.22910549587690
  N   -1.79584883916711     -0.00220774815894      0.22949010527947
  O   -2.25458539352023     -1.13456058292757      0.34048432841832
  O   -2.34226995718798      1.03990492629700      0.57149114994147
