14
Coordinates from ORCA-job run
  C   0.59338720672625     -0.78856578447405      0.18929248719836
  C   -0.50440736874384      0.19802857470352     -0.25977489704751
  Br  0.88380469688115     -0.55176757780619      2.11864725492946
  H   -0.68499805158598     -0.00273656259840     -1.31952097132589
  H   0.22815628093191     -1.80855336711471      0.07347812422836
  N   1.83575406704106     -0.64330087543829     -0.49895767153463
  H   1.80368914238389     -1.07706484508346     -1.41240243771206
  H   2.11405423363807      0.32611682540557     -0.57450102862906
  N   -0.28364894647355      1.58172742952931     -0.06832371242562
  H   0.11852570507394      1.80769202371335      0.82978554192754
  H   0.20435452731607      2.02120065361503     -0.83142295996368
  N   -1.79747538859404     -0.23135581682926      0.41885737558849
  O   -2.30120159343276      0.50956486941918      1.24996976433501
  O   -2.20899451116215     -1.34198554704160      0.08487313043124
