14
Coordinates from ORCA-job run
  C   0.81316337823841     -0.76928060989784     -0.26928284050286
  C   -0.45168563446895      0.03876202483930     -0.59860115840761
  Br  0.29447001523798     -2.66239503806717     -0.08561573329033
  H   -0.92107862098282     -0.34397850694174     -1.50449944417353
  H   1.42833873007167     -0.73131962065210     -1.16858332011073
  N   1.58868547905600     -0.34771788696183      0.84182530972592
  H   2.24763017506835      0.37744205770824      0.60198957410468
  H   1.03049104305271     -0.11065625760752      1.64919275629016
  N   -0.09276057610540      1.40995690837548     -0.74820801206973
  H   -0.85749880637130      1.95603614599486     -1.12378358698534
  H   0.19005293905600      1.79878191690082      0.14233123158692
  N   -1.50010239149635     -0.16772216973874      0.48423023699637
  O   -2.55670336017394     -0.70548977890753      0.17241366374420
  O   -1.21200237018236      0.25758081495577      1.60559132309187
