14
Coordinates from ORCA-job run
  C   0.71670587783286     -0.80651707655500     -0.22816197916986
  C   -0.48153199492853      0.09280777225202     -0.55050486108357
  Br  0.29906209688801     -2.70729544465357     -0.33302430034355
  H   -1.04087576935453     -0.30592964739601     -1.39979638338729
  H   1.42520815082586     -0.64653062754345     -1.04967895371044
  N   1.19791135237771     -0.49045422079796      1.08771619307121
  H   2.05363759166930     -0.99552176774131      1.28014702132789
  H   1.39388218326297      0.50598944857150      1.11487687233058
  N   0.02597505680189      1.43674750981895     -0.72890330193782
  H   -0.01906756886503      1.70239245404391     -1.70268690993355
  H   -0.51577402029216      2.08786601066514     -0.17464063942402
  N   -1.44899763323304      0.05746885122773      0.61001593578838
  O   -2.14539864457902     -0.94497522519375      0.69630825968976
  O   -1.46073667840628      1.01495196330181      1.37833304678227
