14
Coordinates from ORCA-job run
  C   0.82756013272861     -0.64145636670835     -0.27299992948865
  C   -0.48127537230112      0.06094953114792     -0.61879245197429
  Br  0.41463366603136     -2.59242170192936     -0.00001016797258
  H   -0.95455402055384     -0.42015115167133     -1.47415121078152
  H   1.43556903763726     -0.63838400493408     -1.17649153004046
  N   1.52552689684414     -0.02030819771168      0.78142893739307
  H   1.02458958919482     -0.07641599661841      1.65817906522883
  H   2.46236910934182     -0.38462887319633      0.88151950401269
  N   -0.21491710928225      1.42896590796572     -0.88092045074808
  H   0.26548915949740      1.85989542685801     -0.10239975436339
  H   -1.04577777483167      1.94511827997851     -1.13667352210820
  N   -1.49828775808752     -0.14429096137209      0.50715993155837
  O   -2.58707050474796     -0.62070065170549      0.20282794096886
  O   -1.17385505147105      0.24382875989697      1.63032363831533
