14
Coordinates from ORCA-job run
  C   0.60667450362728     -0.67853713687357      0.42547135921227
  C   -0.52471528466143      0.10402904125632     -0.27211498983437
  Br  1.06894689983907      0.25840167811851      2.09046533304670
  H   -0.80030748749845     -0.47518531134149     -1.15779915776441
  H   0.23050097773930     -1.65293558122188      0.73558216365097
  N   1.78231526991470     -0.84803169978536     -0.36653271669540
  H   2.05055510318501      0.00937620977162     -0.83111507874017
  H   1.66931194574330     -1.59658352741799     -1.03767906316015
  N   -0.28343605213781      1.44862812264527     -0.63663452454813
  H   0.20859492007226      1.97900045812241      0.06752232696111
  H   0.12088312057870      1.55256110048565     -1.55264893718540
  N   -1.75372949132761      0.00758521012511      0.62160961336143
  O   -2.19496018449826     -1.13201269676049      0.76648017207491
  O   -2.18163424057604      1.02370413287588      1.14839349962065
