14
Coordinates from ORCA-job run
  C   0.83981677022098     -0.63733674970836     -0.24352688523218
  C   -0.46888336710483      0.04389752229179     -0.62954486050737
  Br  0.44075335420966     -2.58764818842271      0.05894777906072
  H   -0.91886701668208     -0.45885155320436     -1.48501027709543
  H   1.46640638618377     -0.64639102686936     -1.13413096282518
  N   1.50898741431827      0.01071966249406      0.81287453851970
  H   0.99024218635652     -0.03219679472977      1.67988292318301
  H   2.44755412771339     -0.34042231402512      0.93965223890032
  N   -0.21149587671330      1.40954321367026     -0.91238720096139
  H   0.24781560723095      1.86028249167246     -0.13234011804866
  H   -1.04199479603794      1.91187379927497     -1.19533656234773
  N   -1.50665313395294     -0.15076003527932      0.47877208455764
  O   -1.21039245523465      0.26347845983691      1.60043593732000
  O   -2.58328920050778     -0.64618848700146      0.16171136547656
