14
Coordinates from ORCA-job run
  C   0.78992558904743     -0.58632565094136     -0.23858022894073
  C   -0.55830156672539      0.06686413507861     -0.54541808694645
  Br  0.47914779362543     -2.55841457469222      0.01338773623244
  H   -1.00509323062672     -0.40107942883745     -1.42167989288345
  H   1.37847323252435     -0.55116911412464     -1.15598458100830
  N   1.49093763802513      0.05726943230630      0.80138494302774
  H   0.99948317633645     -0.00524011969548      1.68334990338809
  H   2.43768626505966     -0.28326745196947      0.89178047417777
  N   -0.47229212885642      1.48368609126453     -0.68782573213923
  H   -0.50539281624770      1.77733499740793     -1.65118501539787
  H   0.34347422819179      1.84713783551264     -0.21411477836582
  N   -1.54655903859364     -0.22686565777028      0.56809768658429
  O   -1.19205122554121      0.05843435788657      1.71048835333793
  O   -2.63943791621916     -0.67736485142568      0.24729921893360
