17

C	-0.446285	0.056947	-1.455276
C	0.0	0.0	0.0
F	-1.80041	0.284303	-1.540666
H	1.089754	0.0	0.0
C	0.303096	1.015884	-2.342297
H	1.369559	0.941767	-2.120794
H	-0.042257	2.024009	-2.132029
H	0.109494	0.764989	-3.387505
N	-0.23178	-1.357759	-2.004027
O	0.908366	-1.628253	-2.363658
O	-1.200433	-2.1082	-2.029748
C	-0.508964	-1.156079	0.704503
N	-0.83588	-2.139851	1.261221
N	-0.32827	1.219311	0.729445
O	-0.715809	1.121665	1.901403
O	-0.04622	2.289523	0.173131
H	2.395901	0.0	0.0
