17

C	-0.443729	0.0003	-1.465302
C	0.0	0.0	0.0
F	0.09182	-1.112783	-2.036751
H	1.092819	0.0	0.0
C	-1.929681	0.017907	-1.724558
H	-2.366944	-0.873334	-1.27258
H	-2.104719	-0.003692	-2.803704
H	-2.389043	0.902586	-1.292292
N	0.183768	1.205807	-2.160501
O	-0.340521	2.28519	-1.888403
O	1.10954	1.014485	-2.932425
C	-0.547312	-1.162286	0.664784
N	-0.923033	-2.133714	1.212566
N	-0.476648	1.224122	0.709693
O	-1.626037	1.221787	1.162935
O	0.319232	2.152724	0.8071
H	2.532218	0.0	0.0
