17

C	-0.399382	-0.005772	-1.461075
C	0.0	0.0	0.0
F	0.041731	1.155462	-2.014643
H	1.092937	0.0	0.0
C	0.187017	-1.190648	-2.176138
H	1.26529	-1.168374	-1.990412
H	-0.021534	-1.106727	-3.244955
H	-0.23905	-2.115846	-1.790552
N	-1.925971	0.001752	-1.647687
O	-2.504902	-1.02296	-1.301299
O	-2.444954	0.998266	-2.134644
C	-0.489164	-1.136417	0.749398
N	-0.803466	-2.048356	1.422149
N	-0.50602	1.262018	0.643343
O	0.315681	2.120349	0.941241
O	-1.725526	1.342718	0.812772
H	2.584731	0.0	0.0
