17

C	-0.442629	0.029066	-1.44748
C	0.0	0.0	0.0
F	-1.795901	-0.256739	-1.563922
H	1.083971	0.0	0.0
C	-0.135688	1.279807	-2.213283
H	0.924212	1.516125	-2.110948
H	-0.722335	2.101071	-1.808477
H	-0.400353	1.112268	-3.255636
N	0.221581	-1.163226	-2.166791
O	0.710005	-2.053334	-1.480723
O	0.174078	-1.151574	-3.395125
C	-0.544512	-1.132518	0.725337
N	-0.909993	-2.054932	1.356072
N	-0.35721	1.242459	0.703704
O	0.223165	2.265892	0.317268
O	-1.10393	1.190486	1.691471
H	2.429538	0.0	0.0
