13
Coordinates from ORCA-job run
  C   -0.79343244293615      0.38645507434733     -0.40571586251203
  C   0.56180011652931     -0.28174250078681     -0.35534468252943
  H   -1.22859247495368      0.30473599693876     -1.40369115565985
  H   0.48502696185916     -1.36128475520805     -0.49035378338740
  H   -0.74634580454552      1.43188041831891     -0.10970790065513
  N   -1.74997050624995     -0.28423136975207      0.53422439539756
  O   -1.42836788224270     -1.37589711040962      0.99529260787312
  O   -2.79683269511049      0.31451045067173      0.73987329265414
  N   1.20155815569688     -0.10921566443427      1.01620488374392
  O   0.74238357292084      0.76109518802724      1.74422370261517
  O   2.13797188345480     -0.85809221858189      1.25178337176798
  C   1.46030785557049      0.29545122876808     -1.34941771820247
  N   2.15349326000699      0.77633526210064     -2.16637115110559
