13
Coordinates from ORCA-job run
  C   -0.75051439880874      0.16753213518987      0.46568799812827
  C   0.55241499789026     -0.32005492025385     -0.15232296614688
  H   -0.66985910625496      1.18098051261200      0.85636143104072
  H   0.40916346978589     -1.31198449502766     -0.58483191996790
  H   -1.07305160945905     -0.52067206190589      1.24771886309468
  N   -1.83342633868761      0.18359467559316     -0.56931833624366
  O   -2.71945659033311      1.01444422601932     -0.41416237288100
  O   -1.77136271130412     -0.66356167990930     -1.45629548031100
  N   1.55486016880143     -0.50319537625785      0.97716218578133
  O   1.20571756707319     -1.30196687410008      1.83880833956486
  O   2.59944702300621      0.13106726554349      0.93792592322193
  C   1.06540987907713      0.60175485210377     -1.15630334455592
  N   1.43265764921349      1.34206174039302     -1.99043032072543
