16

C	0.0	0.0	0.0
C	-0.380482	-0.079818	-1.495557
F	1.386465	0.0	0.0
H	0.110433	0.764419	-1.988409
C	-0.396341	1.29115	0.5956
N	-0.494791	2.293434	1.201402
C	-0.497789	-1.154802	0.83455
H	-1.587576	-1.096048	0.872226
H	-0.061009	-1.082884	1.834522
H	-0.205501	-2.097598	0.369758
N	-1.844149	0.063879	-1.819781
O	-2.296917	1.200434	-1.430387
O	-2.551854	-0.97472	-1.522882
C	0.120259	-1.327661	-2.066467
N	0.547902	-2.315881	-2.534844
H	-2.99236	0.0	0.0
