17

C	-0.693151	0.051137	-1.357721
C	0.0	0.0	0.0
F	-2.050978	-0.181899	-1.116611
H	1.089282	0.0	0.0
N	-0.456115	1.269834	-1.994177
H	-0.483958	2.010901	-1.304579
H	-1.107887	1.419876	-2.752763
N	-0.265307	-1.047064	-2.331554
O	-1.158032	-1.61814	-2.951734
O	0.93555	-1.197707	-2.465475
N	-0.425938	-1.298082	0.670001
O	-0.291003	-2.326745	0.016754
O	-0.858738	-1.239281	1.81966
N	-0.404216	1.152266	0.746964
H	-1.276109	0.983833	1.231527
H	0.316512	1.364437	1.424427
Cl	3.247152	0.0	0.0
