17

C	-0.473589	0.160774	-1.434671
C	0.0	0.0	0.0
F	-1.811152	0.39821	-1.501902
H	1.097675	0.0	0.0
N	0.230811	1.258376	-1.987256
H	1.228044	1.141557	-1.817267
H	0.046462	1.346113	-2.978599
N	-0.242207	-1.099236	-2.297068
O	0.909063	-1.509981	-2.304902
O	-1.175378	-1.512781	-2.972661
N	-0.467007	-1.271833	0.644969
O	-0.374238	-1.30946	1.865544
O	-0.868644	-2.19233	-0.066038
N	-0.518877	1.103169	0.788015
H	0.176935	1.315677	1.493694
H	-0.586054	1.910487	0.179557
Cl	3.257875	0.0	0.0
