17

C	-0.511558	0.056229	-1.437712
C	0.0	0.0	0.0
F	-0.129102	-1.105097	-2.073699
H	1.085796	0.0	0.0
N	-1.88941	0.328441	-1.559205
H	-2.405533	-0.344162	-1.004052
H	-2.159506	0.286231	-2.534157
N	0.175413	1.175202	-2.218289
O	0.035191	1.108625	-3.437101
O	0.734961	2.066721	-1.598011
N	-0.472828	-1.343761	0.539827
O	0.358199	-2.140361	0.947325
O	-1.697055	-1.525306	0.568843
N	-0.497254	1.018571	0.865725
H	-1.301064	1.485969	0.469143
H	0.246469	1.681335	1.034839
Cl	3.318819	0.0	0.0
