13
Coordinates from ORCA-job run
  C   -0.40346758254247      0.36348253302987      0.34355568686911
  C   0.65754303245108     -0.35258782497207     -0.46333100274234
  Br  0.22055671927327      0.55947638565801      2.18457841799316
  H   0.31560852548564     -0.47470601932856     -1.49534892894035
  H   -0.51263536722412      1.38098725501948     -0.03116508923380
  H   0.92773204251785     -1.31622785785521     -0.03478171871032
  C   -1.72179171941157     -0.38739259669176      0.31550127562511
  H   -2.47289355595301      0.13231003593271      0.91065033995502
  H   -1.60636830213691     -1.39634322862430      0.71628905127210
  H   -2.08588007826507     -0.45669382441426     -0.71426086887390
  N   1.91531992586095      0.44959467108103     -0.54728544695098
  O   1.79492143881557      1.62079674518757     -0.89645427879810
  O   2.96935492112878     -0.12169627402253     -0.28594743746471
