9
Coordinates from ORCA-job run
  C   -0.94698135083372     -0.21088162958593     -0.19107948358323
  C   0.35578066527467      0.50357571363828      0.14560361403614
  F   -1.96286645832234      0.72886800207145     -0.19268771548014
  H   0.26463188322683      0.98498617649420      1.12212597484916
  H   -1.18207463179874     -0.97114816622692      0.55576900251716
  H   -0.89932486510496     -0.66844806792835     -1.18073632447142
  H   0.54430347419896      1.28425787541775     -0.59511768541279
  C   1.47520939464555     -0.43467198508215      0.16444320893828
  N   2.35032188871374     -1.21553791879833      0.17167940860684
