9
Coordinates from ORCA-job run
  C   -0.97344050576401     -0.16187834082739     -0.22057654871757
  C   0.33627646625887      0.54292453342381      0.09386732291261
  F   -1.28278239060265     -1.03137829843315      0.80767457775646
  H   0.54787943653441      1.28641611294107     -0.68067499808735
  H   -1.77922002947366      0.57106691081969     -0.30316966903970
  H   -0.90081529331423     -0.73814890033416     -1.14482117251890
  H   0.24304240038314      1.07169954614161      1.04569824676153
  C   1.45719448023367     -0.39224957350475      0.17615814680464
  N   2.35186543574446     -1.14845199022673      0.22684409412827
