9
Coordinates from ORCA-job run
  C   -1.00020284598304     -0.13881541425214     -0.04948082223292
  C   0.36032442339818      0.53557843941168      0.02110150261862
  F   -1.04411190238368     -0.96405234723491     -1.15669460340529
  H   0.37657712772318      1.24313964794211      0.85570705516542
  H   -1.18658812221084     -0.74718783819808      0.83744824744242
  H   -1.78402510102288      0.61480750417763     -0.15330637835942
  H   0.53253339588589      1.10104956101728     -0.89808315663979
  C   1.44327265097238     -0.43166696445767      0.19492506981682
  N   2.30322037362081     -1.21385258840590      0.34838308559415
