9
Coordinates from ORCA-job run
  C   -0.99454867577227     -0.12591028402198     -0.13073104305965
  C   0.41203547701438      0.44258614157877     -0.22640427299380
  F   -0.98783455690118     -1.43683473218957     -0.56696967876285
  H   0.76336830701428      0.36611809135800     -1.25844559257500
  H   -1.35867248459207     -0.11034935528526      0.89816531304827
  H   -1.67061147928905      0.44444843996086     -0.77160175020402
  H   0.39891313405443      1.50303695384253      0.04336860410408
  C   1.34884161259585     -0.26059073654817      0.64909008777972
  N   2.08850866587563     -0.82150451869518      1.36552833266326
