15
Coordinates from ORCA-job run
  C   0.60801810455198     -0.47530767016226     -0.53286806055124
  C   -0.72013282259758     -0.30558094151426      0.20183994570763
  Br  0.87222603649387     -2.37897214075603     -0.85551734956766
  H   -0.72159300552780     -0.86835999489132      1.13624673386808
  H   0.51923121890116     -0.01655039850650     -1.52104390024693
  C   1.80131262466428      0.09038798911255      0.21713770674094
  H   1.72665730730596      1.17801706137798      0.28887165094571
  H   1.86227967417839     -0.32441243457694      1.22506570334066
  H   2.72313439374862     -0.15019753632511     -0.31234474825317
  N   -1.83427465786137     -0.64677626819158     -0.60247855979161
  H   -1.90533636564688     -0.03352842349222     -1.40442771707608
  H   -2.69964422524482     -0.62594822055657     -0.08013472111230
  N   -0.74592644773467      1.16178096628917      0.64671416324766
  O   -0.93721934987377      1.99178719887534     -0.24098308742780
  O   -0.54873248535737      1.40566081331772      1.83392224017612
