15
Coordinates from ORCA-job run
  C   0.64088922465965     -0.81963395371023     -0.12928863830059
  C   -0.80818936933217     -0.40345962881461      0.12968171672730
  Br  1.36190124041322     -1.73606527213426      1.43696530404548
  H   -1.39072539051366     -1.27171211379168      0.43810500754449
  H   0.57826794727767     -1.58582438841402     -0.90384305134993
  C   1.58240890303953      0.28837583498195     -0.56387124972991
  H   1.20805483392910      0.75991269542762     -1.47604008694195
  H   2.56274582827001     -0.13442579943217     -0.78612553643265
  H   1.69685742240248      1.04649796768501      0.20949037370870
  N   -1.36341028570368      0.18248531184384     -1.04678517965624
  H   -0.99103532681254      1.11371728674566     -1.18604253167256
  H   -2.37126516783838      0.24414768952948     -0.97734931109085
  N   -0.88162044096766      0.53628545775736      1.32983030997680
  O   -0.52497106251633      1.69861838375037      1.13444950670448
  O   -1.30090835630724      0.08008052857566      2.38882336646743
