15
Coordinates from ORCA-job run
  C   0.58389629104221     -0.49861328357482     -0.53913215533324
  C   -0.72558082927468     -0.28092087031329      0.21678777980312
  Br  0.78194634584487     -2.41247284272409     -0.84817794841331
  H   -0.72885045201142     -0.83788715202110      1.15463201335495
  H   0.49177590167029     -0.04584722090698     -1.52975323548194
  C   1.80738478110110      0.03571481453926      0.18468759840641
  H   1.87293908420032     -0.37135531490746      1.19544461240187
  H   2.71176018118474     -0.23891616151947     -0.35815683145721
  H   1.76807486543235      1.12578959895877      0.24644174443410
  N   -1.86342076764405     -0.59247323064528     -0.56686844775409
  H   -1.93184010819032      0.02299356104854     -1.36741965973796
  H   -2.71793350827057     -0.54640118702787     -0.02847211834357
  N   -0.69803499491302      1.18885726172712      0.65050344264402
  O   -0.47204419999285      1.43571776933069      1.83197564169719
  O   -0.87907259017896      2.01781425803599     -0.24049243622032
