15
Coordinates from ORCA-job run
  C   0.61129122001303     -0.84298609041997     -0.12225085105339
  C   -0.82229419579020     -0.37297407296988      0.12984141909773
  Br  1.29370299232477     -1.77494346649859      1.45246249362419
  H   -1.43697910382655     -1.21753572299330      0.44164652510350
  H   0.52305174199230     -1.61114486912867     -0.89234324451666
  C   1.59366673905493      0.22732185565499     -0.56097227202464
  H   2.55981287558416     -0.23153205824374     -0.77353561085317
  H   1.24054355831807      0.70254752048058     -1.47969875675978
  H   1.73016250738820      0.98821089732536      0.20605651416498
  N   -1.35219803244263      0.22589743815303     -1.05194292098402
  H   -2.35732513100398      0.32492016365698     -0.98597502181724
  H   -0.94568299226377      1.14215383434354     -1.19518669665184
  N   -0.86580386382071      0.57600518453840      1.32426511130224
  O   -0.46645363223423      1.72349175913084      1.12347760090833
  O   -1.30549468329338      0.14156762697042      2.38415571045977
