15
Coordinates from ORCA-job run
  C   0.84499978769034     -0.00830423364239      0.31385397977207
  C   -0.64622881696087     -0.23136782952501      0.10057609270336
  Br  1.19191517836231      1.90339137021205      0.56469847124296
  H   -0.81525379051080     -1.31224232825186      0.05141725860658
  H   1.12951235960443     -0.46795386069928      1.25965574491288
  C   1.66649640289090     -0.54359958056685     -0.84160270467564
  H   1.39272360276310     -0.04807176364413     -1.77177940622406
  H   2.73076670246082     -0.39757993161772     -0.65360913286895
  H   1.47790289077977     -1.61627211162542     -0.95163566329024
  N   -1.15486279865180      0.39944623642757     -1.05426895124215
  H   -1.06835797798262      1.40548083141594     -0.98396742704643
  H   -2.12705511221801      0.16754994997777     -1.20459454337055
  N   -1.36777883774543      0.16341012883209      1.40798559611279
  O   -2.23280965374387      1.02966239922697      1.34415125384581
  O   -1.02096993673826     -0.44254927651973      2.41711943152159
