15
Coordinates from ORCA-job run
  C   0.55319295067797     -0.37355664068246     -0.53442474211759
  C   -0.76258708306395     -0.17849942353769      0.22732437449432
  Br  0.61293658514586     -2.24334152839811     -1.10286777256260
  H   -0.77900391619349     -0.80670032224509      1.11869657411717
  H   0.51243540704084      0.21132078559768     -1.45638292260504
  C   1.78877021138742     -0.03515973491939      0.27819291922586
  H   2.69273504590964     -0.27194267747746     -0.28354103408872
  H   1.80375050641897      1.03312780888175      0.50847471551694
  H   1.80530188065002     -0.59505656935661      1.21550041808445
  N   -1.98793678447339     -0.32679062014876     -0.49722629585678
  H   -2.20962218734175     -1.30551631326437     -0.61459988122387
  H   -1.92584517360498      0.11511314811690     -1.40594231242635
  N   -0.72333990726461      1.24115750770757      0.73443207089234
  O   -0.57170178145140      1.42215020658166      1.93820844398206
  O   -0.81108575383715      2.11369437314437     -0.12684455543217
