15
Coordinates from ORCA-job run
  C   0.50264433964694     -0.49434984821654     -0.48392198643800
  C   -0.75483554179083     -0.09160034261378      0.29451547819144
  Br  0.44390722308105     -2.43654832745450     -0.69990185318327
  H   -0.74636072926482     -0.54558311502698      1.28609119419583
  H   0.43263244595237     -0.08527958561899     -1.49465832395822
  C   1.79895351036094     -0.08231854303921      0.18792408846781
  H   1.87625618275150      1.00753793220897      0.21443982849117
  H   2.65572208670197     -0.46808055808233     -0.36513894580887
  H   1.84635477963211     -0.46102099807603      1.21097469489933
  N   -2.02623622990304     -0.30064257737212     -0.32791509016421
  H   -1.99711434692081     -0.04381484534143     -1.30664174023252
  H   -2.30403833460901     -1.26823338517124     -0.24274614882764
  N   -0.62003970862311      1.39225023883862      0.52911199492885
  O   -0.38710737037635      1.77931528608832      1.66973148809886
  O   -0.72073830663891      2.09836866887725     -0.47186467866056
