15
Coordinates from ORCA-job run
  C   0.80600475565809      0.04053256716046      0.30170644769350
  C   -0.70840423490680     -0.19309646895742      0.22796059352585
  Br  1.18428871238527      1.95745467232365      0.33814172682085
  H   -0.86495385735234     -1.27483843283479      0.27776957183917
  H   1.17178936656496     -0.34265774988878      1.25524099338453
  C   1.52723989239566     -0.60501945809536     -0.86532858321894
  H   1.31973264174056     -1.68005096999653     -0.87782562338214
  H   1.20625618966237     -0.17133390800037     -1.81365836084699
  H   2.60477501600960     -0.46477813030015     -0.77601050256161
  N   -1.43714302751241      0.33898810640586     -0.86855165091051
  H   -1.34273053022622     -0.23430085461864     -1.69340191332894
  H   -1.19005819157095      1.29933861490340     -1.06561273943364
  N   -1.29927124527807      0.32016131001629      1.53005724256419
  O   -2.00445979195474      1.31864132906597      1.49478871293310
  O   -0.97206569561498     -0.30704062718362      2.53572408492159
