15
Coordinates from ORCA-job run
  C   0.62292649991531     -0.83476789403846     -0.12075187655412
  C   -0.81582123627045     -0.38438344063980      0.13959464165575
  Br  1.33312895530550     -1.74521247948570      1.45391144588171
  H   -1.41456554192727     -1.23606585590070      0.46290204534089
  H   0.54034088776693     -1.60983092180523     -0.88450415717196
  C   1.58483052160620      0.24776103631630     -0.57477899624153
  H   2.55558087269202     -0.19790089774853     -0.79439098933633
  H   1.21620627176527      0.71335711361146     -1.49229203256475
  H   1.71744529955594      1.01434226165215      0.18727145379602
  N   -1.36442955817343      0.19647173483603     -1.04253422757952
  H   -0.97367870479330      1.11787513789930     -1.19628671554790
  H   -2.37039930787029      0.28058504495809     -0.96887952987887
  N   -0.86293128264595      0.57312314133301      1.32649160584822
  O   -1.28245342744496      0.13981909794042      2.39497204266313
  O   -0.48618024948154      1.72582692107165      1.11227528968928
