16

C	-0.464918	0.102667	-1.458015
C	0.0	0.0	0.0
Br	-0.152838	-1.588639	-2.407026
H	1.096501	0.0	0.0
H	-1.550693	0.233947	-1.502384
C	0.268751	1.211162	-2.19563
H	-0.014447	2.185265	-1.787581
H	1.345804	1.076134	-2.070445
H	0.018331	1.203322	-3.257864
C	-0.536712	-1.185156	0.660515
N	-1.024331	-2.105492	1.204541
C	-0.430447	1.245769	0.793531
H	-0.172888	1.111611	1.84547
H	-1.508388	1.423358	0.71764
H	0.110466	2.121686	0.436001
Cl	3.372641	0.0	0.0
