16

C	-0.313557	0.012508	-1.491441
C	0.0	0.0	0.0
Br	-2.260232	0.113221	-1.841752
H	1.099295	0.0	0.0
H	0.076012	0.947477	-1.900227
C	0.281148	-1.175981	-2.218406
H	-0.164085	-2.109119	-1.86688
H	1.354915	-1.189616	-2.003071
H	0.123733	-1.095408	-3.296098
C	-0.480973	-1.223799	0.633807
N	-0.879484	-2.199718	1.153066
C	-0.472232	1.237405	0.759
H	-0.082807	2.130946	0.26419
H	-0.074369	1.218024	1.775509
H	-1.562129	1.296307	0.799625
Cl	3.342285	0.0	0.0
