16

C	-0.460988	0.108013	-1.458795
C	0.0	0.0	0.0
Br	-0.143109	-1.57953	-2.410736
H	1.096501	0.0	0.0
H	-1.546443	0.237238	-1.505796
C	0.272767	1.219329	-2.190993
H	1.349735	1.08598	-2.064527
H	-0.011949	2.192074	-1.780232
H	0.023637	1.214054	-3.253646
C	-0.537182	-1.187852	0.656013
N	-1.024495	-2.088485	1.232118
C	-0.433494	1.240995	0.798664
H	-0.170427	1.105062	1.848999
H	0.100943	2.120944	0.440867
H	-1.512803	1.412565	0.728046
Cl	3.372767	0.0	0.0
