18

C	-0.531907	-0.021992	-1.424173
C	0.0	0.0	0.0
Br	0.400252	1.459011	-2.510549
H	1.094332	0.0	0.0
C	-0.151166	-1.241643	-2.142882
N	0.120686	-2.23697	-2.706637
N	-1.945525	0.136851	-1.498289
H	-2.210272	0.996054	-1.033389
H	-2.250346	0.183368	-2.465246
C	-0.416113	-1.273468	0.734569
H	0.005845	-1.232854	1.743337
H	-1.503637	-1.383814	0.802642
H	0.003718	-2.158863	0.250947
C	-0.452885	1.238224	0.763128
H	-1.508146	1.197459	1.064713
H	-0.273009	2.152795	0.191805
H	0.153828	1.306877	1.671297
H	2.852836	0.0	0.0
