18

C	-0.173822	-0.059365	-1.499605
C	0.0	0.0	0.0
Br	-2.11058	-0.645732	-2.053485
H	1.101653	0.0	0.0
C	-0.104568	1.263009	-2.14098
N	0.011766	2.286254	-2.711032
N	0.756772	-0.990029	-2.024359
H	0.893337	-0.867721	-3.01864
H	1.65242	-0.845021	-1.513942
C	-0.427298	-1.288788	0.684298
H	-1.510428	-1.320889	0.841181
H	0.076193	-1.354141	1.654231
H	-0.131944	-2.154768	0.090454
C	-0.569928	1.233301	0.666238
H	-1.659524	1.281178	0.556924
H	-0.135173	2.150146	0.261769
H	-0.334795	1.202141	1.734013
H	2.777373	0.0	0.0
