18

C	-0.285916	0.090993	-1.5098
C	0.0	0.0	0.0
Br	-0.103372	-1.715149	-2.365783
H	1.098205	0.0	0.0
C	-1.672303	0.478356	-1.792106
N	-2.787306	0.816649	-1.947721
N	0.64637	0.951521	-2.199414
H	0.395939	1.917808	-2.020349
H	1.56585	0.776526	-1.769835
C	-0.588332	-1.188666	0.735569
H	-1.677314	-1.249021	0.612957
H	-0.37287	-1.087311	1.804002
H	-0.144256	-2.12528	0.397504
C	-0.42856	1.306652	0.668028
H	-1.518427	1.401807	0.742986
H	-0.033837	2.182453	0.14635
H	-0.005037	1.328898	1.67631
H	2.912319	0.0	0.0
