12

C	-0.535368	-0.049056	-1.415203
C	0.0	0.0	0.0
F	-0.428336	1.185226	-2.052912
H	1.099772	0.0	0.0
H	-1.592705	-0.340139	-1.433526
H	0.060395	-0.776431	-1.970858
N	-0.33162	-1.297799	0.625519
H	-1.073069	-1.209867	1.308111
H	0.513023	-1.597163	1.100882
C	-0.545147	1.126892	0.743871
N	-1.019428	1.995816	1.380043
F	2.589076	0.0	0.0
