12

C	-0.334033	-0.045116	-1.462835
C	0.0	0.0	0.0
F	-1.702712	-0.020577	-1.751182
H	1.103773	0.0	0.0
H	0.075243	-0.967029	-1.886401
H	0.131328	0.808889	-1.960556
N	-0.500871	-1.213597	0.704133
H	0.108251	-1.957427	0.363442
H	-0.219521	-1.098783	1.674108
C	-0.540912	1.193603	0.628268
N	-0.948376	2.166697	1.147219
F	2.596792	0.0	0.0
