12

C	-0.506277	-0.00344	-1.424197
C	0.0	0.0	0.0
F	-0.097543	-1.179533	-2.058649
H	1.101102	0.0	0.0
H	-0.079751	0.838153	-1.973584
H	-1.601064	0.011831	-1.470962
N	-0.531525	-1.195894	0.703756
H	-0.216835	-1.972532	0.127962
H	0.028892	-1.273127	1.548405
C	-0.504338	1.208386	0.642316
N	-0.898477	2.195354	1.145516
F	2.605691	0.0	0.0
