12

C	-0.536557	-0.049054	-1.414963
C	0.0	0.0	0.0
F	-0.442437	1.190462	-2.043435
H	1.099788	0.0	0.0
H	-1.590961	-0.351212	-1.435504
H	0.067481	-0.766655	-1.974241
N	-0.330541	-1.297625	0.6252
H	-1.031325	-1.203866	1.347117
H	0.527848	-1.61379	1.058487
C	-0.537764	1.12765	0.743944
N	-0.998425	2.005175	1.375694
F	2.592672	0.0	0.0
