12

C	-0.399423	-0.083608	-1.463198
C	0.0	0.0	0.0
F	-0.278352	1.141179	-2.109083
H	1.094782	0.0	0.0
H	-1.442775	-0.410024	-1.589886
H	0.279861	-0.790499	-1.948131
N	-0.330445	-1.247042	0.701374
H	0.491098	-1.835815	0.636753
H	-1.123332	-1.724411	0.285241
C	-0.625723	1.139334	0.65599
N	-1.148588	2.054899	1.175757
F	2.583368	0.0	0.0
