16
Coordinates from ORCA-job run
  C   -0.62943790014514      0.17635843626525     -0.06622137546207
  C   0.68916346699554     -0.04170802841813     -0.28344980680366
  N   -1.31489328226280      1.06264665282770     -0.96774117673503
  H   -1.11337001927428      2.03299739215167     -0.75466463491675
  H   -2.31560865570860      0.92982697021164     -0.92408651895737
  C   -1.46939274093796     -0.47302431104201      0.99355288311838
  H   -0.93030065600086     -1.23205287499156      1.55899246560970
  H   -2.33375926304103     -0.97034101138725      0.53588939484251
  H   -1.86475603762246      0.26796797217934      1.69841676802628
  N   1.31439265001478      0.42439026231052     -1.45656711671374
  H   0.66075292407729      0.93311033096230     -2.03640796104956
  H   2.15782719014734      0.95494232858016     -1.28793735276178
  C   1.59475136138454     -0.86126088718169      0.58524186512164
  H   1.14200457142117     -1.13212992344486      1.53743023317170
  H   2.51054797428837     -0.30142559807849      0.80744805896238
  H   1.89907841666408     -1.77129771094460      0.06010427454737
