16
Coordinates from ORCA-job run
  C   -0.66992434526266      0.19139127768537     -0.00892116001918
  C   0.65746508167083      0.02527107051654     -0.22808834097254
  N   -1.44315676120520      1.19660353807826     -0.64857582271182
  H   -2.19846765047292      0.82988621743983     -1.21354373942030
  H   -0.89313538682500      1.85338059280579     -1.18142872718709
  C   -1.48397005509579     -0.59742318198176      0.97440132662499
  H   -1.79493492519347      0.03341697860099      1.81254099337619
  H   -2.40128236801560     -0.95713974538847      0.49379087816229
  H   -0.95790082735045     -1.47050116297161      1.35671467287016
  N   1.34342922436570      0.61215721414850     -1.32439402007621
  H   2.08697901497388      1.24118863957459     -1.04971952222004
  H   0.73385251774416      1.05874053048047     -1.99272517884931
  C   1.56257548804093     -0.84220473110297      0.59644861180044
  H   1.10034140841798     -1.17690694001629      1.52351823513323
  H   1.89198597656227     -1.71270194060070      0.02126006187549
  H   2.46614360764535     -0.28415835726855      0.86872173161369
