16
Coordinates from ORCA-job run
  C   -0.65746508168802     -0.02527107051810      0.22808834099714
  C   0.66992434518108     -0.19139127785361      0.00892115987629
  N   -1.34342922449600     -0.61215721432614      1.32439401997122
  H   -2.08697901473733     -1.24118864008201      1.04971952185561
  H   -0.73385251797809     -1.05874053044748      1.99272517898482
  C   -1.56257548799406      0.84220473134560     -0.59644861158584
  H   -1.89198597636717      1.71270194079081     -0.02126006150449
  H   -1.10034140836069      1.17690694039180     -1.52351823486861
  H   -2.46614360770542      0.28415835771662     -0.86872173146325
  N   1.44315676106578     -1.19660353826279      0.64857582258276
  H   0.89313538677156     -1.85338059251154      1.18142872772984
  H   2.19846765086028     -0.82988621767166      1.21354373860431
  C   1.48397005506236      0.59742318187872     -0.97440132666052
  H   0.95790082683255      1.47050116210086     -1.35671467400776
  H   2.40128236728682      0.95713974651377     -0.49379087778931
  H   1.79493492626634     -0.03341697906485     -1.81254099272221
