16
Coordinates from ORCA-job run
  C   -0.59847671807110      0.22122032937733      0.11809734844693
  C   0.66637767094390     -0.23098862509999     -0.03866391935452
  N   -0.82152816543354      1.40812159651804      0.90053852353117
  H   -1.52039000344073      1.22574949890695      1.61296855727474
  H   -1.18892668687117      2.15017308028478      0.31427876783317
  C   -1.78138392624224     -0.46250113408307     -0.51885245667993
  H   -2.65609674213523     -0.37867766474551      0.13307673163483
  H   -1.60474301891116     -1.52909429039978     -0.68184394069346
  H   -2.05915509695891     -0.01095262556032     -1.48059286428368
  N   0.96416660464146     -1.38884856722987     -0.78563667460409
  H   1.92529286352794     -1.40766167138891     -1.09296101733775
  H   0.34729874297947     -1.53953311734325     -1.56962133448338
  C   1.85236960784974      0.37610174366268      0.64553727148614
  H   2.56199147980992      0.77725227771735     -0.08746355560020
  H   1.53216356310851      1.17843506081655      1.30477682636648
  H   2.37803982520315     -0.38979589143298      1.22536173646357
