16
Coordinates from ORCA-job run
  C   -0.64591374293019      0.15723551843059      0.12686931352607
  C   0.64591312534820     -0.15723997283956     -0.12686117897035
  N   -1.04774848422961      1.09011224021228      1.12147092318742
  H   -0.27048138856023      1.58980550021252      1.52891171106972
  H   -1.71463358304349      1.75850850080666      0.75349889560144
  C   -1.81210973944301     -0.49533657148132     -0.56179103813439
  H   -2.09827140476755      0.02705244817780     -1.48199034259763
  H   -1.61055635168965     -1.53698908229756     -0.82321505678734
  H   -2.67362799488969     -0.49447827172103      0.10950817672038
  N   1.04773629144149     -1.09017036843875     -1.12141551113080
  H   0.27046422699319     -1.58988062833576     -1.52882852029594
  H   1.71462352580958     -1.75855054880305     -0.75341672818485
  C   1.81211771940842      0.49537474782653      0.56174396671554
  H   1.61057297431980      1.53704418316273      0.82310207420140
  H   2.67363094819204      0.49446804953953     -0.10956197853799
  H   2.09828387804069     -0.02695574445159      1.48197529361733
