16
Coordinates from ORCA-job run
  C   -0.68531701151244      0.12322629952988      0.02522711841468
  C   0.62668287865146      0.07588755934481     -0.29439587076543
  N   -1.54438852031739      0.86292310820937     -0.83628911635805
  H   -1.12739412607607      1.75920450117580     -1.06678821799213
  H   -2.45246429452970      1.01336889948852     -0.41909510017585
  C   -1.36620267882232     -0.61514304109693      1.13399770539333
  H   -2.17967090963476     -1.22979590332443      0.73180439765051
  H   -0.69222525155573     -1.27942884088265      1.67236279310805
  H   -1.81125979211822      0.07864429892848      1.85732762656268
  N   1.05109142051923      0.81504610990997     -1.43499000345412
  H   1.98992291602129      0.56584333686020     -1.71389006643962
  H   0.41723476491790      0.66037932389065     -2.21257500129540
  C   1.71794405727890     -0.58305945029252      0.48851382820863
  H   1.36423588727685     -1.00947792622373      1.42575602265629
  H   2.19425826734976     -1.38258253315803     -0.09162783522548
  H   2.49755239255123      0.14696425764061      0.73466171971189
