16
Coordinates from ORCA-job run
  C   -0.64833076829711      0.13554728368449      0.13947498334268
  C   0.64799522385274     -0.16396233631757     -0.11136378501675
  N   -1.06069657031643      0.95389667809915      1.22329334290228
  H   -1.69304377199527      1.68881290158743      0.93050040930317
  H   -0.28938240726110      1.35220526407522      1.73828017713528
  C   -1.80585038652526     -0.50621763329161     -0.57092528157919
  H   -2.63440197967876      0.20439590863986     -0.65271131168298
  H   -2.18678236258043     -1.37370655218661     -0.02174355266885
  H   -1.54872138765113     -0.81777555620753     -1.58528157201718
  N   1.05107306024722     -1.26590978506666     -0.91024246252066
  H   1.71363615378219     -0.99697565991178     -1.62756005251728
  H   0.27587700897220     -1.75781697729529     -1.32993608869297
  C   1.80626295185553      0.50816516728433      0.56922591028398
  H   1.57490034200992      1.53315394799074      0.86596470579232
  H   2.66315467131862      0.55505925526073     -0.11018023847200
  H   2.13431022226706     -0.04887190634489      1.45320481640815
