14

C	0.0	0.0	0.0
C	-0.363338	-0.275615	-1.48918
Br	2.013638	0.0	0.0
H	0.391264	0.266805	-2.069758
N	-0.435681	1.312404	0.350421
H	-1.474754	1.142052	0.349015
H	-0.124219	1.516125	1.294745
C	-0.377948	-1.086484	0.915018
N	-0.542651	-1.92902	1.719537
C	-1.659225	0.23051	-1.987274
N	-2.393124	0.630104	-2.818415
C	-0.216892	-1.696001	-1.817604
N	-0.082758	-2.82968	-2.093717
F	-2.521834	0.0	0.0
