21

C	0.0	0.0	0.0
C	-0.353007	-0.044357	-1.497342
F	1.413973	0.0	0.0
H	0.288072	-0.848254	-1.887942
C	-0.476899	1.244542	0.71855
H	-1.567402	1.308706	0.669276
H	-0.180139	1.198764	1.770035
H	-0.040347	2.143091	0.279884
C	-0.450722	-1.250323	0.727454
H	-1.536789	-1.252555	0.843455
H	0.012522	-1.279608	1.717641
H	-0.147698	-2.144569	0.175709
C	0.046364	1.247822	-2.210605
H	1.0556	1.562936	-1.935284
H	-0.653423	2.054784	-1.977362
H	0.019336	1.097062	-3.293984
C	-1.804518	-0.39557	-1.794907
H	-1.969774	-0.370888	-2.877346
H	-2.521915	0.283547	-1.332406
H	-2.073602	-1.392743	-1.444986
Br	-4.892232	0.0	0.0
