15

C	-0.571342	-0.015034	-1.424651
C	0.0	0.0	0.0
Br	0.156961	-1.42352	-2.523717
H	1.098297	0.0	0.0
H	-1.649154	-0.157778	-1.379091
N	-0.365498	1.313855	-2.08728
O	0.737437	1.599579	-2.528984
O	-1.34948	2.060823	-2.060891
N	-0.560151	-1.184881	0.660484
H	0.010208	-1.983905	0.400384
H	-0.397153	-1.024643	1.648845
N	-0.427794	1.170569	0.735935
H	-1.358604	1.473093	0.477786
H	0.230012	1.924023	0.589456
Br	3.585237	0.0	0.0
