15

C	-0.479235	-0.034209	-1.449998
C	0.0	0.0	0.0
Br	0.309815	1.342728	-2.545736
H	1.09885	0.0	0.0
H	-0.227738	-0.996906	-1.88349
N	-1.982114	0.074362	-1.494975
O	-2.504716	1.182801	-1.533016
O	-2.58377	-0.996367	-1.416574
N	-0.409307	-1.234916	0.639736
H	-1.279187	-1.081767	1.135119
H	0.310825	-1.518832	1.29262
N	-0.559909	1.166608	0.690204
H	-0.402625	1.997204	0.12573
H	0.005375	1.289571	1.52716
Br	3.542307	0.0	0.0
