15

C	-0.484201	0.071542	-1.443549
C	0.0	0.0	0.0
Br	-2.40582	0.309904	-1.594187
H	1.098355	0.0	0.0
H	-0.016148	0.89759	-1.976281
N	-0.069719	-1.165729	-2.197656
O	1.025675	-1.073703	-2.747027
O	-0.79848	-2.147688	-2.192694
N	-0.449876	-1.204702	0.641485
H	-1.3468	-1.046695	1.085135
H	0.233581	-1.498247	1.32683
N	-0.477097	1.208654	0.700926
H	0.034006	1.220467	1.580613
H	-0.141562	2.025768	0.194357
Br	3.527534	0.0	0.0
