12
Coordinates from ORCA-job run
  C   -0.63297373512464      0.17618883696477      0.09242469371754
  C   0.17360451997955     -0.43414861547079     -1.05244941586460
  Br  -2.52472597455333     -0.12111766477353     -0.21618623004562
  H   -0.06791634778270     -1.49559621068435     -1.12649391134245
  H   -0.11847134220850      0.05927464459928     -1.98301306359178
  N   -0.28563807391046     -0.54640903559597      1.41098577889803
  O   -0.37544721087129      0.11554048356875      2.43306844043461
  O   0.00470775965597     -1.72840098584624      1.30562190384818
  C   -0.37873170121031      1.59733976928582      0.25602253421391
  N   -0.15526695898755      2.74969397511307      0.32842257990136
  C   1.60584466958654     -0.26000119142615     -0.82081816746291
  N   2.75401439542670     -0.11136400573466     -0.62758514270628
