12
Coordinates from ORCA-job run
  C   -0.50506145342548      0.26482019881012      0.09891719491436
  C   0.73068402518198      0.13996130351807     -0.79335177544407
  Br  -2.09679396062481     -0.35582666861691     -0.80686914730907
  H   0.61200365388385      0.84082650138028     -1.62468331481269
  H   1.60923197383907      0.43915337903305     -0.21546475908719
  N   -0.33510284494240     -0.56984280797400      1.39252185019987
  O   -1.25784941107290     -0.51039797454966      2.18700337312196
  O   0.71520872346585     -1.18662716038833      1.50498898963295
  C   -0.69213818185390      1.64575389805253      0.52076082520281
  N   -0.79507815192224      2.77385931101725      0.83679154492994
  C   0.92188101948993     -1.20725380428947     -1.32066603862087
  N   1.09201460798105     -2.27342617599294     -1.77994874272801
