12
Coordinates from ORCA-job run
  C   -0.63640776780568      0.17661282157672      0.07088106947731
  C   0.19896818118994     -0.47665174201585     -1.02900808809846
  Br  -2.51907279634696     -0.14504818930293     -0.26588753829722
  H   -0.03665114393634     -1.54146315719076     -1.06452914616080
  H   -0.07255504348131     -0.02348209772839     -1.98586323734788
  N   -0.31254078009167     -0.48904968781918      1.42496232033358
  O   -0.03980840993170     -1.67891440955298      1.37576145788235
  O   -0.39889417392005      0.22077665563287      2.41473242068721
  C   -0.39342211358077      1.60503196522016      0.17869820710377
  N   -0.17944005115350      2.76124930256783      0.20220575871987
  C   1.62446279885479     -0.28642322241798     -0.77006432975450
  N   2.76636130020326     -0.12463823896950     -0.55188889454523
