12
Coordinates from ORCA-job run
  C   -0.53086090420769      0.33752505304805      0.03284621443064
  C   0.80403536413604      0.14667300423575     -0.70243041211842
  Br  -2.02880490517279      0.01738586971344     -1.12586491272194
  H   0.84732429437595      0.84982513902763     -1.53779257773446
  H   1.61244789621442      0.38301183050616     -0.00470277715249
  N   -0.52009822295012     -0.65963952472120      1.22697691047158
  O   -1.30453760356747     -1.58833857516630      1.22973035190707
  O   0.35000144933631     -0.40043416292045      2.04805107597586
  C   -0.61369078895580      1.67925463427075      0.58993294133986
  N   -0.65830954397136      2.77657250705413      1.01024170282005
  C   0.95516919571699     -1.22040599583330     -1.19039828497147
  N   1.08832376904549     -2.32142977921468     -1.57459023224633
