12
Coordinates from ORCA-job run
  C   -0.51041010957607      0.16311727219469      0.14099158184671
  C   0.66766897100079     -0.55817914567932     -0.53257664351586
  Br  -2.07670420275176      0.13637844097737     -0.97521239248308
  H   0.36424255407565     -1.58753525707072     -0.74518146890471
  H   1.50497416399055     -0.57281232710069      0.17373290021834
  N   -0.75886709264076     -0.63950050174114      1.44425069009946
  O   -0.09179061388236     -0.26962856477689      2.40147105457914
  O   -1.50151699224370     -1.60261028472191      1.37663108341103
  C   -0.18262726621673      1.53373133325545      0.49585044055443
  N   0.09901842535201      2.64949196530950      0.73793035512760
  C   1.07486655613042      0.10752739044127     -1.76370851710902
  N   1.41214560676196      0.63901967891239     -2.75417908382403
