16

C	0.0	0.0	0.0
C	-0.55055	0.009099	-1.414745
Cl	1.85116	0.0	0.0
H	-0.159044	0.889638	-1.942491
H	-1.633111	0.147197	-1.238965
N	-0.426528	1.197293	0.641931
H	-0.174932	1.201964	1.621236
H	-0.045079	2.01779	0.18855
C	-0.490518	-1.202679	0.768367
H	-1.588868	-1.126603	0.766592
H	-0.11162	-1.18501	1.795458
H	-0.162758	-2.117891	0.275957
N	-0.28009	-1.232923	-2.138761
H	0.244172	-1.052335	-2.981807
H	-1.16531	-1.652262	-2.395854
H	-3.651031	0.0	0.0
