16

C	0.0	0.0	0.0
C	-0.471421	-0.042591	-1.445244
Cl	1.810681	0.0	0.0
H	-1.568134	-0.083438	-1.358942
H	-0.188452	0.91428	-1.906208
N	-0.515211	1.220393	0.566507
H	-1.542543	1.107914	0.458793
H	-0.33506	1.204001	1.567141
C	-0.428838	-1.251963	0.748543
H	-0.074247	-1.207486	1.78365
H	-0.043579	-2.150189	0.265731
H	-1.525883	-1.245974	0.731804
N	0.011299	-1.22212	-2.162946
H	-0.585013	-1.375944	-2.966082
H	0.949796	-1.049837	-2.50166
H	-3.227802	0.0	0.0
