16

C	0.0	0.0	0.0
C	-0.359908	-0.060044	-1.513837
Cl	1.799864	0.0	0.0
H	0.426284	0.462672	-2.069462
H	-0.30204	-1.12128	-1.812923
N	-0.47925	1.185279	0.664163
H	-1.481876	1.029454	0.804133
H	-0.423764	1.956816	0.006529
C	-0.493498	-1.215425	0.755936
H	-0.210597	-1.130142	1.8078
H	-1.587835	-1.233418	0.672027
H	-0.068566	-2.130513	0.337548
N	-1.629099	0.603163	-1.789668
H	-1.962468	0.285698	-2.692483
H	-2.366048	0.319095	-1.10521
H	-3.521716	0.0	0.0
