16

C	0.0	0.0	0.0
C	-0.471081	0.043776	-1.444997
Cl	1.810738	0.0	0.0
H	-1.56792	-0.0002	-1.361101
H	-0.186451	1.026014	-1.848353
N	-0.514696	1.185462	0.638735
H	-0.335763	1.107818	1.636628
H	-1.541969	1.079348	0.524808
C	-0.430389	-1.292707	0.673085
H	-0.076782	-1.310357	1.709635
H	-1.527628	-1.284027	0.65553
H	-0.046422	-2.162253	0.138856
N	0.008696	-1.09171	-2.232145
H	0.956428	-0.911325	-2.540592
H	-0.573563	-1.180862	-3.055136
H	-3.224569	0.0	0.0
