16

C	0.0	0.0	0.0
C	-0.459348	-0.032921	-1.461905
Cl	1.80822	0.0	0.0
H	-1.554545	0.034566	-1.404232
H	-0.071847	0.870148	-1.94216
N	-0.509831	1.222524	0.566394
H	-0.332267	1.211826	1.567362
H	-1.537859	1.117781	0.457008
C	-0.440502	-1.242627	0.756868
H	-0.114929	-1.178694	1.799862
H	-0.029362	-2.15917	0.32596
H	-1.538002	-1.242929	0.711387
N	-0.09848	-1.203423	-2.250794
H	-0.647425	-1.992216	-1.931914
H	0.879431	-1.426911	-2.100484
H	-3.206451	0.0	0.0
