14

C	-0.308767	0.016501	-1.499145
C	0.0	0.0	0.0
F	-1.689231	0.064135	-1.686268
H	1.094429	0.0	0.0
H	-0.367732	0.914677	0.469041
N	0.27257	1.205177	-2.040788
H	1.210694	1.31676	-1.664737
H	0.34663	1.081822	-3.044189
N	0.130981	-1.165559	-2.205885
H	1.129787	-1.264178	-2.042823
H	-0.329145	-1.983922	-1.820326
C	-0.547114	-1.174536	0.65554
N	-0.992762	-2.139862	1.153673
Cl	3.330417	0.0	0.0
