14

C	-0.385844	-0.242939	-1.468412
C	0.0	0.0	0.0
F	-0.057655	-1.567161	-1.719149
H	1.091067	0.0	0.0
H	-0.383183	-0.803337	0.631501
N	-1.795014	-0.097126	-1.690482
H	-1.943803	-0.003312	-2.688191
H	-2.149327	0.728424	-1.225128
N	0.402659	0.524884	-2.40449
H	1.388563	0.363199	-2.19772
H	0.224422	1.510786	-2.243383
C	-0.501771	1.287563	0.454609
N	-0.97745	2.316724	0.76286
Cl	3.367609	0.0	0.0
