14

C	-0.371224	-0.060316	-1.479781
C	0.0	0.0	0.0
F	-0.091449	1.268086	-1.962934
H	1.093271	0.0	0.0
H	-0.355609	0.937215	0.432899
N	0.452562	-1.004213	-2.135245
H	1.415686	-0.887359	-1.824254
H	0.41524	-0.860731	-3.137444
N	-1.754199	-0.33122	-1.713835
H	-2.293805	0.486193	-1.457758
H	-1.905103	-0.519091	-2.697675
C	-0.517465	-1.133747	0.752935
N	-0.922798	-2.030209	1.392562
Cl	3.384687	0.0	0.0
