13
Coordinates from ORCA-job run
  C   0.64437571695970     -0.41478779436537      0.21531029078209
  C   -0.38402106386594      0.69056033256376      0.53120198921684
  F   0.53324421342301     -1.37434238835730      1.19729023226979
  H   -0.11931244987416      1.62790312331878      0.04506507649966
  H   -0.45942513851802      0.82654750791654      1.61146502879818
  N   0.54758562616535     -1.06844922378749     -1.04674205325296
  H   -0.37777161681612     -1.44905331360010     -1.19671416137362
  H   0.83827568668218     -0.48524434815578     -1.81864781287059
  C   1.98179027839174      0.21123021424501      0.32692652080437
  N   3.02075871412122      0.74948535724382      0.41779805807617
  N   -1.73778736596159      0.32209168275184      0.03133586065725
  O   -2.13685339353160     -0.81084310719916      0.29227834163466
  O   -2.35085920717577      1.17490195742546     -0.60456737124183
