13
Coordinates from ORCA-job run
  C   0.55342453295611     -0.33066285455969      0.21981872051901
  C   -0.35145330363295      0.89363122695171      0.07590109233103
  F   0.01066358389524     -1.08520395478689      1.27909385359032
  H   -0.09087521333690      1.45361289265586     -0.82240336917929
  H   -0.29158253940342      1.51717066492372      0.96437075023790
  N   0.69571631652764     -1.05561306880578     -0.97552661976964
  H   1.29094789430590     -1.86412548970590     -0.85300125992729
  H   -0.20592566623761     -1.31580153267286     -1.35391147392610
  C   1.88142131270931      0.12671569401119      0.67807860216645
  N   2.92879248264841      0.51145981539016      1.04213647139385
  N   -1.78231516966642      0.48111220593812     -0.04719008477510
  O   -2.05905342323595     -0.32266091271917     -0.93634155628838
  O   -2.57976080752933      0.99136531337956      0.72997487362726
