13
Coordinates from ORCA-job run
  C   0.44170554960841     -0.43205969390542      0.06729872907832
  C   -0.75479176177127      0.37567507136669     -0.42005210008372
  F   0.05037664435132     -1.04050353692367      1.26968230166503
  H   -1.54190152952516     -0.29808483479228     -0.75560846450600
  H   -0.45686079719765      1.05574276232683     -1.21765180113046
  N   0.78841113065749     -1.36417247217434     -0.93736161901257
  H   0.03718708939081     -2.02349787380802     -1.09882487946430
  H   1.64108717236103     -1.86053026874486     -0.71341240543140
  C   1.62352813635242      0.39666655320264      0.37067507454399
  N   2.61028691533545      0.99655072157584      0.57924918219504
  N   -1.33673638015045      1.19202475127394      0.68322297821693
  O   -0.57548058889508      1.97486173129175      1.24275205194288
  O   -2.52681158051732      1.02732708931090      0.93303095198625
