13
Coordinates from ORCA-job run
  C   0.60767349048310     -0.28013506001240      0.12971227756289
  C   -0.37180647730664      0.88801603532616      0.00865475565077
  F   0.37944233724766     -0.84074305161695      1.40212518674303
  H   -0.13480488126816      1.66002344808869      0.73644493783735
  H   -0.36627630837797      1.28292933316335     -1.00748050002756
  N   0.49780849005666     -1.20395578266018     -0.92333547950093
  H   1.14907854424965     -1.97058346041531     -0.81747717185659
  H   -0.45249753097916     -1.53806214444069     -1.01847702352499
  C   1.97918815751526      0.26851662142014      0.16125126961762
  N   3.06005753626305      0.72545053225856      0.18380688581476
  N   -1.76529255299864      0.44298421153553      0.31323712331849
  O   -2.37974522932165      1.07375339264510      1.16467179810961
  O   -2.20282557556316     -0.50919407529202     -0.33113405974445
