13
Coordinates from ORCA-job run
  C   0.52408852725631     -0.33230204587747      0.03315115110681
  C   -0.91457011094894      0.11440459152168     -0.19485091978031
  F   0.69444649872557     -0.43880046438999      1.42197352649706
  H   -1.59586220678744     -0.69833067046796      0.05271250143266
  H   -1.05434415935301      0.44102809090679     -1.22497126070737
  N   0.72290446663494     -1.55690756236691     -0.64438665111235
  H   1.68981520418516     -1.85323142452904     -0.61165495697164
  H   0.12595308789795     -2.28353039392661     -0.26911689445523
  C   1.52301098758819      0.64062653485443     -0.44779891410877
  N   2.36284269495319      1.35087826157839     -0.85673272843411
  N   -1.27036583062192      1.25387424493534      0.69785761345548
  O   -0.56523643954133      2.25435724579490      0.61300032320595
  O   -2.24268271998867      1.10693359196644      1.43181720987181
