13
Coordinates from ORCA-job run
  C   0.45724123604780     -0.47909796344597      0.10063212633193
  C   -0.89504345351240      0.14301127002536     -0.24140871135764
  F   0.36618555087345     -1.08537456451022      1.35352056968518
  H   -1.68150380627057     -0.58248932241449     -0.02129272350722
  H   -0.91459473700709      0.44274095147881     -1.28571608181841
  N   0.79793788692657     -1.40099312994692     -0.92212196952154
  H   1.71308593269054     -1.80258030101734     -0.75977599813848
  H   0.11176876346427     -2.14474751013531     -0.97492444254409
  C   1.50985308507681      0.55172929985356      0.19299096229079
  N   2.34681409747415      1.37212981434010      0.25423148807261
  N   -1.19061821156166      1.36152398882786      0.56944919269090
  O   -1.57150460065268      2.35080522166964     -0.05101781435977
  O   -1.04962174354917      1.27334224527493      1.78443340217573
