13
Coordinates from ORCA-job run
  C   0.52395959971033     -0.33196984441580      0.03590286342808
  C   -0.90630752993881      0.12287492327493     -0.22644030026059
  F   0.63566556612146     -0.52048892309010      1.42190497816546
  H   -1.59273701014058     -0.70523940141877     -0.05610559318342
  H   -1.00383350970765      0.50878873097587     -1.24080004491500
  N   0.75819860113967     -1.51336132678934     -0.70417507153634
  H   1.72467477265405     -1.80771487588985     -0.64911862278047
  H   0.15046385404598     -2.26312161225591     -0.39815504486701
  C   1.53678820678187      0.67100208206107     -0.34338157335704
  N   2.38917404324964      1.40708604868112     -0.67291795728184
  N   -1.30620499452649      1.20674144543974      0.71546493305903
  O   -2.30766986263485      1.01343786905022      1.39764701463999
  O   -0.60417173675463      2.21296488437682      0.71917441888916
