13
Coordinates from ORCA-job run
  C   0.57687298185844     -0.33120542948395      0.30118205059872
  C   -0.37228013136177      0.86448091227924      0.22097568245711
  F   0.43665235097585     -0.90219061779519      1.55901501732433
  H   -0.15618044724420      1.47949683150465     -0.65131106256060
  H   -0.30437021889511      1.43493140431065      1.14484012564614
  N   0.29439919553717     -1.29470075243823     -0.68860261514565
  H   -0.20880592537591     -0.95271580817642     -1.49305126525459
  H   1.07660377223580     -1.88053873140993     -0.93500538811274
  C   1.96405221103937      0.19584805891949      0.24486447156825
  N   3.05491078050988      0.61929818199319      0.14094104990416
  N   -1.77599959742738      0.38213248097496      0.09019583438603
  O   -2.41350185515548      0.21251048926098      1.12255859003733
  O   -2.17335311669664      0.17265298006057     -1.05660249084849
