13
Coordinates from ORCA-job run
  C   0.58726072474861     -0.34416102539539      0.04978750395335
  C   -0.41404884257071      0.73675857294454      0.45786761229772
  F   0.15701859060627     -1.52503108617914      0.68649469488579
  H   -0.36038829833603      0.92024078931210      1.52802446488403
  H   -0.23849781330563      1.65023255851728     -0.11087158078455
  N   0.72699613794833     -0.47087339298737     -1.34290584796088
  H   -0.16912449182281     -0.62638825368635     -1.78616965723001
  H   1.38865239924356     -1.19557602460926     -1.58697642244604
  C   1.89714485286194     -0.00817639113641      0.64518618196470
  N   2.92852727582543      0.27727600436080      1.12716823749840
  N   -1.81560060516267      0.29670419317503      0.18272516524064
  O   -2.06820344894226     -0.09739861495956     -0.95459744611478
  O   -2.61873648109404      0.38739267064371      1.10326709381162
