13
Coordinates from ORCA-job run
  C   0.54987214826258     -0.46528416408670      0.22408698101685
  C   -0.87371673296552     -0.00897576018714     -0.11634767508735
  F   0.55170840634688     -0.89903343483974      1.53019516214641
  H   -1.57195252085361     -0.76802430905101      0.24442547319644
  H   -0.97948173082845      0.13960349902290     -1.18890074649325
  N   1.00555097183214     -1.54498106405553     -0.59415682470411
  H   0.29313842317394     -2.25381383497257     -0.71384583518151
  H   1.36130693850383     -1.23958226277507     -1.48899641716761
  C   1.49426877975908      0.66297590015195      0.09209682124727
  N   2.22367862427498      1.57087602457152     -0.05350813709687
  N   -1.25400525269518      1.28386852643879      0.53079453582090
  O   -1.03541440889077      1.39113373643423      1.73263832105070
  O   -1.76495364591989      2.13123714334838     -0.19748165874786
