13
Coordinates from ORCA-job run
  C   0.58228107324410     -0.32837742776209      0.13570017065619
  C   -0.43030935071930      0.80573660859262      0.29849838831558
  F   0.11781566090424     -1.37759089433401      0.95333090564889
  H   -0.22503967223580      1.60198100421708     -0.41745580584002
  H   -0.42192358925614      1.17978446632833      1.31919730798758
  N   0.78347570366084     -0.70166392681565     -1.20422196655914
  H   1.45665215351620     -1.45199420932870     -1.28555224710487
  H   -0.09237075198826     -0.94294756858660     -1.64980167395842
  C   1.86568602964314      0.11213895183454      0.72043539988533
  N   2.87484345649645      0.48205155013983      1.19197303748240
  N   -1.82129953917316      0.32045978647452      0.04657215671044
  O   -2.66498415284385      0.58515449099458      0.89437099409573
  O   -2.02482702124848     -0.28373283175445     -1.00504666731969
