13
Coordinates from ORCA-job run
  C   0.64434486151502     -0.40454645395912      0.33095558659899
  C   -0.59094809997359      0.35956833821178      0.80237711452101
  F   1.35342333677934     -0.68751838985504      1.48824177705014
  H   -0.29488355819378      1.14354670983556      1.49553435939855
  H   -1.26943026440556     -0.34951958216485      1.28034314817522
  N   0.29983346241937     -1.63761852752882     -0.28452425378657
  H   1.11613721615191     -2.08635034672050     -0.68222922065349
  H   -0.39388375928387     -1.48338847529372     -1.00586431484074
  C   1.51996454827175      0.47811676283743     -0.48400048478708
  N   2.19608475118536      1.15018087904966     -1.17081679353888
  N   -1.33263237874236      1.01417890991460     -0.31344243156340
  O   -1.73348061994852      2.15616384851160     -0.12315121815571
  O   -1.51552949577507      0.34818632716142     -1.33242326841807
