13
Coordinates from ORCA-job run
  C   0.47578216837592     -0.40061143022204      0.17939722565168
  C   -0.97503050561455      0.00584505746070     -0.04637246211627
  F   0.69777264919024     -0.49110577200952      1.53440279467723
  H   -1.60229878024952     -0.71196396456530      0.47789960999273
  H   -1.20745171912514      0.05441202524698     -1.10970753024260
  N   0.66254987045192     -1.71314906605595     -0.36944390809757
  H   0.55657227759079     -1.70416484149028     -1.37703040682662
  H   1.59582355716081     -2.04247759331763     -0.14776784299997
  C   1.43181621469100      0.60847704773769     -0.34405112918676
  N   2.23192096612345      1.32843861569399     -0.81476152257364
  N   -1.23344740040685      1.35406653292841      0.52921432409549
  O   -1.65896573674151      1.39583499074296      1.67993077254409
  O   -0.97504356144656      2.31639839784998     -0.19170992491780
