13
Coordinates from ORCA-job run
  C   0.58250084355550     -0.29439557594388      0.14315566069610
  C   -0.90138586612176     -0.01318597864434     -0.06919147381800
  F   0.80555605752511     -0.15860326592606      1.51773149343415
  H   -1.12134500190268      0.13754668636701     -1.12629238626007
  H   -1.48300284875699     -0.83408320730307      0.34920525706510
  N   0.89267139486515     -1.58843254504252     -0.30336577270510
  H   1.73542317296506     -1.71176777288525     -0.83547791691524
  H   0.13462068628668     -2.19622188644621     -0.55823739066416
  C   1.45764150144051      0.69282373635010     -0.52103592961703
  N   2.19691098031841      1.39971946824946     -1.09699786913093
  N   -1.32732990178424      1.21652266075218      0.65842095947573
  O   -0.76839476148499      2.25973214509491      0.33488430943946
  O   -2.20386625690576      1.08934553537767      1.50720105900000
