13
Coordinates from ORCA-job run
  C   0.50643216971000     -0.35819350088660     -0.02151270225553
  C   -0.90535149654161      0.19266797732622     -0.18062219296312
  F   0.64671327953434     -0.71489572396654      1.32849440768944
  H   -1.00928393442590      0.70253239105221     -1.13803515349023
  H   -1.62883379507190     -0.61601077677382     -0.08813610340517
  N   0.65942067561002     -1.45335675765693     -0.90202920929560
  H   1.61107611240232     -1.79653828289613     -0.91605904620566
  H   0.02357463273192     -2.20504681174183     -0.66569508294301
  C   1.55808045925277      0.63345571849658     -0.31487788520653
  N   2.43814651316405      1.36151661521736     -0.58420753128353
  N   -1.22162494418404      1.17219832605238      0.89718574115580
  O   -0.47503253887166      2.14170088476281      0.98907653759442
  O   -2.20331713331031      0.93896994101429      1.59541822060873
