13
Coordinates from ORCA-job run
  C   0.59682592390617     -0.32332969898362      0.05579556252566
  C   -0.43175808454926      0.74264242720956      0.43583681434677
  F   0.20647847673438     -1.49273704446033      0.73788509623812
  H   -0.37223118738709      0.96668055207413      1.49789710923559
  H   -0.28923175588345      1.63802891823572     -0.16952329071211
  N   0.72625421033940     -0.49505359934245     -1.33278281774373
  H   1.40683086888013     -1.20804661846954     -1.55954278848344
  H   -0.16922731005272     -0.68953150223998     -1.76195567138401
  C   1.90210651204102      0.06932780497596      0.62595372177065
  N   2.92940523049522      0.39840839810866      1.08849036478080
  N   -1.82033661903509      0.24752087309327      0.19257215340751
  O   -2.07744177077358     -0.16819510798220     -0.93633597970278
  O   -2.60867449471512      0.31328459778085      1.12770972572096
