13
Coordinates from ORCA-job run
  C   0.64941532547859     -0.40977604234954      0.33785828323625
  C   -0.57124951576644      0.37533925461940      0.81710643108427
  F   1.36146149515734     -0.70493048531523      1.49320624682788
  H   -0.25309124692851      1.17522152754430      1.48082289353485
  H   -1.24848605899154     -0.31859127169329      1.31621420026759
  N   0.27375304981348     -1.62268141236636     -0.28838655336926
  H   1.03604765100043     -2.03798428793763     -0.80740307464853
  H   -0.53405514153644     -1.49370488005870     -0.88426620501989
  C   1.53620859397027      0.46023149766428     -0.47667330305181
  N   2.21408582442172      1.12561904014770     -1.16814699448136
  N   -1.30375633446685      0.99879777527703     -0.32028525620925
  O   -1.34785422673975      2.22348264011306     -0.36448132111063
  O   -1.81247941541230      0.22897664435497     -1.13656534706011
