13
Coordinates from ORCA-job run
  C   0.64992523751125     -0.39264172648940      0.35697463431782
  C   -0.60208036584071      0.36348341895695      0.80033066512715
  F   1.33827660686102     -0.66583806030882      1.53170167099296
  H   -1.27570416267027     -0.34484668418058      1.28391137806766
  H   -0.32146736658839      1.17287239204432      1.46949072385268
  N   0.32178412123342     -1.61680442189039     -0.27420775417777
  H   -0.47172602111670     -1.51005404331176     -0.89325701243757
  H   1.10845443677891     -2.01439793033438     -0.77027719104216
  C   1.53574145461750      0.49651317382254     -0.43791807547341
  N   2.21419131232439      1.17643683679408     -1.11452371074183
  N   -1.31878363657428      0.96551386599417     -0.35837367760489
  O   -1.78406623311779      0.18125546615343     -1.18668366149159
  O   -1.39454538341835      2.18850771274984     -0.40616798938905
