13
Coordinates from ORCA-job run
  C   0.70615985324311     -0.35038715842964      0.28728976372497
  C   -0.54905162494226      0.30722935835663      0.85979095343083
  F   1.51784485078867     -0.59163444674635      1.38829502964957
  H   -0.26429855945353      1.12435849170487      1.51772120860269
  H   -1.12424690273578     -0.45421215871676      1.38755851503375
  N   0.40734564259013     -1.58457368762487     -0.33852225397758
  H   1.16930296347768     -1.91677909976129     -0.91470221886059
  H   -0.44705102443768     -1.52642738513441     -0.87796256742399
  C   1.45035419094349      0.61219690613126     -0.56505147544749
  N   2.01399869906124      1.34846762541808     -1.28654321655286
  N   -1.41046509786733      0.87364509424950     -0.21539580318818
  O   -1.57245902742314      2.08912336006266     -0.23241039877586
  O   -1.89743396324459      0.06999310049031     -1.01206753621527
