13
Coordinates from ORCA-job run
  C   0.66957693766766     -0.37071693143127      0.34403971304731
  C   -0.70255956932455      0.13362805231153      0.78958545707940
  F   1.30120449375573     -0.77100860155234      1.51414362494893
  H   -1.30702498095453     -0.72789576166431      1.07563313089136
  H   -0.58411792333617      0.83303364097051      1.61328625335060
  N   0.55817378320290     -1.48793297719976     -0.51873232836938
  H   1.42598295148039     -1.68879505054030     -0.99800017299102
  H   -0.19450211499213     -1.36437252476693     -1.18397698464188
  C   1.48149654385480      0.75026489237402     -0.19559558978430
  N   2.10842711486908      1.62034337741991     -0.67555549134687
  N   -1.40859221710190      0.84888094368846     -0.30991896067260
  O   -1.69873489961628      0.18203965000273     -1.30430434433506
  O   -1.64933011950499      2.04053129038774     -0.14960430717650
