15
Coordinates from ORCA-job run
  C   -0.59875923584723     -0.13767056734272      0.39855930464457
  C   0.75341204668120      0.52403151222554      0.26279866749820
  Br  -0.62839324246938     -1.55389261863933      1.68334919320799
  H   0.60362884973458      1.42463539689641     -0.33774905298745
  H   1.06507491619755      0.84215339529893      1.25865929007067
  N   -1.68818647867264      0.85415666985718      0.80891326215068
  O   -2.83901422960170      0.50529144945840      0.59052425064724
  O   -1.31229112213881      1.88771695727462      1.34460745381162
  N   -1.03272587713691     -0.62104836838094     -0.98621095778483
  O   -1.10375090076763     -1.81610301803075     -1.21420766763245
  O   -1.20657820529799      0.30143232465673     -1.77497193149126
  C   1.79168737180539     -0.38681135085934     -0.38433493548898
  H   1.91169264977924     -1.32056425018402      0.16633384835009
  H   1.52790695221082     -0.62438995510348     -1.41680109905568
  H   2.75629650552352      0.12306242287277     -0.40046962594040
