15
Coordinates from ORCA-job run
  C   -0.70182819887669     -0.30557066762676      0.45691947874748
  C   0.80602817392037     -0.34551728979841      0.59865743086085
  Br  -1.57037072639870     -1.39628662846775      1.77363802739909
  H   1.07508238175527     -1.40190459589521      0.68113107957748
  H   1.04609895174058      0.13083330698163      1.55111919470438
  N   -1.29153301276674      1.09781106891281      0.58925578736531
  O   -0.52334883303201      1.98706033475413      0.93690168310994
  O   -2.48562021206081      1.20263769235536      0.35556043272697
  N   -1.05160099092623     -0.77803436127082     -0.95391683141952
  O   -1.17239742383322      0.10548549553666     -1.79320329015143
  O   -1.05100485549907     -1.98450539177343     -1.14078874439292
  C   1.57212635165232      0.30386295406148     -0.55158404596004
  H   2.63578168919909      0.30253010442983     -0.30595393823825
  H   1.26352877761519      1.33493653917833     -0.71538577155848
  H   1.44905792751064     -0.25233856137785     -1.48235049277086
