15
Coordinates from ORCA-job run
  C   -0.70186906878995     -0.42295989306773      0.35122032029338
  C   0.79835844932627     -0.41585982379257      0.56322705160992
  Br  -1.60248064523466     -1.48500466949026      1.66962157018167
  H   0.95382673204081     -0.20017570474569      1.62360937577434
  H   1.14739614570091     -1.43378385076652      0.37953899881774
  N   -1.18750620715586      1.02527454294083      0.39853620617830
  O   -1.26105030893774      1.59425144528641     -0.68333220908948
  O   -1.33064037218601      1.51681266955271      1.50681364082294
  N   -1.12411556547601     -0.96407273731816     -1.01407202876204
  O   -2.31150763343026     -0.87242862129802     -1.28396992471223
  O   -0.24257050165565     -1.45963698477912     -1.70609214919080
  C   1.55908005589040      0.59166084247572     -0.29562151779720
  H   1.31849895095831      1.61955217709382     -0.01920280482730
  H   1.35635529790332      0.45690395865583     -1.35670325512819
  H   2.62922467104612      0.44946664925275     -0.13357327417105
