15
Coordinates from ORCA-job run
  C   -0.64179859094962     -0.25171286766334      0.15285145506886
  C   0.75683919717914      0.27085133686836      0.40952215791792
  Br  -0.80336953288901     -2.14504168752486      0.32400346016088
  H   0.72750652595306      1.34051976965194      0.18833372500055
  H   0.92501903873098      0.15884545059548      1.48616554810257
  N   -1.58435173236823      0.47307151184235      1.13126720947839
  O   -1.99812675769064     -0.12411385009025      2.10907040805249
  O   -1.76413434718157      1.65043333250207      0.84187710861882
  N   -1.19575068387432      0.15415413117502     -1.21709813905108
  O   -0.44489796697869      0.77245823820287     -1.96085937507967
  O   -2.35720259901189     -0.15797349130265     -1.43268257187455
  C   1.87534251384277     -0.41510835451250     -0.36633196609729
  H   1.99966650172670     -1.45163527678024     -0.05429289810736
  H   1.69168330270530     -0.38654500399699     -1.43905324235915
  H   2.81257513080602      0.10979676103275     -0.17077287983137
