15
Coordinates from ORCA-job run
  C   -0.68099244947716     -0.43707386908960      0.37406562610554
  C   0.82659866554361     -0.41296097601284      0.52347492014590
  Br  -1.51195727392529     -1.52824277060431      1.71453559609123
  H   1.18091051391118     -1.42366255874207      0.31223338714933
  H   1.02320356596397     -0.20835200840713      1.57921117934986
  N   -1.18217110075324      1.00401395486891      0.46187535117438
  O   -1.30976608425875      1.58590390153272     -0.60807454214617
  O   -1.28434464599794      1.47883574177685      1.58190988028810
  N   -1.15330396632848     -0.96552079324438     -0.97933854961421
  O   -0.29527613706662     -1.43925306025448     -1.71492448751175
  O   -2.35217642344119     -0.88651382128836     -1.19797583529166
  C   1.53728567459727      0.61601949631491     -0.35273451775338
  H   1.29883397710244      1.63661871086865     -0.04878494535929
  H   1.28804385427328      0.49608590312218     -1.40566288110973
  H   2.61511182985694      0.48310214915893     -0.24181018151814
