15
Coordinates from ORCA-job run
  C   -0.68685752189198     -0.44080850782375      0.35905299271199
  C   0.81690136358808     -0.40845305773212      0.54207893227963
  Br  -1.54126900311245     -1.53687500978995      1.68070165165980
  H   1.18136448454407     -1.41725948156566      0.33918360723915
  H   0.98853807379846     -0.20264472394049      1.60193363567225
  N   -1.19793325113168      0.99748758978710      0.43556446554440
  O   -1.30386247786723      1.57899941289544     -0.63696098720672
  O   -1.32858577839941      1.47135782008604      1.55304227469346
  N   -1.12591849069840     -0.97170681850521     -1.00453360478890
  O   -0.24889677088556     -1.44013220311620     -1.72089047957718
  O   -2.31999265998087     -0.89914261544790     -1.25004492237787
  C   1.54174446086928      0.62413493831205     -0.31810248738033
  H   1.31769108119679      0.50212892757156     -1.37643933837273
  H   1.29063430592809      1.64356920307227     -0.02050614862240
  H   2.61744218404289      0.49734452619687     -0.18207959147454
