16

C	0.0	0.0	0.0
C	-0.430296	0.19321	-1.456662
Br	1.944482	0.0	0.0
H	-0.697805	1.231511	-1.608903
H	0.395157	-0.08093	-2.1191
N	-0.424388	1.195627	0.845331
O	-0.532806	2.281732	0.289861
O	-0.512789	1.012107	2.051288
C	-0.360485	-1.306644	0.690683
H	-1.447411	-1.314301	0.752094
H	0.11368	-1.330776	1.671027
H	0.009645	-2.132992	0.085782
N	-1.56734	-0.611476	-1.99402
O	-2.337242	-0.013695	-2.738258
O	-1.515872	-1.831945	-1.8751
F	-2.46691	0.0	0.0
