16

C	0.0	0.0	0.0
C	-0.651521	0.185335	-1.359715
Br	1.934193	0.0	0.0
H	-0.475291	-0.727539	-1.930214
H	-1.740238	0.300032	-1.086955
N	-0.374705	1.170106	0.906909
O	-0.448029	2.270056	0.3738
O	-0.503848	0.946493	2.103142
C	-0.519109	-1.287258	0.603361
H	-0.18647	-2.124932	-0.014295
H	-0.13952	-1.411547	1.615684
H	-1.615579	-1.165916	0.578431
N	-0.153051	1.284616	-2.229179
O	0.94849	1.128337	-2.765801
O	-0.888816	2.248772	-2.428163
F	-2.897457	0.0	0.0
