16

C	0.0	0.0	0.0
C	-0.517638	0.178907	-1.434181
Br	1.948005	0.0	0.0
H	-1.157147	1.046871	-1.465071
H	0.313176	0.279196	-2.138554
N	-0.378656	1.256266	0.791724
O	-0.454495	2.31156	0.170799
O	-0.465029	1.151954	2.006635
C	-0.369854	-1.243141	0.792869
H	0.04884	-2.116998	0.30178
H	-1.45971	-1.260451	0.811066
H	0.051929	-1.147271	1.792236
N	-1.350216	-0.917926	-2.005022
O	-2.188164	-0.565879	-2.827795
O	-1.052812	-2.087194	-1.772841
F	-2.496564	0.0	0.0
