16

C	0.0	0.0	0.0
C	-0.458212	0.439645	-1.394656
Br	1.9488	0.0	0.0
H	0.386112	0.417857	-2.090352
H	-0.862145	1.440518	-1.337141
N	-0.428062	1.035259	1.032815
O	-0.483388	2.205976	0.673974
O	-0.580256	0.646223	2.181228
C	-0.34505	-1.403145	0.481813
H	0.123966	-1.562608	1.452
H	0.046043	-2.125259	-0.232092
H	-1.430696	-1.438585	0.537105
N	-1.49294	-0.377293	-2.091681
O	-1.349394	-1.595471	-2.12987
O	-2.296105	0.252435	-2.769963
F	-2.44873	0.0	0.0
