16

C	0.0	0.0	0.0
C	-0.648794	0.083806	-1.369647
Br	1.943952	0.0	0.0
H	-0.438567	-0.852582	-1.889791
H	-1.742054	0.186829	-1.104695
N	-0.374373	1.235213	0.812745
O	-0.52295	1.102321	2.020001
O	-0.429941	2.294147	0.198391
C	-0.517667	-1.238636	0.696987
H	-1.614045	-1.116286	0.667806
H	-0.191646	-2.119125	0.138081
H	-0.133431	-1.291329	1.714112
N	-0.189137	1.153114	-2.297093
O	0.945527	1.048348	-2.773575
O	-0.988746	2.036292	-2.600328
F	-2.896987	0.0	0.0
