15

C	-0.335682	0.029618	-1.468659
C	0.0	0.0	0.0
F	-0.16003	1.296462	-1.978134
H	1.08919	0.0	0.0
H	-0.36429	-0.915273	0.460472
N	0.438945	-0.944148	-2.121097
H	1.411114	-0.868075	-1.820711
H	0.367801	-0.831176	-3.124696
N	-1.795989	-0.310035	-1.776966
O	-2.436138	-0.914122	-0.925162
O	-2.191533	-0.011748	-2.899385
N	-0.570229	1.131755	0.763069
O	-1.554468	1.708438	0.298311
O	-0.051208	1.378246	1.84675
Cl	3.295152	0.0	0.0
