15

C	-0.352774	-0.00957	-1.475511
C	0.0	0.0	0.0
F	-0.233853	1.24157	-1.975836
H	1.08899	0.0	0.0
H	-0.374162	-0.908141	0.472785
N	0.462693	-0.898011	-2.235618
H	1.436347	-0.697363	-2.00352
H	0.267135	-1.851493	-1.952308
N	-1.796973	-0.455385	-1.712327
O	-2.066597	-1.570694	-1.269809
O	-2.550227	0.279981	-2.330836
N	-0.607986	1.145372	0.715896
O	0.081891	1.783844	1.501955
O	-1.803432	1.349163	0.485104
Cl	3.312733	0.0	0.0
