15

C	-0.547452	0.009823	-1.425436
C	0.0	0.0	0.0
F	-0.167205	-1.136264	-2.035338
H	1.089126	0.0	0.0
H	-0.386234	0.862279	0.543168
N	-1.941841	0.206602	-1.65619
H	-2.180951	1.149888	-1.375662
H	-2.446404	-0.439359	-1.060046
N	0.13946	1.178054	-2.132519
O	0.885344	0.93673	-3.065995
O	-0.1662	2.285863	-1.690026
N	-0.508227	-1.212568	0.7005
O	0.298576	-2.016221	1.147158
O	-1.739418	-1.322035	0.800784
Cl	3.336444	0.0	0.0
