14

C	-0.580944	0.209655	-1.370628
C	0.0	0.0	0.0
F	-0.074173	-0.699408	-2.25362
H	1.087535	0.0	0.0
H	-0.340086	-0.974734	0.36058
H	-0.362338	0.773818	0.676178
C	-2.093281	0.147252	-1.44586
H	-2.417354	-0.846607	-1.132232
H	-2.537862	0.898402	-0.79453
H	-2.418088	0.315825	-2.47544
N	-0.193539	1.591458	-1.892981
O	-0.525891	2.532733	-1.176157
O	0.346615	1.673504	-2.986871
Br	3.697072	0.0	0.0
