14

C	-0.568585	0.00943	-1.39216
C	0.0	0.0	0.0
F	-0.113632	-1.066311	-2.100774
H	1.091558	0.0	0.0
H	-0.347908	-0.908238	0.498835
H	-0.358751	0.870166	0.549738
C	-2.081285	0.021166	-1.476392
H	-2.391534	0.028091	-2.523978
H	-2.463923	-0.883797	-1.001828
H	-2.483867	0.897362	-0.970535
N	-0.091028	1.25436	-2.134609
O	-0.390006	2.322919	-1.605233
O	0.489109	1.113276	-3.201651
Br	3.701334	0.0	0.0
