15

C	-0.410451	-0.024005	-1.458686
C	0.0	0.0	0.0
F	-0.178278	1.189577	-2.028535
H	1.093455	0.0	0.0
H	-0.329496	-0.924408	0.478211
C	0.29835	-1.100669	-2.241949
H	0.006742	-1.03533	-3.292838
H	1.374078	-0.93487	-2.136369
H	0.043624	-2.084677	-1.848215
N	-1.921714	-0.255889	-1.555199
O	-2.330736	-1.286173	-1.023206
O	-2.605053	0.564777	-2.154261
C	-0.556343	1.144309	0.707775
N	-1.035188	2.048699	1.281918
Br	3.490643	0.0	0.0
