15

C	-0.403747	-0.039628	-1.462302
C	0.0	0.0	0.0
F	-0.184892	1.17253	-2.03857
H	1.093467	0.0	0.0
H	-0.329526	-0.920485	0.485593
C	0.324443	-1.111879	-2.232447
H	0.077268	-2.096124	-1.835394
H	0.04408	-1.057567	-3.286716
H	1.396399	-0.933588	-2.115561
N	-1.908989	-0.292803	-1.569195
O	-2.59909	0.516939	-2.176044
O	-2.308287	-1.326993	-1.03899
C	-0.559818	1.150403	0.694404
N	-1.038258	2.061453	1.259022
Br	3.47902	0.0	0.0
