15

C	-0.425327	0.096061	-1.451209
C	0.0	0.0	0.0
F	-1.802773	0.180072	-1.555157
H	1.091239	0.0	0.0
H	-0.369732	-0.927718	0.438191
C	0.225753	1.225695	-2.191857
H	-0.0781	2.160754	-1.717915
H	-0.084754	1.226528	-3.23578
H	1.3103	1.124361	-2.118963
N	-0.108672	-1.248073	-2.116965
O	-0.521739	-2.247531	-1.53488
O	0.4594	-1.238568	-3.203783
C	-0.50737	1.141947	0.747912
N	-0.928486	2.061431	1.344043
Br	3.457319	0.0	0.0
