15

C	-0.527643	-0.007025	-1.42795
C	0.0	0.0	0.0
F	-0.233933	-1.222191	-1.975461
H	1.093229	0.0	0.0
H	-0.310784	-0.954348	0.438388
C	-2.006107	0.261389	-1.590097
H	-2.256537	1.257066	-1.225308
H	-2.566616	-0.483875	-1.021829
H	-2.269163	0.175773	-2.646848
N	0.20054	1.039522	-2.261561
O	0.200797	2.169752	-1.786465
O	0.648318	0.698167	-3.346924
C	-0.534647	1.081161	0.813158
N	-0.959198	1.944398	1.484558
Br	3.456018	0.0	0.0
