15

C	-0.494766	0.167483	-1.429152
C	0.0	0.0	0.0
F	-1.774052	0.664202	-1.432032
H	1.091016	0.0	0.0
H	-0.30245	0.908302	0.532102
C	0.413156	1.048358	-2.246936
H	0.427287	2.044492	-1.800341
H	0.036586	1.118592	-3.270516
H	1.428496	0.649668	-2.224127
N	-0.570248	-1.196072	-2.103682
O	0.494751	-1.8005	-2.168715
O	-1.655977	-1.573988	-2.532438
C	-0.576248	-1.151105	0.680211
N	-1.066536	-2.067491	1.226179
Br	3.487808	0.0	0.0
