12

C	0.0	0.0	0.0
C	-0.451395	-0.096341	-1.486734
F	1.383594	0.0	0.0
H	0.421853	-0.523451	-1.994526
H	-0.373448	0.890754	0.504554
H	-0.570804	0.929931	-1.84884
C	-0.391513	-1.200128	0.762511
N	-0.551585	-2.187046	1.377682
N	-1.636364	-0.850223	-1.81454
H	-1.491902	-1.817075	-1.538064
H	-2.4142	-0.502337	-1.198122
H	-3.332658	0.0	0.0
