12

C	0.0	0.0	0.0
C	-0.38735	0.059211	-1.47138
F	1.388813	0.0	0.0
H	-1.469647	0.166336	-1.506858
H	-0.383885	0.857296	0.55536
H	0.100911	0.953066	-1.879687
C	-0.406114	-1.240093	0.68896
N	-0.566299	-2.213367	1.330782
N	0.048114	-1.106051	-2.237884
H	-0.546262	-1.886738	-1.981901
H	0.994031	-1.347795	-1.959255
H	-2.806517	0.0	0.0
