12

C	0.0	0.0	0.0
C	-0.53565	-0.043419	-1.40505
F	1.390422	0.0	0.0
H	-0.2595	0.902002	-1.899174
H	-0.362459	0.892807	0.513677
H	-1.630315	-0.062117	-1.252308
C	-0.385697	-1.190799	0.786302
N	-0.494278	-2.140025	1.468087
N	-0.060328	-1.239944	-2.092138
H	0.857419	-1.084405	-2.488385
H	-0.699393	-1.475591	-2.83945
H	-3.118501	0.0	0.0
