12

C	0.0	0.0	0.0
C	-0.458091	0.075581	-1.449578
F	1.388823	0.0	0.0
H	-1.543463	0.205694	-1.396441
H	-0.368369	0.853132	0.571356
H	0.015834	0.963588	-1.885086
C	-0.414807	-1.250403	0.663908
N	-0.488402	-2.295643	1.196829
N	-0.121494	-1.100719	-2.245743
H	-0.766416	-1.840313	-1.98916
H	0.808881	-1.420496	-2.002199
H	-2.926337	0.0	0.0
