17

C	0.0	0.0	0.0
C	-0.430649	0.061997	-1.523607
Br	1.938629	0.0	0.0
H	0.406839	-0.333036	-2.101827
N	-0.584832	0.916762	0.890786
H	-0.419404	1.8391	0.499774
H	-1.606805	0.719089	0.855766
N	-0.313159	-1.423348	0.518499
O	-0.014481	-2.349094	-0.234464
O	-0.802867	-1.545446	1.631035
N	-0.55696	1.495139	-1.803639
H	-1.491129	1.741041	-1.479721
H	-0.605809	1.568484	-2.815533
N	-1.622467	-0.648754	-1.901813
H	-1.454904	-1.646203	-1.844797
H	-2.389922	-0.417067	-1.226976
H	-3.296831	0.0	0.0
