17

C	0.0	0.0	0.0
C	-0.186053	0.007798	-1.574694
Br	2.037366	0.0	0.0
H	0.469645	-0.788483	-1.938587
N	-0.313699	1.222454	0.724324
H	0.267811	1.267812	1.559116
H	-0.099827	1.994762	0.102324
N	-0.621741	-1.154693	0.599952
O	-0.805179	-1.173348	1.840728
O	-0.523772	-2.209863	-0.103387
N	0.155153	1.342788	-2.057993
H	-0.161853	1.373702	-3.02151
H	1.163645	1.446286	-2.041126
N	-1.506916	-0.295394	-2.135747
H	-1.716755	-1.236912	-1.809825
H	-2.182559	0.336376	-1.695585
H	-1.605411	0.0	0.0
