17

C	0.0	0.0	0.0
C	-0.260579	0.164808	-1.561921
Br	1.942748	0.0	0.0
H	0.474279	-0.503891	-2.019447
N	-0.256788	1.166163	0.826527
H	-1.262545	1.143138	0.991134
H	0.203936	0.99288	1.715944
N	-0.612593	-1.231217	0.516741
O	-0.620154	-2.219364	-0.279302
O	-0.596494	-1.375338	1.767636
N	0.010918	1.51513	-2.028296
H	-0.641063	2.113558	-1.529888
H	0.93645	1.780824	-1.710087
N	-1.601642	-0.155341	-2.043045
H	-1.799469	-1.099641	-1.725898
H	-1.508448	-0.176524	-3.057907
H	-2.006799	0.0	0.0
