16

C	-0.292745	0.053528	-1.515069
C	0.0	0.0	0.0
Cl	-0.048167	-1.637746	-2.224012
H	1.097451	0.0	0.0
C	-1.694314	0.377478	-1.812847
N	-2.812297	0.657363	-2.042883
N	0.576907	1.017116	-2.077048
H	0.534722	1.021225	-3.087445
H	1.532608	0.840158	-1.759106
C	-0.556108	-1.17583	0.650282
N	-1.028975	-2.071292	1.245519
C	-0.46958	1.274958	0.707442
H	-0.043824	2.142018	0.203594
H	-0.106647	1.25939	1.736745
H	-1.559784	1.354825	0.716494
Cl	3.287535	0.0	0.0
