16

C	-0.503135	0.002387	-1.455876
C	0.0	0.0	0.0
Cl	0.109722	1.453051	-2.307617
H	1.095445	0.0	0.0
C	0.025999	-1.167855	-2.184493
N	0.320863	-2.152147	-2.757281
N	-1.95322	0.053717	-1.494928
H	-2.26596	-0.000433	-2.456838
H	-2.315137	-0.755407	-0.999356
C	-0.491951	-1.228377	0.621759
N	-0.968092	-2.187814	1.106943
C	-0.468473	1.21733	0.800095
H	-1.555708	1.300743	0.82023
H	-0.042478	2.120224	0.363624
H	-0.085354	1.127081	1.817416
Cl	3.279935	0.0	0.0
