16

C	-0.278275	-0.05461	-1.510893
C	0.0	0.0	0.0
Cl	-2.024732	-0.417718	-1.859873
H	1.098978	0.0	0.0
C	-0.050094	1.274667	-2.114049
N	0.164269	2.321033	-2.60607
N	0.533223	-1.094211	-2.06789
H	1.486971	-0.989042	-1.713504
H	0.536847	-1.051946	-3.079715
C	-0.46082	-1.235144	0.625475
N	-0.83499	-2.189552	1.198911
C	-0.550717	1.225102	0.716481
H	-1.638244	1.283462	0.627011
H	-0.286932	1.168044	1.773333
H	-0.102244	2.130857	0.306803
Cl	3.268652	0.0	0.0
