16

C	-0.277506	-0.050535	-1.510521
C	0.0	0.0	0.0
Cl	-2.027975	-0.408198	-1.857634
H	1.099035	0.0	0.0
C	-0.048482	1.278698	-2.112721
N	0.146919	2.312082	-2.638667
N	0.530942	-1.090897	-2.070399
H	0.544256	-1.039937	-3.081527
H	1.48345	-0.994219	-1.70898
C	-0.463876	-1.234315	0.624686
N	-0.864103	-2.180801	1.193781
C	-0.549476	1.22571	0.717136
H	-1.636343	1.289039	0.620398
H	-0.093769	2.130278	0.311615
H	-0.292394	1.165096	1.775788
Cl	3.268631	0.0	0.0
