16

C	-0.277026	-0.032689	-1.511928
C	0.0	0.0	0.0
Cl	-2.027502	-0.387466	-1.863698
H	1.100018	0.0	0.0
C	-0.04905	1.304576	-2.097383
N	0.154015	2.344156	-2.608665
N	0.532169	-1.064663	-2.082747
H	1.483998	-0.972985	-1.719919
H	0.542474	-1.007928	-3.093884
C	-0.464213	-1.242219	0.608936
N	-0.871042	-2.195155	1.162118
C	-0.550603	1.216866	0.730587
H	-0.300333	1.141717	1.789849
H	-1.636612	1.284298	0.628571
H	-0.090731	2.12564	0.340085
Cl	3.269182	0.0	0.0
