16

C	-0.27889	-0.071799	-1.510133
C	0.0	0.0	0.0
Cl	-2.024508	-0.447643	-1.853065
H	1.099037	0.0	0.0
C	-0.055988	1.254125	-2.122484
N	0.155269	2.299421	-2.617771
N	0.535758	-1.114162	-2.056054
H	0.534871	-1.088085	-3.06802
H	1.490004	-1.002454	-1.70586
C	-0.463045	-1.227717	0.639019
N	-0.841096	-2.173841	1.223653
C	-0.55042	1.235061	0.700198
H	-0.298788	1.185154	1.760736
H	-0.090341	2.133847	0.286257
H	-1.637022	1.300714	0.597432
Cl	3.271086	0.0	0.0
