16
Coordinates from ORCA-job run
  C   -0.55977471211464     -0.23745391994875      0.15454156693491
  C   0.84902427232178      0.31355049028522     -0.14036337387713
  F   -0.75383847560818     -0.10131629265634      1.54757064964389
  H   0.91201420763131      0.46466865659311     -1.22522067562695
  N   -0.57492650653620     -1.59751856171829     -0.23811665797786
  H   -1.49030628286126     -2.00131674193135     -0.08370809483788
  H   0.11303030767294     -2.09640991238321      0.31514266307199
  C   -1.65129877773903      0.56275882117013     -0.51877795550114
  H   -1.57513982575948      0.47895265827085     -1.60344539325267
  H   -1.59125901743570      1.61165943327664     -0.22424087136550
  H   -2.62459658912435      0.18163184988470     -0.20185332223152
  N   1.86832590920444     -0.62785995895435      0.33287017752514
  H   2.59310697371292     -0.16079203720047      0.85895707667667
  H   2.29522181853203     -1.09410844172572     -0.45561914259703
  C   1.01524793312989      1.62591550503642      0.49222264991575
  N   1.17416876497355      2.67763845200141      0.98804070349930
