16
Coordinates from ORCA-job run
  C   -0.52565758655869     -0.28628106984027      0.09770997714176
  C   0.86575036698944      0.25915208358254     -0.25872002962823
  F   -0.49452822545697     -0.44100988427176      1.51644111824202
  H   0.90800396681162      0.34639858102882     -1.34809589883830
  N   -0.68870868729070     -1.52382071574131     -0.56113386622105
  H   0.10838959900947     -2.12059913125107     -0.37569086143926
  H   -1.54716871285177     -1.97777110560797     -0.27807378853993
  C   -1.65542286650901      0.66847892198746     -0.20501134231031
  H   -1.54999010379114      1.58488640399130      0.37546878605041
  H   -2.60440147966875      0.19970189242247      0.06498092608489
  H   -1.67440473324587      0.90595258129110     -1.26958283109771
  N   1.86626934746653     -0.71302284523497      0.16553367964137
  H   1.90308436219755     -0.72582171721846      1.17806278566523
  H   2.78075886885673     -0.45347172692262     -0.18218994777848
  C   1.06093357987779      1.60196752709633      0.31940122139239
  N   1.24709230416378      2.67426020468839      0.76090007163520
