16
Coordinates from ORCA-job run
  C   -0.53028140561868     -0.30080796727299      0.22991253187107
  C   0.83546473039573      0.23956841876441     -0.24623748135532
  F   -0.40825438377963     -0.32234445437042      1.63385643786641
  H   0.80474589983746      0.28254607626950     -1.33993113402553
  N   -0.75852404430342     -1.62822461564518     -0.21481282313067
  H   -1.35803817734220     -1.67355234431652     -1.02405585556337
  H   0.11420623031555     -2.11719122932649     -0.36677398682259
  C   -1.68576960955498      0.61204230624887     -0.10735546792266
  H   -1.56513680282031      1.57502613464740      0.38828873048876
  H   -1.75661088309346      0.77375890313072     -1.18589074141634
  H   -2.60875851007811      0.15103082308278      0.24793216287268
  N   1.86492245122368     -0.71511175782830      0.14306375492354
  H   2.76481241076308     -0.44244289904437     -0.23186914339476
  H   1.93377502493174     -0.72888067532804      1.15420613411413
  C   1.06765805021309      1.60651258460122      0.25729301468740
  N   1.28678901891045      2.68707069638740      0.66237386680725
