16
Coordinates from ORCA-job run
  C   -0.52710683981477     -0.41639297504965      0.04888223073535
  C   0.91060700490587     -0.04822776694428      0.44641081753980
  F   -0.69379329063390     -1.75400397336664      0.47324920328195
  H   1.00611890563737     -0.22021625387552      1.52231659339806
  N   -0.66442000948232     -0.29784832824943     -1.36032457031462
  H   -1.63194246322552     -0.39065903298466     -1.64105540355513
  H   -0.11659705619207     -1.00667206266163     -1.83534460434392
  C   -1.55301535973486      0.41709081515349      0.77964258787062
  H   -1.45840389301384      1.46566723191638      0.50739847056667
  H   -2.55264068815617      0.05364479860167      0.52893469361121
  H   -1.41383148311513      0.31233084695097      1.85626995496886
  N   1.14146406767323      1.35726760564796      0.16396116335098
  H   1.02155717441731      1.50942271096181     -0.83106731595708
  H   2.08431832910054      1.62095986946199      0.42199225984170
  C   1.84649196566731     -0.96453068609932     -0.24238807076654
  N   2.60019363596695     -1.63983279946315     -0.83887801022791
