14

C	0.0	0.0	0.0
C	-0.514295	-0.055422	-1.439699
F	1.349605	0.0	0.0
H	-0.42151	-1.100192	-1.754727
H	-1.595548	0.158811	-1.319399
N	-0.359523	1.384825	0.588332
O	-0.546547	2.298023	-0.21024
O	-0.322849	1.502852	1.805572
N	-0.546378	-0.969118	0.856244
H	-1.583428	-0.784299	0.720884
H	-0.320016	-1.880855	0.472957
C	0.192365	0.769434	-2.407554
N	0.770968	1.364012	-3.238503
F	-2.7646	0.0	0.0
