14

C	0.0	0.0	0.0
C	-0.543989	0.01071	-1.417988
F	1.357376	0.0	0.0
H	-0.490187	-1.023055	-1.767794
H	-1.615204	0.26165	-1.287213
N	-0.289274	1.397248	0.655518
O	-0.558006	2.353118	-0.061654
O	-0.167541	1.440045	1.877805
N	-0.557689	-1.034581	0.738205
H	-0.323541	-0.893114	1.715251
H	-1.596135	-0.858864	0.590932
C	0.19687	0.862854	-2.334119
N	0.802258	1.509497	-3.105156
F	-2.791547	0.0	0.0
