14

C	0.0	0.0	0.0
C	-0.507706	0.022259	-1.442491
F	1.361063	0.0	0.0
H	-1.589791	0.227783	-1.314039
H	-0.412835	-1.004037	-1.813394
N	-0.360666	1.348924	0.662369
O	-0.498761	2.311845	-0.086221
O	-0.38069	1.391029	1.88496
N	-0.543623	-1.015527	0.798958
H	-0.324298	-1.902815	0.359987
H	-1.580343	-0.819175	0.67867
C	0.193918	0.901702	-2.365546
N	0.755047	1.55056	-3.168127
F	-2.759059	0.0	0.0
