14

C	0.0	0.0	0.0
C	-0.503176	-0.012987	-1.442412
F	1.378605	0.0	0.0
H	-1.607218	0.038776	-1.289936
H	-0.117338	0.839198	-2.001374
N	-0.352841	1.385593	0.58687
O	-0.245372	2.338519	-0.18386
O	-0.602515	1.468613	1.778845
N	-0.519082	-0.979408	0.854683
H	-1.554695	-0.805486	0.746713
H	-0.28816	-1.885647	0.459679
C	-0.107368	-1.25477	-2.087829
N	0.204218	-2.261707	-2.607726
F	-2.7487	0.0	0.0
