14

C	0.0	0.0	0.0
C	-0.50823	-0.10195	-1.43948
F	1.352047	0.0	0.0
H	-0.366371	-1.146865	-1.73657
H	-1.595219	0.083658	-1.33412
N	-0.349006	1.407705	0.539776
O	-0.139881	1.599386	1.730756
O	-0.715087	2.256626	-0.264538
N	-0.55928	-0.931524	0.887686
H	-0.332618	-1.859017	0.543095
H	-1.597605	-0.744566	0.731444
C	0.170671	0.741913	-2.41226
N	0.722113	1.363578	-3.241522
F	-2.773479	0.0	0.0
