14

C	0.0	0.0	0.0
C	-0.504222	-0.019101	-1.454029
F	1.356052	0.0	0.0
H	0.387268	-0.098356	-2.086896
H	-1.103556	-0.919842	-1.559662
N	-0.237654	1.41355	0.65745
O	-0.575521	1.438254	1.835261
O	0.061862	2.396021	-0.015313
N	-0.542556	-1.03056	0.738902
H	-1.595968	-0.807972	0.589373
H	-0.297339	-0.900465	1.714104
C	-1.307475	1.095113	-1.948589
N	-1.873286	1.94167	-2.531781
F	-2.667857	0.0	0.0
