13

C	0.0	0.0	0.0
C	-0.440623	-0.058358	-1.455258
F	1.387686	0.0	0.0
H	-1.526827	0.083455	-1.39086
H	-0.37614	-0.85588	0.55482
H	0.055599	0.769014	-1.97939
C	-0.446325	1.2365	0.662413
N	-0.563126	2.272958	1.202835
C	-0.071127	-1.396196	-2.082724
H	-0.631289	-2.196884	-1.589691
H	-0.335732	-1.416366	-3.144945
H	0.998501	-1.614481	-1.997458
F	-2.578861	0.0	0.0
