17

C	-0.433159	-0.073163	-1.469579
C	0.0	0.0	0.0
F	-1.789229	-0.529349	-1.503804
H	1.090639	0.0	0.0
N	-0.345128	1.234746	-2.017722
H	-0.57993	1.208364	-3.001313
H	-0.966519	1.87474	-1.538754
C	0.40061	-1.028063	-2.293514
H	0.163753	-2.053467	-2.028133
H	1.454119	-0.831389	-2.080983
H	0.188431	-0.86828	-3.355791
N	-0.360093	-1.180068	0.786487
O	-0.196107	-2.284707	0.260551
O	-0.67074	-1.01595	1.972907
C	-0.502605	1.18888	0.655845
N	-0.854408	2.214649	1.11106
H	2.473385	0.0	0.0
