17

C	-0.429734	-0.107531	-1.469428
C	0.0	0.0	0.0
F	-1.786571	-0.561503	-1.500294
H	1.090639	0.0	0.0
N	-0.336543	1.186306	-2.046583
H	-0.57611	1.137406	-3.028111
H	-0.951926	1.841292	-1.58191
C	0.405978	-1.081399	-2.267553
H	1.458929	-0.886694	-2.047926
H	0.162594	-2.100322	-1.986714
H	0.205085	-0.939038	-3.335165
N	-0.366308	-1.16357	0.810743
O	-0.184847	-2.279062	0.314149
O	-0.704701	-0.973784	1.98434
C	-0.505633	1.204049	0.627948
N	-0.856833	2.242192	1.057855
H	2.475728	0.0	0.0
