17

C	-0.422679	-0.078759	-1.473174
C	0.0	0.0	0.0
F	-1.78276	-0.523315	-1.513706
H	1.090618	0.0	0.0
N	-0.317105	1.224587	-2.026401
H	-0.544043	1.19757	-3.01167
H	-0.932509	1.875957	-1.554988
C	0.405817	-1.047279	-2.285354
H	1.45898	-0.87987	-2.048064
H	0.223006	-0.872118	-3.350728
H	0.137344	-2.069264	-2.036162
N	-0.370931	-1.179612	0.781821
O	-0.770356	-1.015482	1.940289
O	-0.131104	-2.282273	0.281583
C	-0.509229	1.191461	0.64666
N	-0.859894	2.217679	1.102637
H	2.475739	0.0	0.0
