17

C	-0.26403	0.01717	-1.517882
C	0.0	0.0	0.0
F	-1.639628	0.154467	-1.737819
H	1.091705	0.0	0.0
N	0.375758	1.181198	-2.082534
H	0.023111	2.010291	-1.612073
H	1.36798	1.104471	-1.844489
C	0.228312	-1.211926	-2.242637
H	0.175413	-0.995687	-3.311949
H	-0.385495	-2.075888	-2.000941
H	1.261196	-1.413039	-1.947072
N	-0.447614	-1.170426	0.758929
O	-1.066024	-0.99569	1.816398
O	-0.086005	-2.27592	0.342785
C	-0.496367	1.216015	0.614258
N	-0.818565	2.260935	1.047848
H	2.508158	0.0	0.0
