17

C	-0.318767	-0.010915	-1.513329
C	0.0	0.0	0.0
F	-0.152543	1.356739	-1.898405
H	1.092017	0.0	0.0
N	0.615617	-0.835863	-2.166282
H	1.542454	-0.688285	-1.755521
H	0.6237	-0.630206	-3.156642
C	-1.754228	-0.347642	-1.852126
H	-1.900214	-0.261325	-2.933183
H	-1.976644	-1.370684	-1.547861
H	-2.43083	0.34757	-1.350918
N	-0.436439	-1.233031	0.676495
O	-1.210141	-1.146214	1.640967
O	0.050537	-2.287513	0.265244
C	-0.555341	1.162289	0.661071
N	-0.957984	2.134235	1.185658
H	2.559731	0.0	0.0
