17

C	-0.26188	0.023168	-1.518358
C	0.0	0.0	0.0
F	-1.637061	0.165161	-1.74035
H	1.091682	0.0	0.0
N	0.382779	1.187785	-2.079253
H	1.373236	1.110229	-1.832252
H	0.027426	2.015897	-1.610558
C	0.227314	-1.205742	-2.24527
H	1.260143	-1.407685	-1.952623
H	-0.385879	-2.06995	-2.003547
H	0.17206	-0.98774	-3.313083
N	-0.446388	-1.173281	0.753988
O	-0.084283	-2.276653	0.33453
O	-1.06206	-1.002393	1.813686
C	-0.496411	1.212588	0.619499
N	-0.815416	2.255686	1.058669
H	2.505763	0.0	0.0
