17

C	-0.421761	-0.082718	-1.472056
C	0.0	0.0	0.0
F	-1.777838	-0.540267	-1.513988
H	1.090685	0.0	0.0
N	-0.329771	1.222991	-2.027085
H	-0.555935	1.191603	-3.013105
H	-0.9546	1.867128	-1.55779
C	0.415395	-1.043796	-2.283949
H	0.160102	-2.068159	-2.033146
H	0.229552	-0.871756	-3.348784
H	1.46727	-0.863489	-2.046979
N	-0.362843	-1.178999	0.785576
O	-0.733198	-1.014026	1.955391
O	-0.140968	-2.283039	0.279235
C	-0.511359	1.191169	0.646679
N	-0.868785	2.21394	1.106021
H	2.471278	0.0	0.0
