17

C	-0.496438	0.01256	-1.469512
C	0.0	0.0	0.0
F	-0.141169	-1.23385	-1.972433
H	1.090951	0.0	0.0
N	-1.917305	0.135767	-1.662014
H	-2.192054	1.096834	-1.502323
H	-2.400584	-0.43787	-0.977234
C	0.264037	1.078183	-2.22152
H	0.017919	0.99635	-3.281539
H	-0.008889	2.074273	-1.863249
H	1.333109	0.925638	-2.051492
N	-0.501136	-1.242743	0.655966
O	-1.68998	-1.261424	1.012062
O	0.278819	-2.182025	0.764144
C	-0.529091	1.154811	0.699243
N	-0.957605	2.12039	1.216413
H	2.670796	0.0	0.0
