16

C	0.0	0.0	0.0
C	-0.402765	0.666477	-1.350842
F	1.39586	0.0	0.0
H	0.557799	0.95166	-1.795649
H	-0.317183	-1.045213	0.006194
C	-0.496206	0.68669	1.245142
H	-0.130792	0.141662	2.118527
H	-1.588775	0.677741	1.24785
H	-0.127474	1.712445	1.301025
C	-1.285546	1.915451	-1.275397
H	-0.796747	2.683029	-0.67132
H	-1.431185	2.318947	-2.280679
H	-2.259836	1.667902	-0.85252
C	-0.963425	-0.319848	-2.281431
N	-1.331402	-1.09971	-3.078847
Br	-4.057613	0.0	0.0
