17

C	0.0	0.0	0.0
C	-0.539295	-0.048368	-1.451424
Cl	1.754665	0.0	0.0
H	-1.579151	-0.385529	-1.27854
N	-0.550297	0.99527	0.824609
H	-0.263396	1.905063	0.485046
H	-1.5885	0.826445	0.675252
N	-0.369438	-1.364133	0.661708
O	-0.496179	-2.322998	-0.091003
O	-0.434792	-1.399535	1.878997
C	0.197583	-0.928456	-2.348211
N	0.769701	-1.562416	-3.156283
C	-0.615448	1.360527	-2.042206
H	-1.408091	1.895166	-1.520623
H	0.333686	1.898697	-1.954974
H	-0.879645	1.304526	-3.100492
F	-2.762979	0.0	0.0
