17

C	0.0	0.0	0.0
C	-0.534509	-0.128548	-1.428059
Cl	1.811882	0.0	0.0
H	-1.592142	-0.40244	-1.235487
N	-0.546341	1.095149	0.656305
H	-1.587388	0.884389	0.54435
H	-0.291426	1.03492	1.635173
N	-0.31442	-1.336704	0.77029
O	-0.363009	-1.245586	1.991656
O	-0.456414	-2.366758	0.128199
C	0.158548	-1.122431	-2.237587
N	0.666508	-1.860288	-2.99799
C	-0.509703	1.228177	-2.136683
H	0.491687	1.665603	-2.128629
H	-1.198955	1.895623	-1.624895
H	-0.833535	1.103351	-3.173018
F	-2.767776	0.0	0.0
