17

C	0.0	0.0	0.0
C	-0.553558	-0.137766	-1.426142
Cl	1.757675	0.0	0.0
H	-1.607904	-0.419201	-1.228934
N	-0.577236	1.085061	0.650972
H	-1.617445	0.857053	0.533638
H	-0.319866	1.047461	1.630495
N	-0.324715	-1.347762	0.766494
O	-0.501587	-2.370305	0.119815
O	-0.339719	-1.266972	1.989854
C	0.149507	-1.123028	-2.23656
N	0.730042	-1.836258	-2.967528
C	-0.549206	1.216834	-2.139634
H	0.446369	1.66909	-2.135737
H	-0.870188	1.083778	-3.175363
H	-1.248702	1.874828	-1.628969
F	-2.800707	0.0	0.0
