17

C	0.0	0.0	0.0
C	-0.55435	-0.220042	-1.415862
Cl	1.754195	0.0	0.0
H	-1.607182	-0.495864	-1.205502
N	-0.579619	1.119698	0.586825
H	-0.319673	1.14211	1.566981
H	-1.619586	0.883463	0.485443
N	-0.322984	-1.301303	0.842534
O	-0.452803	-2.366	0.257699
O	-0.381712	-1.14294	2.056352
C	0.14856	-1.247251	-2.174654
N	0.690222	-2.007958	-2.888518
C	-0.561149	1.094561	-2.201374
H	-1.272732	1.766348	-1.72768
H	-0.877293	0.90345	-3.229481
H	0.425928	1.562515	-2.215625
F	-2.803747	0.0	0.0
