17

C	0.0	0.0	0.0
C	-0.532025	-0.105528	-1.449165
Cl	1.772693	0.0	0.0
H	-1.575593	-0.425688	-1.262917
N	-0.545666	1.02862	0.782859
H	-1.584822	0.853131	0.643821
H	-0.261194	1.923547	0.404233
N	-0.364369	-1.335169	0.716456
O	-0.491604	-2.323902	0.003426
O	-0.430006	-1.321048	1.934588
C	0.199116	-1.029593	-2.304706
N	0.774454	-1.702946	-3.078042
C	-0.590882	1.277338	-2.100719
H	0.366277	1.804818	-2.03615
H	-0.855733	1.178722	-3.155665
H	-1.375565	1.84697	-1.604327
F	-2.757027	0.0	0.0
