17

C	0.0	0.0	0.0
C	-0.472057	0.197918	-1.471227
F	1.364115	0.0	0.0
H	0.445909	0.513219	-1.982082
C	-0.520916	1.015305	0.968892
H	-1.604889	0.926535	1.050331
H	-0.265256	2.008938	0.601387
H	-0.058716	0.840613	1.94187
N	-0.310258	-1.416354	0.508926
O	0.264749	-2.319509	-0.09414
O	-1.022428	-1.548015	1.495412
N	-1.440599	1.278181	-1.581278
H	-1.628417	1.419791	-2.569242
H	-2.322217	0.967779	-1.146644
C	-0.893978	-1.037942	-2.170176
N	-1.243553	-1.90763	-2.87905
Cl	-3.905364	0.0	0.0
