17

C	0.0	0.0	0.0
C	-0.543485	-0.314015	-1.386814
F	1.36331	0.0	0.0
H	-1.631611	-0.429963	-1.251072
C	-0.533004	1.26581	0.608644
H	-0.147354	1.362525	1.623299
H	-0.197894	2.113721	0.009068
H	-1.625914	1.217759	0.610095
N	-0.356107	-1.178111	0.916734
O	0.26266	-1.204873	1.981446
O	-1.193795	-1.989598	0.551519
N	0.066013	-1.531709	-1.907717
H	-0.624409	-2.061238	-2.422162
H	0.841533	-1.316153	-2.520058
C	-0.308832	0.840885	-2.269558
N	-0.072989	1.710522	-3.02478
Cl	-3.78572	0.0	0.0
