17

C	0.0	0.0	0.0
C	-0.529004	-0.296455	-1.408073
F	1.361916	0.0	0.0
H	-1.619144	-0.414672	-1.297923
C	-0.523452	1.265217	0.615908
H	-0.125248	1.356003	1.62629
H	-0.192604	2.114447	0.015845
H	-1.615965	1.219676	0.633807
N	-0.342563	-1.1714	0.936324
O	-0.92731	-2.153596	0.492076
O	0.055925	-1.045241	2.090476
N	0.05016	-1.452116	-2.080368
H	-0.343175	-2.281043	-1.65657
H	1.05203	-1.458444	-1.929726
C	-0.274491	0.889622	-2.239538
N	-0.071801	1.832511	-2.908921
Cl	-3.697593	0.0	0.0
