17

C	0.0	0.0	0.0
C	-0.525971	-0.287471	-1.411551
F	1.36193	0.0	0.0
H	-1.617819	-0.396124	-1.305499
C	-0.522738	1.263336	0.6202
H	-0.203258	2.112072	0.014184
H	-1.614881	1.214264	0.649525
H	-0.112754	1.359325	1.625071
N	-0.343678	-1.174177	0.930948
O	-0.924761	-2.157065	0.48083
O	0.052776	-1.051151	2.087058
N	0.04441	-1.445706	-2.087226
H	-0.359311	-2.273135	-1.669015
H	1.046591	-1.463722	-1.932528
C	-0.256008	0.900398	-2.236579
N	-0.030088	1.849256	-2.890598
Cl	-3.696386	0.0	0.0
