15
Coordinates from ORCA-job run
  C   1.08184929123386      0.01959757250281      0.11804143521309
  C   -0.41663931402646      0.29181545099602      0.17923215055834
  F   1.51596691069629      0.02888988936057     -1.19513249311934
  H   -0.74240152297564      0.02451465751787      1.20062372839216
  H   1.62944052140290      0.84227044929758      0.60372856663029
  N   1.38003691831918     -1.28798458745400      0.64385282175142
  H   1.04860260551862     -1.36811597838537      1.59648365282898
  H   2.38119470707675     -1.43872311060062      0.63996292201126
  C   -1.16603931442914     -0.58052757283852     -0.81365092509375
  H   -0.90747262268649     -0.27487888242601     -1.82772605133092
  H   -0.89932122776053     -1.62866990255331     -0.68162055354230
  H   -2.24576017797713     -0.47165079445557     -0.67777469522697
  N   -0.64635518124343      1.70056833924436     -0.13214264438992
  H   -1.63205452868713      1.85545083397491     -0.30489267457154
  H   -0.38104706446163      2.28644363581927      0.65101475988921
