15
Coordinates from ORCA-job run
  C   0.78422263401052     -0.33247808392816      0.77653472457258
  C   -0.51135007337009      0.29931403923959      0.29429499368200
  F   1.43974745284311      0.66816805676400      1.55628736622229
  H   -1.04632159601694      0.63161864494290      1.19687234709429
  H   0.59525210450644     -1.14925314182646      1.47783985873510
  N   1.57328511068930     -0.77565910877966     -0.30155215274238
  H   1.67009786932222     -0.02782527484729     -0.97701896058872
  H   2.47796187670710     -1.10570389051147      0.00366504771580
  C   -1.37018470338594     -0.70162656565613     -0.45878431477705
  H   -2.32710920348090     -0.25172715210994     -0.73890576566781
  H   -1.58174739262619     -1.57660858828374      0.16055423586428
  H   -0.85477613066061     -1.03225229440907     -1.36016629961069
  N   -0.14828960044806      1.41250301737033     -0.58478504771514
  H   0.28051694524053      2.14452683176629     -0.03079946116974
  H   -0.98030529333049      1.79700351026881     -1.01503657161481
