15
Coordinates from ORCA-job run
  C   1.06074422483410      0.09330138219754      0.28585201155341
  C   -0.44215679064517      0.33358403790027      0.21385887451079
  F   1.59961604832749      0.18597556321497     -1.00785644735535
  H   -0.81380500901650      0.16455743774758      1.23604094105005
  H   1.53988806783509      0.89362776489370      0.85973386834897
  N   1.36941020477597     -1.14956776522176      0.90238851045479
  H   2.37094871068657     -1.25277068940869      1.00111028517683
  H   1.02914351907852     -1.91751743554382      0.33805429687336
  C   -1.12990406489476     -0.64080295943917     -0.73126563603527
  H   -0.69709879407236     -0.55466941259483     -1.72779825361239
  H   -1.04827325585574     -1.67282388573941     -0.38244229068500
  H   -2.19675168645268     -0.41112409231026     -0.79671418842267
  N   -0.67492282744401      1.69518832799351     -0.26576359313241
  H   -1.67210579989442      1.86585544693138     -0.31986618621213
  H   -0.29473254726212      2.36518627937897      0.39366780748702
