15
Coordinates from ORCA-job run
  C   0.79005503900039     -0.48854441608850      0.29319206572904
  C   -0.51812545259105      0.28000311458946      0.19025470336552
  F   0.73630232850990     -1.31932076843962      1.40545998780008
  H   -0.64022851860713      0.76812751491314      1.16354461585279
  H   0.91797749313192     -1.14631785491977     -0.58148584432658
  N   1.90846293359121      0.42023908968064      0.49647966684929
  H   2.56363529473123     -0.04010872981919      1.11770310118831
  H   2.39055505417705      0.56750083122053     -0.38162845543080
  C   -1.69251221519254     -0.64369365496496     -0.07890787099088
  H   -1.74824369718720     -1.43435051068966      0.67076662043142
  H   -2.62202083849064     -0.07326548537438     -0.06717859384566
  H   -1.59750449126159     -1.11289342326000     -1.06438975900413
  N   -0.46845469845559      1.33395427355701     -0.81589769877382
  H   0.30580734483832      1.95442125750163     -0.61083758069857
  H   -0.32570557619427      0.93524876209365     -1.73807495814601
