15
Coordinates from ORCA-job run
  C   0.84368153263658     -0.19808796629573      0.75831819578783
  C   -0.51563731601029      0.39103203301655      0.41800145543252
  F   1.55860767634896      0.68463824872992      1.54159937960773
  H   -1.00669852146132      0.60334227773881      1.37551782065591
  H   0.71085240321482     -1.10632707438873      1.36499402813942
  N   1.62867622142941     -0.41305728696985     -0.44515162142395
  H   1.40635411884958     -1.31630216835433     -0.84550355201092
  H   2.60686673682639     -0.42726748738721     -0.18182708236184
  C   -1.34433765732494     -0.64396662914092     -0.34807510103538
  H   -0.90218197668634     -0.83448734542621     -1.32966692982405
  H   -1.42891497418279     -1.59254798557955      0.19351072594146
  H   -2.35716994789739     -0.26743580776378     -0.51090511263471
  N   -0.31776634625196      1.65141502388130     -0.28151600540078
  H   0.31684671239000      1.48537480265166     -1.05440280811193
  H   -1.19917866188069      1.98267736528804     -0.65389339276131
