15
Coordinates from ORCA-job run
  C   1.06059050308172      0.08124307999440      0.37635486720437
  C   -0.43368628272499      0.34958456519008      0.35828248796532
  F   1.55687042930300      0.43605827654781     -0.91037669202680
  H   -0.78356615071794      0.17182369380590      1.38035535444523
  H   1.54561330922247      0.76947954317519      1.07026813489981
  N   1.38338143504069     -1.25408562990721      0.71447650083290
  H   1.05166067892362     -1.89721175950117      0.00769128644452
  H   2.38381474719960     -1.36818386539325      0.80832658425018
  C   -1.17586314062152     -0.58664640815545     -0.59648636638098
  H   -0.75984112188144     -0.50889777246867     -1.60379937610040
  H   -1.13067365180481     -1.62984478714448     -0.27144539325060
  H   -2.23160898569433     -0.30865399124360     -0.64220320773369
  N   -0.60812031852890      1.77187817619547      0.07336336335571
  H   -1.59240174855921      2.00924047974713      0.09728271822979
  H   -0.26816970223797      1.96221639915784     -0.86209026213536
