15
Coordinates from ORCA-job run
  C   0.99306515026951      0.12720104884011      0.31681406768636
  C   -0.52132456181768      0.31542326032815      0.31348516086231
  F   1.45566365853190      0.44788265733931     -0.98981229301352
  H   -0.85369823326878      0.16619763334680      1.34606237829335
  H   1.46226603509456      0.86924754838850      0.96973111189365
  N   1.39699290439691     -1.16666603782586      0.72085919464492
  H   2.40453858906103     -1.23078903395474      0.78235803718454
  H   1.06728297720766     -1.86804045354492      0.07119292088657
  C   -1.21913825656019     -0.69861200349759     -0.58404159174626
  H   -0.82000265888945     -0.64913965726355     -1.60014799018406
  H   -2.28236836282998     -0.46166023041925     -0.62141136160020
  H   -1.11002806183386     -1.71953680839960     -0.21168350275371
  N   -0.91972857280451      1.66162476226188     -0.09132403555770
  H   -0.49621097278468      1.86553544765786     -0.98981246727632
  H   -0.55830963377246      2.34233186674290      0.56773037068007
