15
Coordinates from ORCA-job run
  C   0.75721659416242     -0.30971124130110      0.73765213671081
  C   -0.58222394900476      0.30765187220990      0.35049998641622
  F   1.40510166586863      0.63264371211933      1.58172291865651
  H   -1.06797091144293      0.57746436226430      1.29486906659257
  H   0.61461767570182     -1.20094350970919      1.35491025970347
  N   1.55560190797515     -0.63706743993529     -0.38446364832041
  H   1.78010448442336      0.19938971580099     -0.90737587966112
  H   2.41931143721977     -1.07922838974771     -0.10005070493635
  C   -1.45216333134038     -0.69256491493605     -0.39137587997550
  H   -2.41875942804563     -0.24048301485759     -0.61857803774678
  H   -0.97195224280047     -0.99711385610220     -1.32369635816605
  H   -1.61791058461304     -1.59140508887420      0.20744939536207
  N   -0.46296881568257      1.53403335636517     -0.42975330669527
  H   -0.15948756640876      1.33288243461250     -1.37489514373662
  H   0.20048306398739      2.16445200209114      0.00408519579644
