15
Coordinates from ORCA-job run
  C   0.81695800768915     -0.25193013748526      0.84019812887229
  C   -0.48888333733301      0.32705884850865      0.30774675009173
  F   1.32873624008187      0.72768807460097      1.72119276431559
  H   -1.07183225919793      0.64752324742908      1.18427001433956
  H   0.62632184809792     -1.13116983503461      1.46243545553521
  N   1.76843589650427     -0.53727229821058     -0.16211852455728
  H   1.56596656892127     -0.05497197671746     -1.02576745074440
  H   1.96883001366805     -1.51400909600575     -0.28792591946466
  C   -1.27963664355095     -0.71546504362217     -0.46363285074607
  H   -2.22484102543008     -0.29747165822226     -0.82059224230702
  H   -1.51636618900459     -1.57580594570601      0.16796213919339
  H   -0.71161408622111     -1.05842594727589     -1.33009937328058
  N   -0.13817691704719      1.43540929253309     -0.57925832532519
  H   0.33279088671352      2.15346644574365     -0.04046335563413
  H   -0.97668900389121      1.84437602946454     -0.97294721028844
