15
Coordinates from ORCA-job run
  C   0.81462265964767     -0.23887571660516      0.84581049810060
  C   -0.49601631000348      0.31973563974673      0.30378012789390
  F   1.30491172499026      0.74807066187592      1.73085114018549
  H   -1.09005726397972      0.63147587835143      1.17600853715913
  H   0.63294839323070     -1.12098629955671      1.46666071865601
  N   1.77785940515061     -0.50859969232031     -0.14982474770488
  H   1.99527812659538     -1.48208032829729     -0.27300593813301
  H   1.57230973723237     -0.03134598421366     -1.01556726657924
  C   -1.26520845938145     -0.73578736018014     -0.47193603645865
  H   -1.49171578451968     -1.59954068148658      0.15867818195583
  H   -2.21490500881248     -0.33316745147435     -0.83457394805264
  H   -0.68659768785099     -1.06976783632266     -1.33490450003820
  N   -0.15650275146458      1.43276282164240     -0.58128040616836
  H   -0.99799295415075      1.82886821666610     -0.98160561930310
  H   0.30006617331614      2.15823813217427     -0.04009074151288
