16

C	-0.192997	0.010195	-1.510739
C	0.0	0.0	0.0
Cl	-1.948217	0.315883	-2.005334
H	1.101077	0.0	0.0
H	-0.020505	-0.994862	-1.912243
N	0.646277	1.029696	-2.068378
H	0.78512	0.866633	-3.057642
H	1.558302	0.935585	-1.598355
C	-0.573213	-1.227722	0.668092
H	-0.293642	-1.217278	1.722928
H	-1.6667	-1.248198	0.597791
H	-0.177902	-2.141897	0.214327
N	-0.433144	1.216924	0.675471
H	-1.360936	1.466528	0.342588
H	0.191964	1.963278	0.391905
H	2.93346	0.0	0.0
