16

C	-0.444098	-0.09235	-1.453541
C	0.0	0.0	0.0
Cl	-0.306354	1.531205	-2.270708
H	1.104399	0.0	0.0
H	-1.510363	-0.332253	-1.526345
N	0.328516	-1.03902	-2.218944
H	1.298039	-0.967936	-1.907376
H	-0.005648	-1.972193	-2.012034
C	-0.44147	-1.265093	0.724537
H	-0.084948	-1.22948	1.758124
H	-1.533743	-1.35356	0.737397
H	-0.000223	-2.156536	0.274721
N	-0.598732	1.150706	0.691087
H	-0.213272	1.141253	1.630667
H	-0.216493	1.987175	0.261697
H	3.03698	0.0	0.0
