12

C	0.0	0.0	0.0
C	-0.568667	-0.057632	-1.407842
F	1.37407	0.0	0.0
H	-1.641596	0.209627	-1.203657
H	-0.371227	-0.857551	0.556818
H	-0.350748	0.908405	0.489137
N	-0.4472	-1.433116	-1.952394
H	-1.159399	-1.962756	-1.438333
H	-0.772479	-1.414171	-2.914975
C	0.115667	0.883613	-2.282622
N	0.66338	1.648484	-2.988898
F	-2.756616	0.0	0.0
