12

C	0.0	0.0	0.0
C	-0.39446	-0.271026	-1.483361
F	1.381811	0.0	0.0
H	0.542919	-0.115147	-2.035453
H	-0.377427	-0.752837	0.684883
H	-0.366021	0.979612	0.301858
N	-1.438074	0.531254	-2.101176
H	-1.099299	1.489336	-2.095633
H	-2.195285	0.44977	-1.361033
C	-0.701584	-1.701206	-1.653792
N	-0.847889	-2.856406	-1.803475
F	-2.661064	0.0	0.0
