15

C	0.0	0.0	0.0
C	-0.571668	0.187408	-1.40553
Cl	1.783926	0.0	0.0
H	0.246505	0.198025	-2.139816
H	-0.323418	-0.976628	0.340646
C	-0.408602	1.069871	1.005752
H	0.012938	0.812441	1.980281
H	-0.018987	2.047285	0.710787
H	-1.499582	1.047683	1.021026
C	-1.339319	1.414488	-1.582989
N	-1.729589	2.497686	-1.818594
N	-1.394156	-1.002853	-1.850101
O	-2.19933	-0.804348	-2.74765
O	-1.067459	-2.099929	-1.416985
F	-2.58527	0.0	0.0
