15

C	0.0	0.0	0.0
C	-0.571558	0.15195	-1.410176
Cl	1.783734	0.0	0.0
H	0.247792	0.137563	-2.143312
H	-0.322363	-0.969234	0.36299
C	-0.4108	1.092501	0.979702
H	-0.027885	2.06462	0.658058
H	0.012812	0.862228	1.960554
H	-1.50269	1.062975	0.993619
C	-1.330256	1.378418	-1.623587
N	-1.72534	2.457829	-1.86794
N	-1.399469	-1.044223	-1.82679
O	-1.080629	-2.133085	-1.367321
O	-2.197599	-0.862165	-2.734417
F	-2.587293	0.0	0.0
