15

C	0.0	0.0	0.0
C	-0.465504	-0.155426	-1.436915
Cl	1.785118	0.0	0.0
H	0.03023	0.596193	-2.056035
H	-0.3479	-0.839991	0.592832
C	-0.416173	1.338855	0.593942
H	-0.05543	2.154444	-0.04049
H	-1.501463	1.335363	0.655361
H	0.035538	1.45627	1.582003
C	-1.926584	-0.124979	-1.75024
N	-2.6419	-0.138227	-2.697885
N	0.057554	-1.463155	-1.983226
O	-0.121759	-2.469821	-1.304576
O	0.617188	-1.43292	-3.076921
F	-2.630117	0.0	0.0
