15

C	0.0	0.0	0.0
C	-0.477593	-0.138591	-1.434399
Cl	1.784907	0.0	0.0
H	-0.041057	0.660936	-2.038223
H	-0.343217	-0.850996	0.58123
C	-0.419808	1.326133	0.620723
H	-1.505267	1.322297	0.682182
H	-0.060434	2.154673	0.002424
H	0.030531	1.424225	1.611487
C	-1.943568	-0.205927	-1.725415
N	-2.663089	-0.33152	-2.661632
N	0.116294	-1.395566	-2.027582
O	0.693193	-1.293416	-3.107745
O	-0.027195	-2.436379	-1.393648
F	-2.640078	0.0	0.0
