17

C	-0.436691	-0.02369	-1.432946
C	0.0	0.0	0.0
Br	-2.445813	-0.088423	-1.695198
H	1.095581	0.0	0.0
N	0.076114	1.238755	-2.122944
O	-0.569565	2.268282	-1.976786
O	1.164881	1.132657	-2.676888
C	0.074785	-1.186046	-2.150038
N	0.460458	-2.108318	-2.769407
N	-0.341002	-1.291645	0.580914
H	0.458555	-1.59128	1.135244
H	-1.158736	-1.218213	1.176788
C	-0.447595	1.204605	0.804581
H	-0.051051	1.077064	1.817213
H	-0.039543	2.136246	0.409589
H	-1.539819	1.290585	0.851676
H	2.615322	0.0	0.0
