17

C	-0.55542	-0.019243	-1.413156
C	0.0	0.0	0.0
Br	0.239878	1.377769	-2.542208
H	1.094495	0.0	0.0
N	-0.2271	-1.341965	-2.113363
O	0.794175	-1.911465	-1.772021
O	-1.001713	-1.691322	-3.001574
C	-2.00378	0.146729	-1.448269
N	-3.161718	0.349245	-1.39947
N	-0.475762	-1.238505	0.621077
H	0.345941	-1.764093	0.90576
H	-1.029511	-1.034151	1.443029
C	-0.439253	1.238603	0.761434
H	0.083151	1.231138	1.722011
H	-0.152121	2.154096	0.241141
H	-1.521647	1.254895	0.93838
H	2.776646	0.0	0.0
