17

C	-0.565252	-0.009333	-1.409245
C	0.0	0.0	0.0
Br	0.225325	1.389923	-2.5395
H	1.094474	0.0	0.0
N	-0.249947	-1.330311	-2.118518
O	0.773349	-1.905184	-1.79083
O	-1.035649	-1.673068	-2.999314
C	-2.013534	0.161963	-1.428725
N	-3.170712	0.361148	-1.351758
N	-0.476253	-1.240211	0.617175
H	0.345849	-1.770914	0.892384
H	-1.022083	-1.037789	1.445075
C	-0.430795	1.235523	0.771744
H	-1.510852	1.251782	0.962711
H	-0.149749	2.152825	0.251281
H	0.104857	1.224491	1.725189
H	2.774845	0.0	0.0
