20

C	0.0	0.0	0.0
C	-0.375178	-0.259591	-1.501147
Br	1.980821	0.0	0.0
H	0.324166	0.358409	-2.079308
C	-0.449996	1.385225	0.435974
H	-1.542282	1.388706	0.504466
H	-0.036272	1.635218	1.415705
H	-0.1265	2.147047	-0.278819
C	-0.522348	-1.050632	0.959541
H	-0.129673	-2.043221	0.735366
H	-1.616577	-1.065309	0.883612
H	-0.253148	-0.79632	1.988237
N	-1.705274	0.142396	-1.905917
H	-1.847139	1.135955	-1.772166
H	-2.447604	-0.307679	-1.370543
C	-0.181749	-1.716941	-1.906219
H	-0.962465	-2.33645	-1.457165
H	0.79639	-2.105319	-1.612189
H	-0.286851	-1.79209	-2.990007
Br	-4.492291	0.0	0.0
