20

C	0.0	0.0	0.0
C	-0.352832	-0.218401	-1.489711
Br	1.994868	0.0	0.0
H	0.10121	-1.187079	-1.760678
C	-0.501309	1.325238	0.533395
H	-1.596218	1.28673	0.563659
H	-0.189982	2.140429	-0.11891
H	-0.133884	1.499718	1.547689
C	-0.4546	-1.162601	0.86382
H	-1.545989	-1.142961	0.937374
H	-0.040263	-1.07677	1.871134
H	-0.140105	-2.119277	0.438776
N	0.179901	0.877982	-2.306842
H	1.166198	0.73378	-2.48229
H	-0.30148	0.874917	-3.198157
C	-1.850347	-0.29783	-1.741167
H	-2.333106	0.669113	-1.606493
H	-2.013959	-0.617902	-2.777322
H	-2.382572	-0.990233	-1.095052
Br	-4.861372	0.0	0.0
