20

C	0.0	0.0	0.0
C	-0.513473	-0.088251	-1.454826
Br	1.98189	0.0	0.0
H	-1.604881	-0.082181	-1.323563
C	-0.462337	1.277058	0.683613
H	-0.157905	1.277734	1.733565
H	-0.05109	2.168817	0.209487
H	-1.556902	1.298243	0.631059
C	-0.452618	-1.206462	0.807309
H	-1.548693	-1.217819	0.792027
H	-0.110049	-1.124316	1.841732
H	-0.066509	-2.139688	0.394532
N	-0.171262	-1.323777	-2.158709
H	0.812215	-1.532478	-2.015896
H	-0.712139	-2.089247	-1.776295
C	-0.131894	1.095882	-2.332962
H	-0.586353	0.943648	-3.313222
H	-0.495959	2.041825	-1.928873
H	0.952581	1.159976	-2.462944
Br	-4.027439	0.0	0.0
