17

C	0.0	0.0	0.0
C	-0.425453	-0.103202	-1.48635
F	1.336663	0.0	0.0
H	0.528781	-0.392938	-1.944463
N	-0.321429	1.245371	0.834715
O	0.170729	1.21144	1.95816
O	-0.884771	2.197225	0.321855
N	-0.353507	-1.263042	0.802783
O	0.104855	-2.269375	0.267751
O	-0.928267	-1.193244	1.871124
C	-0.889972	1.171933	-2.199856
H	-0.177896	1.985969	-2.061538
H	-1.868882	1.46013	-1.828914
H	-0.948769	0.935969	-3.265653
C	-1.312695	-1.217563	-1.837169
N	-1.788693	-2.142842	-2.385624
Cl	-3.143437	0.0	0.0
