17

C	0.0	0.0	0.0
C	-0.668067	-0.008413	-1.351036
F	1.324987	0.0	0.0
H	-1.759399	0.066233	-1.139073
N	-0.4135	1.229686	0.831049
O	0.092971	1.298043	1.944948
O	-1.15027	2.044834	0.296724
N	-0.37779	-1.239994	0.840264
O	0.380365	-1.48173	1.773045
O	-1.364744	-1.877656	0.504212
C	-0.345509	-1.270594	-2.164117
H	0.732773	-1.442508	-2.215013
H	-0.843986	-2.133568	-1.730045
H	-0.718432	-1.135888	-3.180065
C	-0.202862	1.161088	-2.098127
N	0.220668	2.034185	-2.759613
Cl	-3.788201	0.0	0.0
