17

C	0.0	0.0	0.0
C	-0.713214	0.225383	-1.305105
F	1.336275	0.0	0.0
H	-1.772786	0.414721	-1.010714
N	-0.34865	1.08849	1.032192
O	-1.097586	1.988046	0.684412
O	0.236771	0.974953	2.103211
N	-0.391957	-1.333263	0.641524
O	-1.25363	-1.331183	1.50443
O	0.239152	-2.293616	0.210276
C	-0.679533	-0.985023	-2.244657
H	-1.315469	-1.770781	-1.839098
H	0.333484	-1.364084	-2.390266
H	-1.094316	-0.682681	-3.207177
C	-0.133282	1.403538	-1.943966
N	0.342793	2.319327	-2.505936
Cl	-3.725887	0.0	0.0
