16

C	-0.375985	-0.093868	-1.473399
C	0.0	0.0	0.0
F	-0.126158	1.18898	-2.013603
H	1.094359	0.0	0.0
H	-0.359779	0.951998	0.403334
N	0.439008	-0.987031	-2.257393
H	0.282196	-1.929176	-1.920809
H	1.413042	-0.75737	-2.067527
N	-1.744001	-0.454138	-1.683449
H	-1.917307	-0.412901	-2.681371
H	-2.339052	0.221496	-1.218942
C	-0.493738	-1.17603	0.8341
H	-1.583975	-1.221058	0.890059
H	-0.142762	-2.122081	0.413975
H	-0.089867	-1.106035	1.846873
Cl	3.575113	0.0	0.0
