16

C	-0.380986	0.190293	-1.464356
C	0.0	0.0	0.0
F	-0.216505	1.540853	-1.75681
H	1.092023	0.0	0.0
H	-0.373234	0.854049	0.570153
N	0.504292	-0.486032	-2.399007
H	0.449427	-1.482344	-2.21717
H	1.460368	-0.215238	-2.167559
N	-1.764037	-0.115124	-1.727369
H	-1.989403	-1.030985	-1.360355
H	-1.873283	-0.142401	-2.73599
C	-0.480137	-1.312554	0.610752
H	-1.564662	-1.337644	0.755562
H	-0.188641	-2.16961	-0.004937
H	-0.009892	-1.458536	1.584615
Cl	3.568195	0.0	0.0
