16

C	-0.390337	-0.076611	-1.47186
C	0.0	0.0	0.0
F	-0.176605	1.189989	-2.011947
H	1.093631	0.0	0.0
H	-0.366874	0.944269	0.408979
N	0.459749	-0.94642	-2.266631
H	1.426588	-0.664871	-2.103932
H	0.376459	-1.888973	-1.901257
N	-1.782304	-0.379586	-1.667812
H	-2.06901	-1.136337	-1.062031
H	-1.90002	-0.669641	-2.632102
C	-0.478631	-1.178406	0.843729
H	-0.23226	-2.134038	0.371033
H	-1.556069	-1.152552	1.035948
H	0.031624	-1.169684	1.808188
Cl	3.569189	0.0	0.0
