16

C	-0.373145	0.270072	-1.454575
C	0.0	0.0	0.0
F	-0.147096	-0.918023	-2.149076
H	1.095478	0.0	0.0
H	-0.370056	-0.989796	0.27701
N	-1.765561	0.590543	-1.632137
H	-1.869264	1.018566	-2.542051
H	-2.079073	1.242192	-0.928108
N	0.485333	1.23466	-2.120196
H	1.449436	0.939123	-1.969729
H	0.383468	2.127805	-1.652024
C	-0.479925	1.059145	0.986914
H	-1.566234	1.041385	1.13867
H	-0.189841	2.064664	0.662427
H	-0.008185	0.897059	1.959931
Cl	3.568351	0.0	0.0
