16
Coordinates from ORCA-job run
  C   0.33501113471698     -0.58717246809520      0.05638062049408
  C   -0.46994215114664      0.71324737437469      0.01578325824508
  F   -0.45795598124804     -1.65174670476428      0.13563582656358
  H   0.21702360896819      1.54835005517394     -0.10144553876998
  N   1.25176336979989     -0.73119474702952     -1.15215389777849
  O   0.97776014868273     -1.61334923477231     -1.94801217483587
  O   2.15952349316590      0.08804911963126     -1.19261129141155
  N   1.27041397296283     -0.60418019010606      1.25765803346000
  O   1.65163944835500     -1.71410719077028      1.60215626845669
  O   1.56987695236017      0.47922282069929      1.74443372998653
  N   -1.35266032989546      0.91245729999596      1.10346534385972
  H   -1.91580453702074      0.10084583136311      1.31432016226396
  H   -0.87415818872578      1.26627272669222      1.91827209902982
  N   -1.27048087591128      0.62836434959175     -1.27282185935538
  O   -2.40542115945792      0.17851581511948     -1.18953854451195
  O   -0.68558890560585      0.98642514289593     -2.29152203569623
