16
Coordinates from ORCA-job run
  C   0.34164496425623     -0.58206731753797      0.05787471936708
  C   -0.48067935173972      0.70726704956802      0.00582531147124
  F   -0.43910878889077     -1.65828017899917      0.08815226853242
  H   0.19701802954429      1.55359335552044     -0.08130299779952
  N   1.30964659905932     -0.69525655630147     -1.11362336536805
  O   1.08762297054690     -1.57563196857795     -1.92734858251355
  O   2.20093617589886      0.14272386330145     -1.10919119058558
  N   1.22746982507187     -0.60507507589031      1.29611931894341
  O   1.50047832837664      0.47582821152219      1.80346861937089
  O   1.60154713028164     -1.71573472843521      1.64613257804872
  N   -1.40040886759440      0.88217199593312      1.06620289329128
  H   -1.96231199033761      0.06267209380944      1.24762604183138
  H   -0.95356270398019      1.23077045976012      1.90093333541447
  N   -1.23805183848225      0.62346700841368     -1.30914141187203
  O   -2.37456699051185      0.17270540453332     -1.26641071082689
  O   -0.61767349149904      0.98284638338030     -2.30631682730529
