16
Coordinates from ORCA-job run
  C   0.36963217937697     -0.64803419814820      0.01511071294400
  C   -0.39333254332349      0.66344682768380      0.03408655778472
  F   -0.44814037585608     -1.68961296274839     -0.07608369809563
  H   0.31567567405713      1.48799346607882     -0.03889593599502
  N   1.42753319793294     -0.73607186448776     -1.07388864383072
  O   2.00621108130851      0.30759467305273     -1.33798745815899
  O   1.62078554181594     -1.84991960980118     -1.53493557021284
  N   1.14868427109964     -0.75019281280335      1.32884095779108
  O   1.92947977199790      0.16721302504720      1.53333278885092
  O   0.90896873496266     -1.71874197882940      2.02859051887982
  N   -1.15540699975354      0.73899773081037      1.21896195441769
  H   -1.52770620413480      1.66541728816684      1.36813092855281
  H   -1.91031737789772      0.06510733692709      1.23271355882236
  N   -1.23376336883154      0.73595218241822     -1.25929788046290
  O   -0.78833248994152      0.17907610991145     -2.25650398640149
  O   -2.26997109281299      1.38277478672168     -1.18217480488591
