16
Coordinates from ORCA-job run
  C   0.32965599677641     -0.63325078406480      0.03200164295140
  C   -0.48145709855469      0.65401324707588      0.00651596094320
  F   -0.42385360478091     -1.72204237004393      0.05650579293477
  H   0.19577534986600      1.50163586720724      0.08193631210900
  N   1.34449613609261     -0.73758277124533     -1.09081405313296
  O   1.62912695174851     -1.86644662111421     -1.45758529370715
  O   1.80116829714660      0.32967542447226     -1.47960693409890
  N   1.16775615974555     -0.61587404426502      1.31726730913476
  O   1.85615614655705      0.38417560941893      1.47705946652552
  O   1.06054098829079     -1.58410997679853      2.05272737155692
  N   -1.47218225501511      0.68939550720849      1.01058708629220
  H   -1.26932456829464      1.29291255952041      1.78858754121363
  H   -1.84949830334573     -0.20462880307049      1.28395301097342
  N   -1.13292037291990      0.79885790554607     -1.36969415945329
  O   -1.66513026162628      1.87736821455778     -1.57866544935575
  O   -1.08830956168633     -0.16509896440476     -2.13077560488676
