16
Coordinates from ORCA-job run
  C   0.27454485384377     -0.65889516887487      0.04018908737157
  C   -0.41884130405384      0.69516134325032      0.01079762950745
  F   -0.56560531239629     -1.67019559318645      0.20020343592542
  H   0.33425370473978      1.47889620105238     -0.02769178224091
  N   1.16230529441696     -0.91628024414171     -1.16269108799282
  O   1.66442483566937      0.08198486745969     -1.66272118857178
  O   1.31680738658750     -2.08548842116009     -1.47779902516506
  N   1.23132073674867     -0.65179208273879      1.23968331590947
  O   1.10391378971921     -1.55917517527332      2.04596977509983
  O   2.02450493138226      0.28072736547516      1.26730325145450
  N   -1.30018222859676      0.87398276274172      1.09758431618066
  H   -1.72690276566661      0.03572905627058      1.45993047687899
  H   -0.97668660300010      1.50203338658853      1.81260227016789
  N   -1.18500595617868      0.82847824418298     -1.30627754120514
  O   -1.63072601324391      1.94186051896153     -1.53457752767044
  O   -1.30812534997133     -0.17602706060767     -2.00350540564966
