16
Coordinates from ORCA-job run
  C   0.78584307781078     -0.01962071522635      0.16051463948968
  C   -0.49606382619032      0.78910356499055     -0.09999278058580
  F   1.61244021308260      0.76617107277145      0.86707603088524
  H   -0.16075048169563      1.65515456445241     -0.67797936188421
  N   0.54001620312274     -1.27749979771765      0.95820044133128
  O   1.42981214607524     -1.62680316865765      1.71792942416781
  O   -0.53560751045051     -1.82696553070657      0.74725115826445
  N   1.53384683863139     -0.41948686643337     -1.10177561542612
  O   1.99930080158732      0.52911939554197     -1.71419631735036
  O   1.60094003659472     -1.60961348887074     -1.36861027084500
  N   -1.18912896842681      1.20620926238289      1.06005554767531
  H   -1.55496406326264      0.43853333517961      1.60553522554462
  H   -0.64883165648675      1.84776002770481      1.62169687783220
  N   -1.42549422686419      0.02693085875638     -1.02535282572305
  O   -2.56543314590210     -0.18724288680355     -0.65037222595028
  O   -0.92592543762582     -0.29174962736415     -2.09997994742580
