16
Coordinates from ORCA-job run
  C   0.54770907416297     -0.42208465599416     -0.37273094781727
  C   -0.48576340217447      0.71496074748555     -0.33964805354514
  F   0.62761679424454     -0.94202064206823     -1.60020151525041
  H   -0.16625376725413      1.43930675250022     -1.08850770317577
  N   1.93903959969872      0.07891924499120     -0.01359637757722
  O   2.09501804052385      1.29112555396959      0.08108013353723
  O   2.78854304220788     -0.79510747121169      0.08894121822021
  N   0.26679658174848     -1.53629710141095      0.61508902586635
  O   0.33836325056276     -1.18761118128155      1.78831313988487
  O   0.00566663174644     -2.63661274578567      0.16495034658261
  N   -0.78079859762711      1.35847724102069      0.88659314174734
  H   -0.09019234216539      2.06308672908301      1.09969468840834
  H   -0.87116126439371      0.70820175703966      1.65492996563004
  N   -1.76099920978326      0.10250297476041     -0.87268480170139
  O   -2.17068109364116      0.49175097811745     -1.95854415882070
  O   -2.28390333785639     -0.72859818121550     -0.13467810198907
