16
Coordinates from ORCA-job run
  C   0.44191942209369     -0.59844625300492     -0.04751633504372
  C   -0.46540710633028      0.60892328695821      0.09825576603051
  F   -0.25391716500190     -1.71868860544307     -0.19863815035173
  H   0.14134333531242      1.51395057079541      0.07024934463777
  N   1.46150487695185     -0.47867866955115     -1.16948172444455
  O   1.90892521543120      0.64217063370722     -1.36276028434242
  O   1.76186243880800     -1.52327205591726     -1.72547006510768
  N   1.27625538401773     -0.70841623979839      1.23151345491510
  O   1.17495607224553     -1.74909459714176      1.85778132077228
  O   1.95434596370675      0.27535093295551      1.48681589619089
  N   -1.18531316342528      0.50422339668219      1.30649103285269
  H   -1.84903015023153     -0.25959251813045      1.29240239748616
  H   -1.66346302313422      1.36313992202616      1.53598283687299
  N   -1.35714830302280      0.67982662615816     -1.16099283049296
  O   -0.88667399610834      0.26055169537877     -2.21255518393338
  O   -2.45915980131285      1.18805187432538     -1.00207747604193
