15
Coordinates from ORCA-job run
  C   -0.45777718421684      0.06831606911550      0.50156335638932
  C   0.62199211772199      0.24151131478379     -0.58043650189780
  F   0.21044029007704     -0.18072675506749      1.69743161991119
  H   0.11536872430321      0.52242289685262     -1.51015798152675
  C   -1.18311694417459      1.34249314129718      0.64549484287150
  N   -1.77592198687693      2.34553939450393      0.78715635344048
  C   -1.41546510551882     -1.07533286943339      0.23899743216725
  H   -1.94849140626795     -0.92274368510645     -0.70175577920341
  H   -2.14213864246235     -1.12927098436880      1.05035738981178
  H   -0.86238278239119     -2.01445857459309      0.19540576905157
  C   1.29780234410134     -1.05302607880661     -0.80720726604984
  N   1.84877159086772     -2.07025187977166     -1.01142215293490
  N   1.50451619347873      1.32351000976183     -0.19266676874129
  H   2.15051811978313      1.54496111707512     -0.93942879323131
  H   2.03688467157550      1.05805688375750      0.62666847994220
