15
Coordinates from ORCA-job run
  C   -0.40998963914011     -0.36784297191425      0.56186370352664
  C   0.75086044622366     -0.27210031256035     -0.44767578788154
  F   -0.20027094290198     -1.50900896922873      1.32161240665675
  H   0.63606428314538     -1.12602291441996     -1.12348983823316
  C   -0.35777000734617      0.80209559596709      1.45694357266542
  N   -0.31061752065444      1.76725163797642      2.12435724257812
  C   -1.75500990205077     -0.47418442634271     -0.12382315007362
  H   -2.54302115727429     -0.54732198505435      0.62680083914885
  H   -1.76613906931714     -1.37861247484091     -0.73598924999636
  H   -1.92388504636936      0.39554317635056     -0.75646502689877
  C   2.04176609698119     -0.42009417873744      0.25268902918804
  N   3.09292028851188     -0.47744905413405      0.77391713294092
  N   0.61949917706463      0.95254537583407     -1.21768221078935
  H   1.20077237381861      0.90948814845028     -2.04538143639120
  H   0.92482061930892      1.74771335265433     -0.66667722644072
