15
Coordinates from ORCA-job run
  C   -0.50478689616105     -0.42293104592490      0.43141219904708
  C   0.92089866847581     -0.25993964233702     -0.13946268491113
  F   -0.88762686536090     -1.72004092579452      0.08559777344294
  H   1.55428950061483     -0.98868439115667      0.38947978192665
  C   -0.45240880191529     -0.35268584688276      1.90086030222147
  N   -0.40526177469383     -0.28582429696871      3.07228779837882
  C   -1.50980224640410      0.55208572404582     -0.13948449794923
  H   -1.48310265540562      0.48785105653353     -1.22612508342507
  H   -2.50434970456049      0.29322437300972      0.22618111192210
  H   -1.27131784247766      1.57090585029973      0.16997587662869
  C   1.42129604905312      1.08178450612208      0.17015832669027
  N   1.82811849944115      2.15693662438485      0.40798181913764
  N   0.86689815877486     -0.45376086438709     -1.58201544015638
  H   1.76324853736313     -0.23014813660246     -1.99669949320208
  H   0.66190737325602     -1.42777298434160     -1.77114778975176
