15
Coordinates from ORCA-job run
  C   -0.38836473677907     -0.37020647058608      0.57427443567482
  C   0.73989897914424     -0.26134946771328     -0.47043655606996
  F   -0.14014464018428     -1.50597703904376      1.33062372292998
  H   0.61584198060288     -1.11791006071890     -1.14128332278710
  C   -0.32412740157603      0.80244018672435      1.46490704631343
  N   -0.25961510557663      1.76302724317631      2.13743180434814
  C   -1.75173262962799     -0.49743122534216     -0.07026347982177
  H   -2.51590829742823     -0.57842237151102      0.70382464907194
  H   -1.95125301380581      0.36758675566177     -0.70046140019446
  H   -1.76882746034577     -1.40419964602693     -0.67880231270956
  C   2.05330385314271     -0.39233224357512      0.18999057067464
  N   3.11910551958282     -0.44781888329003      0.68070873264338
  N   0.56849198301206      0.96016610013737     -1.23767534960306
  H   0.88226599562171      1.76007235009431     -0.69847143984246
  H   1.12206497421739      0.92235477201317     -2.08436710062794
