15
Coordinates from ORCA-job run
  C   -0.38877324640035      0.04802126068476      0.58967508422140
  C   0.63405110068156      0.10053109048836     -0.56806361851205
  F   0.28851816910191     -0.23116993706162      1.75810272941039
  H   0.05689430167123      0.20318470837984     -1.50097871891606
  C   -0.98579257119515      1.39169286365498      0.70562686005714
  N   -1.46486099024962      2.46303929205305      0.74027403829359
  C   -1.45925642766690     -1.00631323518425      0.38566804799628
  H   -2.13865057268533     -0.99917763017897      1.23864982620079
  H   -0.98835143758838     -1.98880957562264      0.32057015822761
  H   -2.03171631355398     -0.81447716565604     -0.52372681023973
  C   1.33452918068072     -1.18623077237265     -0.62679634810218
  N   1.89350612172376     -2.21556646403979     -0.69835983557391
  N   1.58805483658453      1.17514426605861     -0.33646422193842
  H   1.20581366391746      2.05604768015487     -0.65799394197568
  H   2.45603418497851      1.00308361864149     -0.82618324914911
