15
Coordinates from ORCA-job run
  C   -0.33373377249465     -0.36304311275883      0.55271931157491
  C   0.84016635380846     -0.29468401848005     -0.45894453836406
  F   -0.16158073120898     -1.51536701919337      1.30463190253382
  H   0.74126474171678     -1.18463911641523     -1.09168391623665
  C   -0.26330658522590      0.80412920206563      1.44832778420105
  N   -0.20361467197707      1.77490100212775      2.10677358756896
  C   -1.68504110382053     -0.44126467064107     -0.13008058867535
  H   -1.69640032412140     -1.29788823853144     -0.80779164410230
  H   -2.46054646899914     -0.58092238982310      0.62405550449368
  H   -1.90443335956511      0.47095255407385     -0.68553467123119
  C   2.10851477928072     -0.41021958653531      0.27484995962246
  N   3.11697656515423     -0.47936042499368      0.87093847595356
  N   0.87923359691436      0.87410391615902     -1.30861262693687
  H   0.08423938521778      0.91207348424263     -1.93097300793534
  H   0.94026159532048      1.72922841870324     -0.76967553246668
