15
Coordinates from ORCA-job run
  C   -0.42477512244589      0.02367215661858      0.56590711749620
  C   0.66687394108606      0.12865721554922     -0.52386760949895
  F   0.18390954367160     -0.27217242386259      1.76691659320851
  H   0.14683305719239      0.24424729424059     -1.48828428530199
  C   -1.05807608782538      1.35118039796254      0.67716481140925
  N   -1.55825564599497      2.41284746175995      0.71110781796910
  C   -1.45627186936252     -1.04687198064898      0.26737900174883
  H   -0.95993006549808     -2.01685529899596      0.20345432106530
  H   -2.18552494791741     -1.07971837786252      1.07755594043979
  H   -1.97747895714362     -0.84057532002584     -0.66922172335852
  C   1.39857024179193     -1.14106540619370     -0.57073267788772
  N   1.97780621178046     -2.15952666572929     -0.63641036684324
  N   1.58066238952607      1.21636227127746     -0.20476755793094
  H   2.47545897540232      1.08141127019754     -0.65681948615876
  H   1.19319833573699      2.09840740571298     -0.51738189635685
