15
Coordinates from ORCA-job run
  C   -0.37301741360291     -0.49828284582074      0.48165132021621
  C   0.93920903823922     -0.07612598403971     -0.21534989835941
  F   -0.51635173844343     -1.85641032399954      0.19394880599072
  H   1.74681850015879     -0.64674275153638      0.26853126000757
  C   -0.21193330954358     -0.36877575160287      1.93922785820492
  N   -0.07256649197026     -0.27215224229996      3.10119133492977
  C   -1.59630885073414      0.23856367281587     -0.01539970609906
  H   -1.54230298901247      1.29444318042125      0.25453169094310
  H   -1.64711901892934      0.14406907706330     -1.09899737794017
  H   -2.48541293969833     -0.19971573992607      0.43989351362997
  C   1.18425585930646      1.34792487418320      0.02663022203129
  N   1.38322292837008      2.49072614099352      0.20631528506551
  N   0.80609538707804     -0.32513277729373     -1.64393236164009
  H   1.60399004648164      0.05359853206688     -2.13915248751229
  H   0.78042099230023     -1.32598706102504     -1.79808945946800
