15
Coordinates from ORCA-job run
  C   -0.43622296084045     -0.45688626868383      0.47037560975065
  C   0.93757607825460     -0.16502081786635     -0.17177434555320
  F   -0.68706870777228     -1.80226945920865      0.19502754331080
  H   1.66904699099470     -0.79619624107837      0.35604193356378
  C   -0.32966787819751     -0.31370846357779      1.93182524345278
  N   -0.24221810708770     -0.17045362267293      3.09404903268840
  C   -1.56644348018915      0.37562153287162     -0.09139863662449
  H   -2.50962227619193      0.02970412353780      0.33351722769596
  H   -1.42762580033520      1.42819322868969      0.16058556163268
  H   -1.58124948628313      0.26180332684278     -1.17425929167465
  C   1.29897188154365      1.23558667241819      0.06164486383963
  N   1.59694582643636      2.35663131739752      0.24136129241089
  N   0.84568066333692     -0.42666486106383     -1.60139817276737
  H   0.73404310566296     -1.42362803091578     -1.74211258718473
  H   1.69685415066813     -0.13271243669011     -2.06448527454116
