15
Coordinates from ORCA-job run
  C   -0.39711752114833      0.09748557657857      0.46723962636198
  C   0.68270276979839      0.08045895099973     -0.64581048780815
  F   0.27703877435572      0.04011347216692      1.68218182733947
  H   0.16738849089547      0.17629143809456     -1.60854656748948
  C   -1.08060691796518      1.40119381125056      0.39290641404767
  N   -1.61651875273140      2.43987177905843      0.27957914322937
  C   -1.38385142484907     -1.04811918565728      0.40047907183793
  H   -1.92278252848978     -1.03686712978635     -0.54926204732585
  H   -0.84741455567310     -1.99255500155558      0.50165373712630
  H   -2.10309992448949     -0.96001761970154      1.21578503902862
  C   1.35186074720956     -1.22905805721455     -0.62319467199471
  N   1.86619467954278     -2.28323902742589     -0.58815149832495
  N   1.67390062609289      1.13120523155136     -0.55231781419489
  H   1.25667082976839      2.03254700327995     -0.75025100084209
  H   2.07463470768316      1.15068875836111      0.37770922900878
