15
Coordinates from ORCA-job run
  C   -0.44039007034931      0.04887226352982      0.55257796703212
  C   0.67582064599352      0.11352006438672     -0.51515084391934
  F   0.14560900170915     -0.16062757703485      1.78312241273034
  H   0.17844757738632      0.15822499382257     -1.49712279405768
  C   -1.10451703516724      1.36566420279491      0.56815575150286
  N   -1.64056903741495      2.40887904259615      0.51665297497860
  C   -1.44130608393128     -1.06083293228607      0.29630590995675
  H   -1.94207679837116     -0.92450819955876     -0.66396654549317
  H   -2.19062327008745     -1.05983278289429      1.08860525062257
  H   -0.92307833710077     -2.02140209136130      0.30515998628413
  C   1.43590815971959     -1.13941468794656     -0.46709525864718
  N   2.04227453593285     -2.14389497727935     -0.44902280028290
  N   1.55512302298931      1.24106546676826     -0.24191886458696
  H   1.17222549708666      2.08744695015306     -0.64485089536889
  H   2.47615219160480      1.08784026430974     -0.63045225075127
