15
Coordinates from ORCA-job run
  C   -0.41989179775761      0.10722952745361      0.44546290748573
  C   0.71037596237167      0.07124325792344     -0.61572392707366
  F   0.19760735049993      0.10002746893711      1.69174085987669
  H   0.23788499721898      0.13231820458936     -1.60301203721805
  C   -1.11625098330787      1.39780108971876      0.29755829869848
  N   -1.65321689421612      2.42867674071613      0.13017529894219
  C   -1.38587216461941     -1.05549930211835      0.37229170287992
  H   -1.87658968369550     -1.08821407330695     -0.60272655599706
  H   -0.84154801605335     -1.98670729653075      0.53483057379300
  H   -2.14606859222455     -0.94938903682267      1.14720612663502
  C   1.39136889122024     -1.22913950915485     -0.52680119601455
  N   1.91110059550126     -2.27837865922799     -0.44842328045798
  N   1.68382890477239      1.13714152130764     -0.50937184341957
  H   2.04279931517807      1.18805469118453      0.43624408432599
  H   1.26447211511189      2.02683537533096     -0.75045101245617
