15
Coordinates from ORCA-job run
  C   -0.39846752144299     -0.33967399099576      0.58638090552779
  C   0.74417325513948     -0.29232074097142     -0.44666659022217
  F   -0.17377140932530     -1.44221408923035      1.39758614789899
  H   0.62011934545809     -1.17778457529937     -1.07881929365206
  C   -0.33283694599925      0.87284618621198      1.42196143956140
  N   -0.28195964401753      1.87361218457866      2.03442138703508
  C   -1.75538085665120     -0.48094307896878     -0.06883364913511
  H   -1.93924601100916      0.35794080464322     -0.73788873268063
  H   -2.52891318513884     -0.52070683733060      0.69917209576148
  H   -1.77482214745437     -1.41290981809883     -0.63791890380936
  C   2.04736465681936     -0.40503971910913      0.23702031771504
  N   3.10650471501738     -0.45207077364390      0.74281332249394
  N   0.59571758183751      0.89307036330193     -1.27369828411923
  H   1.16450591264237      0.81097923244655     -2.10714974440323
  H   0.90701225412445      1.71521485246582     -0.76738041797193
