15
Coordinates from ORCA-job run
  C   -0.39622139437205     -0.33604733993842      0.58928349773099
  C   0.74248452308681     -0.29086947049798     -0.44839276005483
  F   -0.16326313876571     -1.43101274140668      1.40790568724997
  H   0.61978952168707     -1.18201597199414     -1.07288674611383
  C   -0.33207315953935      0.88252210888943      1.41645395647685
  N   -0.26968073065765      1.87720245404670      2.03766377092392
  C   -1.75454849402688     -0.48831462590731     -0.06032226467579
  H   -1.94273857102329      0.34339956476362     -0.73708227675962
  H   -1.77240867082046     -1.42589790173348     -0.62021646427024
  H   -2.52601118922360     -0.52342677210665      0.70997586475016
  C   2.04868588815100     -0.39391485136495      0.23120318246610
  N   3.10968445470918     -0.43419230868047      0.73366446324803
  N   0.58649368977846      0.88783266355167     -1.28300132130049
  H   0.89983376933613      1.71428168914309     -0.78511330834510
  H   1.14897350168032      0.80045350323559     -2.12013528132611
