15
Coordinates from ORCA-job run
  C   -0.39220777633411     -0.35097690863969      0.58428524592519
  C   0.73554526583566     -0.28263817627848     -0.46443766925152
  F   -0.15556689853623     -1.46905564470206      1.37008744917129
  H   0.60018644561817     -1.15490461717773     -1.11242671281049
  C   -0.31309438618642      0.84386043987571      1.44367029175127
  N   -0.23383188222270      1.82030570334987      2.09133598030193
  C   -1.75805704390119     -0.47968809248490     -0.05474860562494
  H   -1.78646702559638     -1.40164779925640     -0.63956184452832
  H   -2.52154173260160     -0.53206471404163      0.72248807331136
  H   -1.94915614987821      0.37075223315248     -0.70702064293185
  C   2.04868102701659     -0.41107642257442      0.19719750175300
  N   3.11719810713792     -0.46180497205976      0.68253689856138
  N   0.57702454294190      0.92032536739912     -1.26319831158261
  H   1.13489916407966      0.85683289186241     -2.10560660634648
  H   0.89538834262695      1.73078071157552     -0.74260104769922
