15
Coordinates from ORCA-job run
  C   -0.38965933257166     -0.49937197315201      0.47007761125458
  C   0.94033930529183     -0.10063776521834     -0.20609464477817
  F   -0.56417053045442     -1.84882207478901      0.15941072038781
  H   1.72752874594803     -0.69931518019956      0.27770154782672
  C   -0.24339520230850     -0.39253124074107      1.93127718651117
  N   -0.13225130216014     -0.26673516225055      3.09349150336370
  C   -1.58850351710188      0.27601822839837     -0.02789800364456
  H   -2.49333067650374     -0.14632476947847      0.41111897598960
  H   -1.62950388530886      0.19917406625119     -1.11334984459548
  H   -1.51064383024544      1.32587631131704      0.25908300007299
  C   1.22024311689482      1.31265424490197      0.05993099403058
  N   1.44794658226431      2.44705762012376      0.25758642149776
  N   0.81714200996901     -0.32521867800548     -1.63951698491615
  H   1.62890905288473      0.04190157310009     -2.12069089559324
  H   0.76934946340188     -1.32272520025797     -1.80912758740732
