15
Coordinates from ORCA-job run
  C   -0.39241054232115     -0.36595718958877      0.57553051440552
  C   0.74218901655770     -0.27023781225747     -0.46354063258410
  F   -0.15300079084640     -1.49685665474967      1.34181713210979
  H   0.61928123004695     -1.13269700664132     -1.12696962673590
  C   -0.32906740039553      0.81407155713922      1.45649237121920
  N   -0.27399033803472      1.78729611587687      2.11149423737583
  C   -1.75296585228605     -0.49220608148088     -0.07524712064207
  H   -1.94649719877201      0.36974381212970     -0.71145119946472
  H   -1.77024051276090     -1.40243834954629     -0.67859638187857
  H   -2.52100285354152     -0.56604873864782      0.69574070730555
  C   2.05132153456742     -0.39815113368936      0.20632225778238
  N   3.11527768558062     -0.43870462201392      0.70256117341810
  N   0.57983441864895      0.94454839539523     -1.24303559772402
  H   0.89089556074679      1.74860124064769     -0.70841036263367
  H   1.14037604280986      0.89803646742683     -2.08470747195335
