15
Coordinates from ORCA-job run
  C   -0.36109524636919     -0.51394772701851      0.57402355848431
  C   0.95639429923054     -0.13653528322399     -0.14515157771823
  F   -0.41660740286509     -1.89683807627278      0.59208120580566
  H   1.74495109379741     -0.69465573407270      0.36968122728631
  C   -0.29882353860901     -0.05090193553317      1.97238564316768
  N   -0.26061338440005      0.33793105024583      3.07991350218696
  C   -1.59326367380796      0.01380591342992     -0.12851925240709
  H   -1.61945983817245     -0.40387459501350     -1.13525270668114
  H   -2.48424978470347     -0.30932801217273      0.41074096419850
  H   -1.58155590140702      1.10491994644656     -0.17110060853849
  C   1.21502036146663      1.30439687301675      0.02120432018146
  N   1.39622335668597      2.46415003920325      0.07506537213548
  N   0.90748910610694     -0.56431688559536     -1.53202714483316
  H   1.82825006148774     -0.83136413650374     -1.85251196481818
  H   0.56734049155902      0.17655856306418     -2.13153253845003
