15
Coordinates from ORCA-job run
  C   -0.34416948284454     -0.33550044511883      0.56372862292053
  C   0.84831871727961     -0.31381361485941     -0.42794083868278
  F   -0.18510564507207     -1.44952695006146      1.37425185683431
  H   0.75940410424779     -1.23053388316209     -1.02285111747378
  C   -0.29304406483729      0.87474870942361      1.40131457490280
  N   -0.25405215817658      1.88128077406942      2.00552221238815
  C   -1.68217824513182     -0.45054907122512     -0.13990558162474
  H   -2.47182913979460     -0.55363074341744      0.60539380135436
  H   -1.67940057815816     -1.34024333690090     -0.77365787161873
  H   -1.89194141945270      0.43207652154271     -0.74477234712906
  C   2.10324794462459     -0.40062238366962      0.33218031357041
  N   3.10292190260549     -0.45346021803056      0.94426009006915
  N   0.90560921508459      0.81630312085285     -1.32767973236246
  H   0.96080297196420      1.69393112769140     -0.82556168371206
  H   0.12041587766150      0.82954039286540     -1.96328229943610
