14

C	0.0	0.0	0.0
C	-0.546575	0.121232	-1.428808
Cl	1.754165	0.0	0.0
H	-0.350531	-0.812446	-1.963284
H	-1.652351	0.185952	-1.264043
N	-0.611385	1.142708	0.733549
O	-0.330493	2.282764	0.294688
O	-1.751139	0.800802	1.250625
N	-0.431232	-1.214839	0.637463
H	-0.126631	-1.995244	0.065661
H	-1.454163	-1.173208	0.648495
C	-0.071339	1.23067	-2.239455
N	0.280478	2.04023	-3.015934
H	-2.888155	0.0	0.0
