14

C	0.0	0.0	0.0
C	-0.527733	-0.006215	-1.445237
Cl	1.755738	0.0	0.0
H	-1.634177	0.061349	-1.310489
H	-0.164733	0.88007	-1.96967
N	-0.614795	1.238492	0.558627
O	-1.76692	0.967747	1.099294
O	-0.331528	2.306983	-0.03616
N	-0.426042	-1.11656	0.791127
H	-0.131938	-1.968238	0.325284
H	-1.44702	-1.068462	0.811308
C	-0.205707	-1.22874	-2.152263
N	0.054743	-2.231501	-2.70877
H	-2.882245	0.0	0.0
