14

C	0.0	0.0	0.0
C	-0.526983	-0.003479	-1.445354
Cl	1.755595	0.0	0.0
H	-0.165289	0.884898	-1.966892
H	-1.633594	0.062596	-1.310657
N	-0.614765	1.23724	0.559526
O	-1.767281	0.966642	1.099809
O	-0.33036	2.307267	-0.032487
N	-0.426429	-1.118138	0.788888
H	-0.13571	-1.968488	0.318985
H	-1.447298	-1.068009	0.811623
C	-0.202489	-1.222689	-2.156426
N	0.060185	-2.221457	-2.718824
H	-2.882366	0.0	0.0
