14

C	0.0	0.0	0.0
C	-0.536977	0.145535	-1.432535
Cl	1.754336	0.0	0.0
H	-0.338489	-0.778375	-1.98075
H	-1.641125	0.211531	-1.27639
N	-0.606221	1.141828	0.742497
O	-0.310316	2.284123	0.315735
O	-1.749847	0.806185	1.252982
N	-0.44276	-1.217129	0.617477
H	-1.466124	-1.159137	0.630799
H	-0.150967	-1.990719	0.030603
C	-0.04859	1.267964	-2.219302
N	0.32711	2.082981	-2.979564
H	-2.89259	0.0	0.0
