14

C	0.0	0.0	0.0
C	-0.54565	0.049553	-1.416671
Cl	1.766692	0.0	0.0
H	-1.641446	0.20877	-1.264827
H	-0.409219	-0.954993	-1.825783
N	-0.306751	1.37167	0.713634
O	-0.437518	2.374148	0.024486
O	-0.314903	1.338804	1.939354
N	-0.576431	-1.073546	0.673817
H	-1.617168	-0.888506	0.57289
H	-0.325527	-1.027981	1.656237
C	0.059202	1.011678	-2.323992
N	0.501691	1.740753	-3.131724
H	-2.950818	0.0	0.0
