14
Coordinates from ORCA-job run
  C   -0.66570723042633      0.08457992590901      0.41040911878547
  C   0.35687963769721     -0.39634047486736     -0.62117273433323
  H   -0.78234461865097     -0.64180636326383      1.21751154327189
  H   -0.00358333395202     -1.35282679798311     -1.01178957846963
  H   0.36801846319447      0.32237317183409     -1.44488306057679
  N   -2.01617092399749      0.15864562758845     -0.26263498987681
  O   -2.75091930666075     -0.80985278866984     -0.09781291616136
  O   -2.23615462202878      1.13839870983801     -0.96463771797283
  C   -0.32281418285404      1.39365353761673      0.95753791739311
  N   0.00422706559960      2.42665796558866      1.40931241203735
  C   1.74461835272882     -0.54903376342837     -0.01028797668680
  H   1.73241811866218     -1.24466623080662      0.83196014208320
  H   2.44196873510006     -0.93813477721815     -0.75410465380780
  H   2.13056384558804      0.40935225786235      0.34159249431424
