14
Coordinates from ORCA-job run
  C   -0.66836004462849      0.09065736080635      0.40291930874154
  C   0.36456608379422     -0.40871601729658     -0.60954010261685
  H   -0.78041355006416     -0.61442346033147      1.22916781522617
  H   0.01487008904065     -1.37883101484519     -0.97570274669947
  H   0.37486214191066      0.28709994712179     -1.45297164689437
  N   -2.01639056716453      0.13028242454394     -0.27701688390656
  O   -2.73070248737403     -0.85226197425601     -0.10616940571102
  O   -2.25517684296691      1.09876566555492     -0.98833471248090
  C   -0.34241372941125      1.41763877019887      0.91576680730283
  N   -0.02898952326231      2.46514779613488      1.34339271887038
  C   1.74961105390761     -0.53238001164703      0.01423186786227
  H   1.73842082398329     -1.20962264047963      0.87184161289962
  H   2.12311310009584      0.43776220130224      0.34789697297955
  H   2.45600345213940     -0.93011904680707     -0.71648160557321
