14
Coordinates from ORCA-job run
  C   -0.65447761084174      0.11911833539110      0.41770294525207
  C   0.34533194321665     -0.44498038615679     -0.59383162636030
  H   -0.73771534363089     -0.52953361835677      1.29224874952545
  H   -0.01776546372825     -1.43370297480477     -0.89064035745448
  H   0.33137372746759      0.19912658959864     -1.47711978835496
  N   -2.02426516126823      0.11488764742170     -0.21824746706977
  O   -2.27463098122504      1.01786517044192     -1.00767968727572
  O   -2.74428287785921     -0.83733695580460      0.06430890802236
  C   -0.31360792111706      1.47708771432954      0.83006804345543
  N   0.01359276468446      2.55032567206160      1.17550136490277
  C   1.74854018058791     -0.53769531253302     -0.00611600830502
  H   1.76250934304238     -1.16593397770452      0.88788903136658
  H   2.43225881772302     -0.97783005199521     -0.73409602489345
  H   2.13313858294841      0.44860214811118      0.26101191718906
