14
Coordinates from ORCA-job run
  C   -0.66040350542732      0.14836114841134      0.39841223056217
  C   0.35289487189719     -0.48379857257123     -0.55793877259519
  H   -0.76057393074514     -0.44157600828616      1.31189157641424
  H   -0.00985204238195     -1.48859539494108     -0.79539090955745
  H   0.35577814285194      0.10137654523322     -1.48147117022459
  N   -2.01986974454513      0.10690102853611     -0.25811023872073
  O   -2.74834712530809     -0.82243481895824      0.07433475412228
  O   -2.25337784988130      0.95702783432017     -1.10914772625832
  C   -0.32055601566939      1.52918474669109      0.72710550275128
  N   0.00571280508229      2.62173573496414      1.00686572706071
  C   1.74614170566739     -0.54309863938912      0.05717300989150
  H   2.12960770278191      0.45685544921977      0.26974935372600
  H   1.74365067176325     -1.11569043194725      0.98792656496818
  H   2.44019431391435     -1.02824862128274     -0.63139990214008
