17

C	0.0	0.0	0.0
C	-0.601912	0.056828	-1.405825
Cl	1.80382	0.0	0.0
H	-1.68853	-0.083474	-1.235951
N	-0.56233	0.958753	0.830996
H	-0.30804	1.897297	0.573163
H	-0.444094	0.748509	1.809667
N	-0.350289	-1.365364	0.644109
O	-0.481395	-2.336521	-0.089386
O	-0.399346	-1.387555	1.864169
N	0.034625	-0.795419	-2.386056
H	-0.566431	-0.797194	-3.202288
H	0.037064	-1.733384	-2.008527
N	-0.495435	1.446414	-1.999567
O	0.085052	2.355666	-1.409796
O	-1.006727	1.552943	-3.1086
Br	-3.863184	0.0	0.0
