17

C	0.0	0.0	0.0
C	-0.205585	0.123401	-1.571345
Cl	1.781607	0.0	0.0
H	0.415604	-0.658646	-1.999508
N	-0.601853	1.008349	0.735105
H	-1.623424	0.943714	0.562837
H	-0.446058	0.858446	1.72558
N	-0.311123	-1.442249	0.508836
O	-0.632358	-1.524236	1.688192
O	-0.129945	-2.371001	-0.264946
N	0.174632	1.413325	-2.082241
H	-0.506837	2.091986	-1.764309
H	1.080516	1.669883	-1.712836
N	-1.558559	-0.168557	-2.197313
O	-2.235929	0.791845	-2.529495
O	-1.804735	-1.348341	-2.422919
Br	-3.782321	0.0	0.0
