17

C	0.0	0.0	0.0
C	-0.554412	-0.028672	-1.425419
Cl	1.810799	0.0	0.0
H	-1.601441	-0.347197	-1.324742
N	-0.560596	0.988796	0.785425
H	-0.324867	1.922191	0.495674
H	-0.468751	0.808558	1.772183
N	-0.355166	-1.339529	0.685642
O	-0.656074	-2.291163	-0.011291
O	-0.261582	-1.334792	1.907085
N	0.187773	-0.846166	-2.319748
H	-0.359911	-1.042419	-3.144711
H	1.073304	-0.424872	-2.570557
N	-0.670986	1.386697	-2.002713
O	-0.016936	2.318617	-1.530581
O	-1.356926	1.45996	-3.016481
Br	-3.82835	0.0	0.0
