19

C	-0.470838	-0.017369	-1.454706
C	0.0	0.0	0.0
F	-1.880287	0.132203	-1.448587
H	1.091505	0.0	0.0
C	0.124392	1.18559	-2.156271
H	-0.177208	2.097121	-1.64271
H	1.21483	1.113813	-2.131037
H	-0.221963	1.211548	-3.19326
C	-0.15526	-1.303074	-2.188463
H	0.909099	-1.528481	-2.100252
H	-0.420193	-1.183137	-3.242149
H	-0.724414	-2.138424	-1.780757
N	-0.452675	-1.292026	0.677879
O	-1.474215	-1.247123	1.36976
O	0.20808	-2.30734	0.478195
N	-0.48676	1.150613	0.684028
H	0.04024	1.282494	1.535766
H	-1.465854	1.032062	0.905258
Cl	3.365969	0.0	0.0
