19

C	-0.506819	-0.03097	-1.454126
C	0.0	0.0	0.0
F	-0.332241	1.307583	-1.893308
H	1.095673	0.0	0.0
C	0.362213	-0.87428	-2.360341
H	0.229648	-1.932733	-2.14635
H	1.410501	-0.614023	-2.200696
H	0.085339	-0.673121	-3.3992
C	-1.99142	-0.311136	-1.563524
H	-2.535722	0.325274	-0.863948
H	-2.320714	-0.090524	-2.58216
H	-2.203306	-1.357197	-1.343093
N	-0.37417	-1.246944	0.749807
O	-0.446218	-2.31065	0.133565
O	-0.517254	-1.142367	1.965537
N	-0.582911	1.122696	0.711737
H	-0.123711	1.177496	1.613444
H	-0.310155	1.945763	0.18812
Cl	3.365467	0.0	0.0
