13

C	0.0	0.0	0.0
C	-0.295963	0.078289	-1.551248
Br	1.943144	0.0	0.0
H	0.408765	-0.631373	-1.988931
H	-0.321498	-0.975336	0.377819
N	-0.48735	1.161959	0.683682
H	-1.530041	0.980693	0.625803
H	-0.186125	1.106916	1.663355
C	0.060018	1.407596	-2.05746
N	0.333819	2.441345	-2.542583
C	-1.562536	-0.317247	-2.201763
N	-2.490825	-0.561723	-2.874659
H	-2.672331	0.0	0.0
