14

C	-0.517764	0.024857	-1.442153
C	0.0	0.0	0.0
Br	0.212757	-1.424535	-2.505775
H	1.098598	0.0	0.0
H	-0.183863	0.935599	-1.942528
C	-1.974396	-0.042746	-1.479007
N	-3.146282	-0.101762	-1.494618
N	-0.481535	-1.172726	0.677606
H	0.181664	-1.462626	1.384496
H	-1.38524	-0.987423	1.096902
N	-0.515256	1.239469	0.62306
H	0.006319	2.021184	0.233833
H	-0.235312	1.199071	1.600297
Cl	3.466933	0.0	0.0
