14

C	-0.412585	-0.09041	-1.465546
C	0.0	0.0	0.0
Br	-2.349116	-0.411293	-1.686442
H	1.102265	0.0	0.0
H	0.073869	-0.943524	-1.943935
C	-0.088426	1.122528	-2.202112
N	0.154181	2.082448	-2.833246
N	-0.492133	-1.183768	0.725164
H	0.080213	-1.242204	1.562834
H	-0.263482	-2.016933	0.18999
N	-0.483762	1.220645	0.595436
H	-1.338435	1.023773	1.101073
H	0.213965	1.59065	1.2278
Cl	3.376258	0.0	0.0
