14

C	-0.516757	0.038303	-1.443679
C	0.0	0.0	0.0
Br	0.164455	-1.448913	-2.494446
H	1.098536	0.0	0.0
H	-0.150755	0.937838	-1.944496
C	-1.975368	0.017412	-1.482478
N	-3.149577	-0.001372	-1.506795
N	-0.488893	-1.172596	0.675794
H	-1.378075	-0.972856	1.120539
H	0.185849	-1.479563	1.363032
N	-0.512608	1.236278	0.631422
H	-0.015136	2.023606	0.220448
H	-0.196778	1.203831	1.597169
Cl	3.428561	0.0	0.0
