14

C	-0.603592	-0.003909	-1.411565
C	0.0	0.0	0.0
Br	-0.025902	1.522137	-2.483658
H	1.093769	0.0	0.0
H	-1.690319	0.103441	-1.323762
C	-0.32204	-1.228386	-2.153752
N	-0.109075	-2.196794	-2.782813
N	-0.418037	-1.265037	0.609218
H	-1.216435	-1.134556	1.218746
H	0.352839	-1.635917	1.15181
N	-0.419072	1.218367	0.678057
H	0.317703	1.509516	1.309419
H	-1.263743	1.061564	1.216857
Cl	3.38064	0.0	0.0
