16

C	0.0	0.0	0.0
C	-0.478301	-0.04483	-1.494815
Br	1.932539	0.0	0.0
H	0.348522	-0.502935	-2.047971
H	-0.370853	0.846521	0.571834
N	-0.366176	-1.220108	0.799008
O	-0.677626	-1.040544	1.971708
O	-0.267213	-2.310047	0.241825
C	-0.653177	1.408686	-1.929798
H	0.206631	2.033656	-1.668896
H	-1.551488	1.799998	-1.446672
H	-0.804525	1.437752	-3.009842
N	-1.681717	-0.768246	-1.803237
H	-2.451919	-0.447449	-1.159302
H	-1.534145	-1.752847	-1.613396
H	-3.398295	0.0	0.0
