16

C	0.0	0.0	0.0
C	-0.436293	-0.051337	-1.514888
Br	1.931992	0.0	0.0
H	0.432979	-0.441705	-2.053462
H	-0.375508	0.851491	0.558911
N	-0.361108	-1.211699	0.813226
O	-0.287003	-2.307031	0.261087
O	-0.619907	-1.027184	1.997982
C	-0.678174	1.397873	-1.930659
H	0.165879	2.048744	-1.678176
H	-0.844823	1.424205	-3.008942
H	-1.58324	1.750587	-1.431169
N	-1.578535	-0.844885	-1.89455
H	-2.352908	-0.557631	-1.248765
H	-1.374612	-1.81846	-1.696221
H	-3.095207	0.0	0.0
