16

C	0.0	0.0	0.0
C	-0.666654	-0.225697	-1.352665
Br	1.917353	0.0	0.0
H	-1.60027	-0.73642	-1.069243
H	-0.344501	0.921983	0.456704
N	-0.358327	-1.09142	0.983964
O	-0.479946	-0.759952	2.157999
O	-0.424893	-2.239283	0.554783
C	0.118843	-1.037346	-2.361982
H	0.443378	-1.984227	-1.928879
H	-0.533933	-1.259631	-3.212769
H	0.992294	-0.491682	-2.729607
N	-1.002785	1.111463	-1.849462
H	-1.222011	1.027114	-2.838031
H	-1.897181	1.300038	-1.373314
H	-3.078865	0.0	0.0
