16

C	0.0	0.0	0.0
C	-0.401243	0.110175	-1.469068
Br	1.924539	0.0	0.0
H	-1.499778	0.214233	-1.448378
H	-0.405541	0.837829	0.604329
N	-0.472598	-1.279968	0.639444
O	0.311784	-1.865579	1.428161
O	-1.787617	-1.229107	0.887367
C	-0.048093	-1.11782	-2.285091
H	-0.420947	-0.970131	-3.315046
H	-0.526021	-1.996441	-1.837042
H	1.02692	-1.266352	-2.361641
N	0.120391	1.362983	-2.046603
H	-0.328053	1.513624	-2.93998
H	1.131494	1.276113	-2.183104
H	-2.525908	0.0	0.0
