18

C	0.0	0.0	0.0
C	-0.325955	0.082511	-1.498064
F	1.364749	0.0	0.0
H	-0.104423	1.087858	-1.840367
N	-0.416499	1.307524	0.662676
O	-0.380266	2.324047	-0.028287
O	-0.616932	1.280115	1.868779
C	-0.435383	-1.195734	0.80063
H	0.056609	-1.134054	1.772425
H	-0.101414	-2.08978	0.277471
H	-1.521282	-1.138998	0.870213
N	-1.685826	-0.251381	-2.048416
O	-1.949909	-1.439145	-2.177657
O	-2.285452	0.692538	-2.541321
N	0.607379	-0.803933	-2.298772
O	0.899626	-1.918382	-1.885581
O	0.969688	-0.329181	-3.37744
F	-2.530485	0.0	0.0
