18

C	0.0	0.0	0.0
C	-0.681543	0.038714	-1.348108
F	1.352089	0.0	0.0
H	-1.826862	0.051696	-1.01983
N	-0.378329	1.303115	0.738408
O	0.078664	1.396892	1.874615
O	-1.048467	2.150471	0.168329
C	-0.482414	-1.156772	0.841199
H	-0.076711	-1.021535	1.843734
H	-0.099175	-2.087343	0.421309
H	-1.574211	-1.129686	0.827253
N	-0.304611	-1.188579	-2.108656
O	0.661415	-1.115869	-2.87134
O	-0.971263	-2.200439	-1.907664
N	-0.285943	1.170511	-2.225033
O	0.693019	1.853213	-1.934151
O	-0.988336	1.322633	-3.222932
F	-2.852169	0.0	0.0
