18

C	0.0	0.0	0.0
C	-0.514761	0.018777	-1.433207
F	1.35204	0.0	0.0
H	-1.622218	-0.106372	-1.385962
N	-0.300218	1.417655	0.710979
O	-1.207564	2.112825	0.545783
O	0.460995	1.561858	1.695268
C	-0.389231	-1.164648	0.876362
H	0.089981	-0.985734	1.837841
H	-1.473337	-1.255532	0.933764
H	0.071631	-2.055301	0.443923
N	0.212976	-1.142306	-2.074375
O	-0.403248	-2.2094	-2.085699
O	1.14641	-0.867245	-2.847092
N	-0.182134	1.263519	-2.200934
O	-0.624403	1.280961	-3.350673
O	0.741549	1.995718	-1.800058
F	-2.653587	0.0	0.0
