18

C	0.0	0.0	0.0
C	-0.396772	0.406539	-1.456762
F	1.397984	0.0	0.0
H	0.382092	-0.10317	-2.042742
C	-0.382659	1.003444	1.010522
N	-0.564512	1.817519	1.837843
C	-0.513128	-1.365519	0.386939
H	-0.229098	-2.089276	-0.382797
H	-0.079801	-1.670877	1.34328
H	-1.604557	-1.30469	0.46228
C	-0.240077	1.910884	-1.651941
H	-0.300556	2.136293	-2.718502
H	-1.057942	2.432102	-1.147694
H	0.711768	2.276927	-1.255106
N	-1.689702	-0.016827	-1.944107
H	-2.440156	0.149925	-1.225705
H	-1.688552	-1.025569	-2.058226
H	-3.520592	0.0	0.0
