18

C	0.0	0.0	0.0
C	-0.35403	0.022644	-1.517148
F	1.4007	0.0	0.0
H	0.441043	0.649489	-1.942922
C	-0.348668	1.29786	0.617809
N	-0.508195	2.357243	1.098758
C	-0.587761	-1.135698	0.795724
H	-0.249857	-1.081392	1.833534
H	-0.278882	-2.092759	0.372704
H	-1.683874	-1.04101	0.757795
C	-1.704604	0.633696	-1.845045
H	-2.535202	0.243098	-1.228794
H	-1.909346	0.452905	-2.904464
H	-1.684928	1.713489	-1.677319
N	-0.228437	-1.293423	-2.140201
H	0.607732	-1.759584	-1.804393
H	-1.034198	-1.853085	-1.883333
H	-3.943855	0.0	0.0
