18

C	0.0	0.0	0.0
C	-0.506057	0.002884	-1.443794
F	1.399418	0.0	0.0
H	-1.602898	0.065039	-1.330501
C	-0.349655	1.289879	0.644095
N	-0.48659	2.318079	1.195344
C	-0.519871	-1.146471	0.832184
H	-1.619632	-1.080817	0.780687
H	-0.175755	-1.048737	1.865324
H	-0.160492	-2.09334	0.424461
C	-0.120473	-1.275905	-2.175418
H	0.957383	-1.461202	-2.113253
H	-0.388494	-1.158262	-3.22642
H	-0.651871	-2.141839	-1.776622
N	-0.026645	1.163888	-2.199101
H	0.955883	1.310316	-1.987935
H	-0.527123	1.986209	-1.878216
H	-3.24313	0.0	0.0
