18

C	0.0	0.0	0.0
C	-0.395616	-0.070317	-1.510839
F	1.395761	0.0	0.0
H	0.370948	-0.75518	-1.903823
C	-0.384214	1.272494	0.640463
N	-0.572065	2.310153	1.157196
C	-0.515847	-1.174187	0.796124
H	-0.231528	-2.103387	0.294006
H	-1.607731	-1.091728	0.845223
H	-0.084514	-1.162142	1.800892
C	-0.208227	1.289229	-2.174905
H	0.761177	1.732708	-1.926261
H	-0.284165	1.163369	-3.256445
H	-1.001059	1.969318	-1.854299
N	-1.696113	-0.606604	-1.839037
H	-2.442978	-0.226979	-1.203888
H	-1.703242	-1.603676	-1.646821
H	-3.531129	0.0	0.0
