18

C	0.0	0.0	0.0
C	-0.55827	-0.038344	-1.422726
F	1.388625	0.0	0.0
H	-1.62811	-0.267479	-1.273194
C	-0.365581	1.277939	0.6572
N	-0.528624	2.309138	1.194719
C	-0.514679	-1.151647	0.837483
H	-0.101015	-1.090406	1.847277
H	-0.217186	-2.10217	0.389534
H	-1.611284	-1.061805	0.854941
C	0.147133	-1.095076	-2.257762
H	0.096399	-2.082881	-1.796337
H	1.195443	-0.82239	-2.402917
H	-0.333902	-1.167501	-3.238951
N	-0.371124	1.274422	-2.061263
H	-1.084193	1.890659	-1.676683
H	-0.605077	1.168714	-3.043625
H	-3.290139	0.0	0.0
