18

C	0.0	0.0	0.0
C	-0.427725	-0.055015	-1.489442
F	1.395729	0.0	0.0
H	0.429038	-0.564441	-1.954984
C	-0.370674	1.266298	0.667389
N	-0.535844	2.286585	1.224975
C	-0.484777	-1.17831	0.816225
H	-0.222426	-2.103564	0.302246
H	-0.011339	-1.144776	1.802182
H	-1.572515	-1.112803	0.907835
C	-0.52887	1.347031	-2.098635
H	-1.402794	1.862822	-1.695752
H	-0.650897	1.260402	-3.183385
H	0.367187	1.947765	-1.903692
N	-1.605722	-0.887998	-1.66254
H	-1.916434	-0.795099	-2.625792
H	-2.391556	-0.524203	-1.059652
H	-3.495208	0.0	0.0
