18

C	0.0	0.0	0.0
C	-0.40136	-0.099987	-1.508354
F	1.396111	0.0	0.0
H	0.383047	-0.766664	-1.896493
C	-0.381478	1.283012	0.620576
N	-0.558819	2.330011	1.12275
C	-0.511228	-1.158913	0.821486
H	-1.602847	-1.080246	0.8713
H	-0.222919	-2.098206	0.340374
H	-0.078267	-1.12354	1.824983
C	-0.264364	1.256715	-2.18959
H	0.682562	1.745341	-1.940626
H	-0.327702	1.116862	-3.270409
H	-1.088902	1.904193	-1.882425
N	-1.688655	-0.676318	-1.822261
H	-1.673172	-1.666836	-1.599411
H	-2.442761	-0.28659	-1.201665
H	-3.524173	0.0	0.0
