18

C	0.0	0.0	0.0
C	-0.424071	-0.059461	-1.506226
F	1.40093	0.0	0.0
H	0.412816	-0.619429	-1.949869
C	-0.374749	1.258849	0.673509
N	-0.567226	2.2459	1.280503
C	-0.496666	-1.180138	0.801262
H	-0.199025	-2.107036	0.30274
H	-1.588197	-1.112759	0.857359
H	-0.058428	-1.156764	1.802661
C	-0.461652	1.337402	-2.115745
H	-1.344537	1.865087	-1.747801
H	-0.55079	1.244481	-3.199985
H	0.431925	1.923	-1.870958
N	-1.659443	-0.738405	-1.825743
H	-2.432355	-0.381757	-1.208023
H	-1.576214	-1.724426	-1.600492
H	-3.482486	0.0	0.0
