15
Coordinates from ORCA-job run
  C   0.71778921765093     -0.29333549476665      0.27700513694050
  C   -0.61337094459911      0.27916547562513     -0.21098994364898
  H   0.50865481930233     -0.82782083315834      1.20606726612508
  H   -0.45769531804772      0.95473481272718     -1.06324722654798
  C   1.66687996577874      0.79576688293480      0.56338953882798
  N   2.46668412751786      1.64257946757284      0.71562559085889
  N   1.20069898835982     -1.24861005396793     -0.71519342425612
  H   1.62595092624170     -0.76129890246620     -1.49602882376586
  H   1.90792945445093     -1.84585759861798     -0.30571161938155
  N   -1.20929531605852      1.17222148733212      0.85331811435409
  O   -2.07145789534157      1.95008454858744      0.45421954503361
  O   -0.84709408850655      1.02353674180303      2.01635311549928
  N   -1.54380809336641     -0.78891249549388     -0.42213590221382
  H   -1.04629176639649     -1.55950462210367     -0.85302461339932
  H   -2.30357407698594     -0.49274941600790     -1.02064675442581
