15
Coordinates from ORCA-job run
  C   0.77731884031173     -0.10985745997696     -0.40706734493626
  C   -0.75974094399029     -0.04775848288116     -0.28653459133467
  H   1.09214367578437      0.50744183762703     -1.25950971156572
  H   -1.23174336591710     -0.54188712532476     -1.13785992076839
  C   1.11948190813883     -1.50564224959293     -0.70374827745719
  N   1.38478253033722     -2.62445688025137     -0.93945081274144
  N   1.39101723712015      0.27269879116947      0.86060043507698
  H   2.36124905134559     -0.01373850038968      0.88720507143390
  H   1.34150530662248      1.28046208244692      0.94701941494849
  N   -1.19540059575211      1.40953913237225     -0.44349791361121
  O   -2.34488054386507      1.58936899136349     -0.82274695007203
  O   -0.39098903519437      2.29296590960876     -0.14214808854286
  N   -1.25263043585797     -0.53007228015747      0.95061831304647
  H   -1.78400837335362     -1.38059946640782      0.86631040007062
  H   -0.50710525572982     -0.59946429960578      1.63180997645330
