12
Coordinates from ORCA-job run
  C   0.76476045180336     -0.45401157761528     -0.45854201459434
  C   -0.43105587968494     -0.02350418912892      0.02044477986270
  H   0.85292205221785     -1.18487586846020     -1.24477579359996
  N   2.00107563480778      0.05251631676319      0.04716474432515
  O   1.97735065445718      0.90054810723932      0.95258992026040
  O   3.02959896536078     -0.39312955111033     -0.46231900736591
  N   -1.64395595625662     -0.60391310285967     -0.62426063228902
  O   -2.71826998827503     -0.09390587161598     -0.30998248462351
  O   -1.49198423194708     -1.52676797785444     -1.41508011692710
  N   -0.72166599533000      0.81472974768891      1.02550621016381
  H   -1.66594541397890      1.16218939739642      1.07275236794250
  H   0.04716970682562      1.35112456955698      1.39750202684528
