12
Coordinates from ORCA-job run
  C   0.73564078320040     -0.54205027044573      0.38840196289080
  C   -0.42626593553732      0.05139419773312      0.03371596159556
  H   0.73355952335488     -1.55131619583325      0.77221306472637
  N   2.03095033591523     -0.03789888877318      0.02307629642373
  O   2.09363300057384      0.95349176806269     -0.70925993255270
  O   2.98923440510395     -0.60987533119571      0.54102779034261
  N   -1.68564891436935     -0.68060942373196      0.40981329154779
  O   -2.71712026420984     -0.02833055750356      0.28726650051093
  O   -1.59517092719212     -1.86768273679723      0.67604764113843
  N   -0.61528717636716      1.30173369049941     -0.47814532427983
  H   0.03716519496084      1.54623101752257     -1.21177476960841
  H   -1.58269002543335      1.46591273046284     -0.73338248273529
