12
Coordinates from ORCA-job run
  C   0.99231420309721      0.27661914886889     -0.12899697492849
  C   -0.35073467739225      0.35253546011968     -0.09826004106275
  H   1.61566467839168      1.11694668444568     -0.40297405122808
  N   1.72977858694124     -0.93299508647506      0.14468919283938
  O   2.87046504143576     -0.97338922260385     -0.31764991387367
  O   1.20093376394945     -1.80637312580121      0.83010977466197
  N   -1.20596226639750     -0.82146194036162      0.17202183970489
  O   -1.95593523004242     -0.70685550688360      1.13886669235629
  O   -1.14835134630631     -1.75446812383350     -0.61572896729907
  N   -1.11925835491762      1.44325588521174     -0.39690621383078
  H   -1.99595523924251      1.48103487522964      0.10290150034905
  H   -0.63295915951673      2.32615095208320     -0.42707283768874
