12
Coordinates from ORCA-job run
  C   0.95498474997172      0.26238262438865      0.31139240973866
  C   -0.35001870688644      0.36689914012687      0.00056821928379
  H   1.53179597839596      1.09777402681341      0.68455215083253
  N   1.72515338054381     -0.94368822699913      0.12666844553094
  O   2.94366987488227     -0.78572257559947      0.04397777677197
  O   1.13673619689623     -2.02310161906684      0.09934210574810
  N   -1.11126119429783     -0.74198974997126     -0.61024997530211
  O   -2.09307018531027     -1.11255762125581      0.02947620677338
  O   -0.74987141621232     -1.13636420274590     -1.70941034764720
  N   -1.13076509790407      1.48555755969978      0.09426710204597
  H   -0.75307990735414      2.23640617459927      0.65156286026721
  H   -2.10527367272493      1.29540447001042      0.27885304595676
