12
Coordinates from ORCA-job run
  C   0.70683034167425     -0.70747783035380      0.03178379442721
  C   -0.43069879647979      0.03342130307534     -0.00825587438525
  H   0.70710606870065     -1.77316260369558      0.18823559923601
  N   1.99626828274597     -0.10920463196130     -0.11048930523984
  O   2.96586673218773     -0.86503188274212     -0.04163622915359
  O   2.07351089667298      1.11621082388416     -0.28903325194676
  N   -1.70628672617294     -0.71128897154209      0.19773629381584
  O   -1.66247578577752     -1.93493377897865      0.22875503610299
  O   -2.71690818419237     -0.02289545710318      0.33160609067729
  N   -0.61932635786152      1.33738890283101     -0.25823787710174
  H   -1.51940235168813      1.72143486172901     -0.01887422510902
  H   0.20651588019069      1.91653926485720     -0.24959005132313
