12
Coordinates from ORCA-job run
  C   0.99925397255481      0.27428919998199      0.06215984555574
  C   -0.34081600222076      0.37540001192781     -0.00468904162639
  H   1.64489711244865      1.14080144261177      0.10872200820860
  N   1.70302394295223     -0.98312349307262      0.13588644164817
  O   1.15518170088218     -1.99453525557382     -0.29884475084646
  O   2.83803177197012     -0.92674564373759      0.61058663305108
  N   -1.22927134942472     -0.80437763976840      0.04012401195013
  O   -1.19912059787616     -1.49616717860766      1.04766623186225
  O   -1.97431786186547     -0.93167712110720     -0.92903864611222
  N   -1.07854531180955      1.52657148912388     -0.02145767138649
  H   -0.56634590564400      2.37045059214485     -0.22769636870112
  H   -1.95097147196733      1.45011359607700     -0.52441869360328
