12
Coordinates from ORCA-job run
  C   0.97913438627067      0.12448987723524      0.32276942356154
  C   -0.34857477315411      0.30716666309677      0.20289577871567
  H   1.59247675529162      0.73080234345746      0.97542352370437
  N   1.70563193496727     -0.91994652560482     -0.35783018101012
  O   2.78566758089874     -1.22820962786144      0.14737544647720
  O   1.23135018777396     -1.39713801842340     -1.38706304671400
  N   -1.20274444391805     -0.58780076661695     -0.60477292197822
  O   -1.26536009403466     -1.76167385575034     -0.26950644362006
  O   -1.83212379544536     -0.03408476444946     -1.50346516942050
  N   -1.11306635868184      1.23597605747897      0.85286721130601
  H   -0.60658496569655      1.99262725903366      1.28638361395252
  H   -1.92580641427170      1.53779135840431      0.33492276502560
