12
Coordinates from ORCA-job run
  C   0.90467765688188      0.10126251559190      0.49907849425968
  C   -0.33268732791963      0.37944904061346      0.04949868139799
  H   1.44663852780646      0.76730201100612      1.15674858844917
  N   1.65076569988494     -1.07068627191810      0.11002729557345
  O   2.87246575498219     -0.98765948134799      0.24114022930996
  O   1.03573085573980     -2.06030963363945     -0.28309000280571
  N   -1.03009943286761     -0.47477711698344     -0.93357095072439
  O   -2.11293692286552     -0.91989624573917     -0.55954221407492
  O   -0.51653593856042     -0.60219321716642     -2.03555155067138
  N   -1.07817939456152      1.49144964559423      0.32784994203379
  H   -2.07558010366436      1.33335642036685      0.31651118767382
  H   -0.76525937485622      2.04170233362201      1.11290029957854
