12
Coordinates from ORCA-job run
  C   0.71962564025110     -0.69512341616154      0.02005705162518
  C   -0.43126755195149      0.02605115337888      0.00719425158213
  H   0.74313314885711     -1.75785942313196      0.19370837952300
  N   1.99251313276484     -0.07904881656328     -0.18239083712528
  O   2.97650178748613     -0.81790418907435     -0.13884952200480
  O   2.04229940491647      1.14426061121294     -0.38396002318206
  N   -1.68558694804452     -0.73518434031882      0.27382297948468
  O   -2.70171194057654     -0.06088025454870      0.43487077411524
  O   -1.62040158956290     -1.95732768733260      0.32180783961646
  N   -0.65045443296765      1.32225087105824     -0.25504163950980
  H   -1.54976476908895      1.69603844881803      0.00212027161690
  H   0.16411411791639      1.91572704266315     -0.29333952574165
