12
Coordinates from ORCA-job run
  C   0.73566495377850     -0.67155931690874      0.09831604134544
  C   -0.43155464232300      0.01746838612050      0.01136994923173
  H   0.77841269337094     -1.74577420306199      0.16405584492289
  N   2.00069493753951     -0.00735671117001      0.08696510231317
  O   3.00024014301693     -0.72305648931345      0.15480552451510
  O   2.02818318790457      1.23053445951402      0.00792452791696
  N   -1.67709352679940     -0.80200756166768     -0.01148824054404
  O   -1.58229967071298     -2.00311441650083      0.20901715200431
  O   -2.71750814377356     -0.19549433414648     -0.26201678602504
  N   -0.67128777815948      1.33623379496440     -0.01083053995309
  H   -1.59120671977363      1.62992159278189     -0.29730585329536
  H   0.12875456593159      1.93420479938838     -0.15081272243209
