12
Coordinates from ORCA-job run
  C   0.66022518215950     -0.46412244153090      0.59153153671878
  C   -0.42755220257703      0.02334476146257     -0.05938253096040
  H   0.60122656113194     -1.25435986568188      1.32104096891195
  N   1.97343291771406      0.03746957429180      0.33644110521000
  O   2.11761681759185      0.94756666620234     -0.49442524052466
  O   2.89434232622134     -0.48075432048960      0.96839223464555
  N   -1.73187479556741     -0.61964526299767      0.27036358965573
  O   -1.76754791155808     -1.40553336814798      1.20914854465483
  O   -2.68248310860648     -0.30881704184423     -0.44578425286632
  N   -0.54729900583226      1.03529559929190     -0.93087763974910
  H   0.31239211726682      1.40425605212794     -1.30790093430657
  H   -1.40347889794426      1.08329964731571     -1.45954738138977
