12
Coordinates from ORCA-job run
  C   0.65225839971301     -0.75356987896263      0.09829372979281
  C   -0.42666488259807      0.06432895131429     -0.01495087941748
  H   0.57460200622642     -1.82768020277953      0.11196113763255
  N   1.97928546278227     -0.23366499613390      0.19864960215855
  O   2.88881091813731     -1.05821973097317      0.29337970602331
  O   2.14592863766546      0.99573534142505      0.18213848718487
  N   -1.75023117189042     -0.60942158636273     -0.14711418993510
  O   -1.79673989972780     -1.82471092981459     -0.00163075088665
  O   -2.70511195264265      0.12243595921924     -0.40370757418307
  N   -0.51918545700480      1.40070434604060      0.01453110262934
  H   0.34613004139735      1.91520146947419     -0.04297879873809
  H   -1.38808210205807      1.80986125755319     -0.28857157226103
