12
Coordinates from ORCA-job run
  C   0.71288221756046     -0.68357243105250     -0.16148823215677
  C   -0.43015353994912      0.03588577939486     -0.01852628620703
  H   0.71772500770741     -1.74206090811594     -0.36066199892459
  N   2.00047869920359     -0.07697402635382     -0.03899797872854
  O   2.97454402670237     -0.81825370898464     -0.17221766603739
  O   2.07146409008836      1.13958883241258      0.19416185558253
  N   -1.70545127295456     -0.72916138287159     -0.12884154616125
  O   -1.64854440674072     -1.89740196988755     -0.49236848164573
  O   -2.72969847414938     -0.11603652856369      0.16791890172463
  N   -0.62131977602336      1.35083357370686      0.15986879377064
  H   0.19583055723613      1.89400468571611      0.39333733335130
  H   -1.53775712868118      1.64314808459931      0.45881530543219
