12
Coordinates from ORCA-job run
  C   0.68741932673554     -0.65174897287430      0.32238138122102
  C   -0.42914133719547      0.03206214888006     -0.03845883938599
  H   0.66744386788674     -1.68114295874804      0.63870669247912
  N   1.98073298818881     -0.04521815292534      0.29121391301529
  O   2.93058615745697     -0.75396241721408      0.62513623195970
  O   2.08032322187170      1.13855487645488     -0.06670843719155
  N   -1.70864614937005     -0.73346509162100      0.00105558235095
  O   -2.68879403642265     -0.17076186116235     -0.48452060221670
  O   -1.69682333593953     -1.85326018562330      0.49709202728300
  N   -0.59761251953269      1.31721940070444     -0.38235511761584
  H   -1.46905641781132      1.55967173592072     -0.82581107666759
  H   0.24256823413195      1.84005147820830     -0.57773175523142
