12
Coordinates from ORCA-job run
  C   0.69455439580695     -0.67034545978955      0.23386403289514
  C   -0.43066256362797      0.01711604363679     -0.05161485334562
  H   0.70179994576944     -1.72389355946970      0.46815377910396
  N   1.96393219143780     -0.00939684782136      0.34119426139091
  O   2.83407470007042     -0.58234684552320      0.99238685342245
  O   2.10864845471530      1.08293721629798     -0.22410757562244
  N   -1.68162741615224     -0.76602894912876     -0.04093835375493
  O   -1.97558128303088     -1.32442004098985     -1.09586749494309
  O   -2.32335436359765     -0.76879483015358      1.00426143765871
  N   -0.64124950687204      1.33438519699553     -0.28116574232095
  H   -1.45411380560047      1.57204755636895     -0.82894120969545
  H   0.20357925108134      1.83774051957674     -0.51822513478870
