12
Coordinates from ORCA-job run
  C   0.99801122663671      0.22313920081465      0.19494297726916
  C   -0.32134878821261      0.38897045278485     -0.01294255453528
  H   1.66340431867684      1.05288795880069      0.39053686255829
  N   1.64022556273525     -1.06710200305662      0.24202592628993
  O   1.11367170868733     -2.01568607224294     -0.33653914421969
  O   2.71873187088187     -1.09813030302273      0.83791610774484
  N   -1.24943990354592     -0.75321903013048     -0.16113431786980
  O   -1.38047159095148     -1.50026165421731      0.79726025025064
  O   -1.88740291725934     -0.76942122657472     -1.21158265822273
  N   -1.01317634767929      1.56722446764502     -0.02387230076286
  H   -0.45741921930776      2.40552537187973     -0.09360714379508
  H   -1.82578592066161      1.56607283731988     -0.62300400470743
