12
Coordinates from ORCA-job run
  C   0.94655825121556      0.26231652642114      0.33594678549891
  C   -0.36062211284216      0.35495637670295      0.03083303019528
  H   1.49864794079494      1.07835529316322      0.78216790574708
  N   1.75248690651542     -0.90020328374870      0.05127586219882
  O   2.96611639171690     -0.70013516387295     -0.00991413841311
  O   1.19647324203562     -1.98976705123832     -0.07427145418028
  N   -1.08890039268117     -0.71976515491294     -0.67454470257951
  O   -2.05894707617811     -1.17274378703205     -0.07108723791375
  O   -0.71697055655923     -1.00646152097163     -1.80315896609071
  N   -1.17379185801183      1.43880794303682      0.21584974715744
  H   -2.14201730045060      1.20478291927476      0.38259846369280
  H   -0.81803343555536      2.14985690317769      0.83630470468703
