12
Coordinates from ORCA-job run
  C   0.65831737145172     -0.64975475877766      0.38227344286205
  C   -0.41550389440482      0.01497139512136     -0.11735928163854
  H   0.59070626022628     -1.63833450055360      0.80447364589285
  N   1.96217363951547     -0.06575298157970      0.39446162469120
  O   2.11423087341958      1.07336968623491     -0.07321524302764
  O   2.86635034739401     -0.74465173977812      0.88179315688607
  N   -1.72476992990522     -0.69367188920056     -0.03003368494621
  O   -2.71805898307304     -0.02909273242370     -0.32130125521476
  O   -1.72487471152085     -1.86525325122114      0.32711396588433
  N   -0.50232162093563      1.20276461441801     -0.73287418920523
  H   -1.42175249746628      1.60316235385144     -0.82759786805073
  H   0.31550314529879      1.79124380390876     -0.68673431413339
