12
Coordinates from ORCA-job run
  C   0.98590756150372      0.14034196512026     -0.29326359257851
  C   -0.31287362833684      0.39581306126564     -0.05101985370919
  H   1.65240335690887      0.87751268644097     -0.72016134781539
  N   1.62966070565563     -1.10699642798981      0.04068847333903
  O   2.85435783225186     -1.05528774700165      0.15952077971893
  O   0.93952818450693     -2.11922458529381      0.14715605590889
  N   -1.19799606577976     -0.57149854065587      0.62974958225677
  O   -0.91488058443692     -0.88547904325114      1.77670594084550
  O   -2.18766699450130     -0.91249011111341     -0.01442716873272
  N   -0.97822148274049      1.56749124487301     -0.28485047538102
  H   -1.95945442748114      1.45060518263818     -0.49379394675924
  H   -0.51076445755055      2.22021231496762     -0.89530444709306
