12
Coordinates from ORCA-job run
  C   0.72752656321763     -0.67619578303129      0.12719094050044
  C   -0.42637274392314      0.01392234493515     -0.06643472087611
  H   0.75417942257696     -1.74223250212730      0.27854621771009
  N   1.99557375907399     -0.01941883409696      0.16605789507056
  O   2.04049348168122      1.20989142085750      0.00362840543871
  O   2.98006978316963     -0.73147555778579      0.36555008217328
  N   -1.68320182393511     -0.78850348045386     -0.04079904498353
  O   -1.58852189366053     -2.00916314793241     -0.00560288197918
  O   -2.73288849274085     -0.14725392635347     -0.04948667924659
  N   -0.63805683711669      1.31070479173139     -0.33049386419415
  H   0.15159519492717      1.92760626086844     -0.21696099055494
  H   -1.58039641327027      1.65211841338861     -0.23119535905858
