12
Coordinates from ORCA-job run
  C   0.88662321044896      0.07772585234912      0.53378840326235
  C   -0.33396976775849      0.37825712965995      0.05360515687974
  H   1.40583275100714      0.71296663586518      1.23859378932224
  N   1.64510862045845     -1.07871774093030      0.12165171885448
  O   2.86149826824536     -1.00380064893249      0.29871567018227
  O   1.04364651736822     -2.04949364317398     -0.33425423800415
  N   -0.99769532631284     -0.43139846566062     -0.98866577738333
  O   -0.44459615574497     -0.51585723830839     -2.07560366421404
  O   -2.09483538628864     -0.88673622333383     -0.67320045910709
  N   -1.08732650230018      1.47920829254833      0.35357270060488
  H   -0.80141352282204      1.99502839797037      1.17155493208629
  H   -2.08387270630097      1.32481765194666      0.29924176751635
