12
Coordinates from ORCA-job run
  C   0.65018912252006     -0.65016930428674      0.39513921111014
  C   -0.42521437540191      0.04033002044976     -0.06480049099851
  H   0.58413044794003     -1.66098150665054      0.76121351026831
  N   1.95904900488755     -0.07773854060706      0.40736642142546
  O   2.86906312150008     -0.79005681671611      0.83222150066742
  O   2.11084712725345      1.08267714030640     -0.00482040739174
  N   -1.72520061252280     -0.69063351777880     -0.06039057476392
  O   -2.66010003703995     -0.13130387200196     -0.63155967135454
  O   -1.77226626979112     -1.78214445410008      0.49324152303818
  N   -0.53806463722114      1.30798984165949     -0.48620243052116
  H   -1.37839491454688      1.55109966786526     -0.98557204890010
  H   0.32496202242263      1.80193134186038     -0.65483654257952
