12
Coordinates from ORCA-job run
  C   0.72800190103742     -0.54257888613462      0.38093857393510
  C   -0.44484934126227     -0.02028136902197     -0.03929912454798
  H   0.80380666659686     -1.36047393569354      1.08136860251315
  N   1.99257283587305      0.00396044934613     -0.02202650619682
  O   2.00230012611612      0.92887761944909     -0.84595713444771
  O   2.99219186922961     -0.46855717153011      0.51513167392396
  N   -1.66186916933247     -0.63767007854343      0.51871661964824
  O   -2.13317843714092     -0.08996741865939      1.51255372446261
  O   -2.06226195671188     -1.66068678543487     -0.02763163803802
  N   -0.71705801331739      0.93706910024664     -0.95332403740679
  H   0.08396200029391      1.46753795349496     -1.26747920645710
  H   -1.58461848138203      1.44177052248112     -0.85299154738864
