12
Coordinates from ORCA-job run
  C   0.98695171851036      0.29868406267529     -0.11816259575395
  C   -0.34861065404507      0.36590618706220      0.03235582692534
  H   1.60752362495441      1.18160968135376     -0.19024860844976
  N   1.71437395866916     -0.93949505964545     -0.25655493320483
  O   2.81702465189469     -0.84718682174067     -0.79730307901376
  O   1.21780326316023     -1.97128368694785      0.19153303899416
  N   -1.21081137124831     -0.83384956808177      0.02250256921828
  O   -1.89163679474785     -0.99307887148057      1.03325068335032
  O   -1.22761835391486     -1.50841874705734     -0.99678087477570
  N   -1.11020150853194      1.49863196889868      0.11307561509040
  H   -0.60584830181234      2.35212889852589      0.29783502747206
  H   -1.94795023288850      1.39535195643784      0.66749733014744
