16
Coordinates from ORCA-job run
  C   0.79123095938182     -0.01002099287389     -0.28961734516394
  C   -0.56502162630622     -0.58452334223143      0.13722183867915
  Cl  1.67382335865473     -1.05399469603371     -1.40404847443987
  H   -0.40943738725801     -1.56115900463584      0.58884473498158
  N   0.66118832761673      1.27884646802385     -0.82236736843943
  H   1.55072532579533      1.63450974663596     -1.14756686021707
  H   0.29340846867855      1.90529650870350     -0.11595249743084
  N   1.64114539138864     -0.03465819637136      1.03665011736908
  O   2.27650205467880      0.98060302630984      1.28373427360735
  O   1.61120635820824     -1.06068334777590      1.70103861634039
  N   -1.40746783759655     -0.83579416232532     -1.10632578403864
  O   -2.15528961137078      0.06970653488877     -1.46346345743159
  O   -1.27686850578618     -1.92873629867831     -1.64730585659406
  N   -1.17654748645664      0.34126773490741      1.03331597842886
  H   -1.75856216439531     -0.13440656844930      1.70887450056188
  H   -1.75003562523314      0.99274658990573      0.50796758378714
