16
Coordinates from ORCA-job run
  C   0.87940311837157     -0.04841496582473     -0.09676554335792
  C   -0.53075878111341     -0.54062734328463      0.27848797361336
  Cl  1.86971315999776     -1.48339433575927     -0.52301239801981
  H   -0.45938512297352     -1.30423713245831      1.05003418299326
  N   0.96939011968172      0.95843905347567     -1.06013532257834
  H   1.08808452382995      1.88171937749697     -0.67329664325880
  H   0.29448804965789      0.87833908996503     -1.80456287957250
  N   1.43835872997207      0.49527658254641      1.23879751206680
  O   1.79475936184850      1.66507938981196      1.26600601460442
  O   1.45519516452149     -0.29368556735717      2.16975701294129
  N   -1.12499867371930     -1.25652707152797     -0.92807939662725
  O   -1.32762031366863     -2.46148184327137     -0.83443088965325
  O   -1.39486004076308     -0.55019898792242     -1.90216876186057
  N   -1.29834636746311      0.56891291278225      0.70928188047465
  H   -2.15533287854882      0.28797004621053      1.16590370148172
  H   -1.49909004963110      1.20283079511705     -0.05281644324706
