16
Coordinates from ORCA-job run
  C   0.77299344983666     -0.10447638063782     -0.10394121048713
  C   -0.69978876042413     -0.57464868290372     -0.18716962629679
  Cl  1.75548058142347     -1.58508480157180      0.31749001997453
  H   -0.75255237034296     -1.25171866268124     -1.04176684461666
  N   1.12892171214273      0.54258537629391     -1.28478192739820
  H   1.03767017587620     -0.05038712827635     -2.09806000270383
  H   2.03528347697172      0.98771139315126     -1.24131918229129
  N   1.03920234688872      0.85760692374914      1.06181474251986
  O   1.72364447648289      1.84134299993732      0.81866600481660
  O   0.58548554231152      0.54320277099551      2.15264997579505
  N   -1.48824088585114      0.64490387950935     -0.60524953213575
  O   -1.55120262503870      1.54436437378702      0.22598896489405
  O   -2.00388377387497      0.63228993092628     -1.71645421147860
  N   -1.34492415915785     -1.16379124039301      0.92880753573192
  H   -1.08254888521798     -0.71148187565192      1.79317406711048
  H   -1.15454030202619     -2.15341887623397      0.98015122656575
