16
Coordinates from ORCA-job run
  C   0.78258274857138     -0.19921897931163     -0.12788737532009
  C   -0.71454937006607     -0.57484349412352     -0.20447522666616
  Cl  1.67453482589324     -1.68339591555079      0.25924340539964
  H   -0.79109293012814     -1.24316715881876     -1.06260791161497
  N   1.23029104801972      0.30956261695589     -1.36266126814327
  H   0.87004915843935      1.24680331788389     -1.50081649174053
  H   2.24111438110898      0.34393720637564     -1.39548908838352
  N   1.09374478778428      0.76397785200958      1.06139954732991
  O   1.89247043473408      1.65859946244392      0.83312345537028
  O   0.54883346986862      0.53547954864501      2.13446320872672
  N   -1.47991917907275      0.66898584470483     -0.64370299915837
  O   -2.50926286874190      0.48061686522259     -1.27319631796184
  O   -1.02803082931224      1.76228309596688     -0.29550276539002
  N   -1.37825337328423     -1.12899869450196      0.91370221283599
  H   -1.00218915787459     -0.80816037794696      1.79273223791610
  H   -1.42932314593970     -2.13346118995467      0.87067537680016
