16
Coordinates from ORCA-job run
  C   0.76392600450070     -0.29415856114587     -0.11232848366810
  C   -0.73287398279030     -0.47521588933693      0.24489624003818
  Cl  1.58674870648628     -1.85796262348332     -0.27215154941820
  H   -0.81177275466103     -1.30443413497172      0.94362565576206
  N   0.97468757271629      0.47495231374463     -1.25441064286703
  H   1.95014041045639      0.70372743170151     -1.39014725698644
  H   0.40379793865273      1.30840009789934     -1.28503152878036
  N   1.38942168932892      0.33408311950866      1.18491319582354
  O   2.13655449755281      1.29021620915039      1.02263035396988
  O   1.07736735226459     -0.17676406153871      2.25354417211792
  N   -1.43093894438092     -0.90169823096825     -1.01881814574736
  O   -1.51972819731702     -2.10541533649522     -1.23161894042712
  O   -1.83974384124107      0.00278592894294     -1.74061439861270
  N   -1.41790487755100      0.66042261731531      0.76488156016742
  H   -1.38037289103199      1.47814683228975      0.17516945795687
  H   -1.15030868298536      0.86191428738744      1.71646031067146
