16
Coordinates from ORCA-job run
  C   0.75064662049442     -0.12008555869352     -0.32378232535048
  C   -0.67829675045293     -0.60151810999932      0.03321467339929
  Cl  1.59123827072439     -1.29312774129729     -1.35622293997725
  H   -0.63741308410513     -1.67499967742783      0.20047965604688
  N   0.78197795915941      1.14216047792144     -0.91248569424888
  H   0.18462775931641      1.81305524032996     -0.44920664070515
  H   1.72285893526525      1.50164050915415     -1.00126741347920
  N   1.52661100502485     -0.18958140742413      1.03996936291091
  O   2.22089926209320      0.77819379016671      1.32308105649524
  O   1.37360511975674     -1.20133836865333      1.71341930441242
  N   -1.52647922496217     -0.38401708663584     -1.19153007223168
  O   -2.05523608162312      0.71900433700648     -1.29219990341706
  O   -1.60708777880936     -1.31033314569768     -1.98993396115032
  N   -1.32196384734184      0.03476051016288      1.13310475132506
  H   -0.93390027828254     -0.25396644667526      2.01839658447157
  H   -1.39108788625761      1.03815267776261      1.05396356149865
