16
Coordinates from ORCA-job run
  C   0.79003542355949     -0.00143491499557     -0.28996611649251
  C   -0.54814763329605     -0.59119953426220      0.17148262207834
  Cl  1.69960339964916     -1.07811243503002     -1.35023329028193
  H   -0.36321634318175     -1.53451272741126      0.67938066697389
  N   0.62191636517751      1.25313183865631     -0.89033904329090
  H   1.50016480768602      1.61417149652077     -1.23960412646541
  H   0.24232879302364      1.90637252451761     -0.21504066583996
  N   1.64322867833574      0.06964510942917      1.03265771283130
  O   1.64584786245828     -0.92023105941669      1.75044550984324
  O   2.25058803190723      1.11417083949177      1.22169308693220
  N   -1.38242457580243     -0.94144073239039     -1.05333767361131
  O   -1.22255658616231     -2.06206806952869     -1.52565643325217
  O   -2.15402712552963     -0.08008627979750     -1.46514483305829
  N   -1.18755707027561      0.36699485240711      1.01270574996186
  H   -1.77577926217929      0.97191364485968      0.44918095247391
  H   -1.76100476537003     -0.08631455305007      1.71077588119772
