16
Coordinates from ORCA-job run
  C   0.70200279909203     -0.02972628642563      0.19766297368273
  C   -0.76037002070417     -0.23088857597716     -0.28797125857843
  Cl  0.92500047276244     -0.57290680896424      1.84783946941511
  H   -0.80072832842165      0.16413099912247     -1.30600685605387
  N   1.54310589608084     -0.76641412538436     -0.67888628413031
  H   2.47547316601093     -0.86079807607585     -0.29443601176281
  H   1.59462093777245     -0.28927637434238     -1.57287601206422
  N   0.99429158235439      1.50172199893599      0.11948301777674
  O   1.18372512613194      1.89397790563172     -1.02938115847147
  O   0.96672865844995      2.18140396813830      1.13149349686697
  N   -1.67114175417294      0.65323206035947      0.51685320197416
  O   -2.19951655096340      0.15846565169503      1.50640269489327
  O   -1.79043191291331      1.81139210137185      0.12447176800689
  N   -1.24773448569369     -1.56565722359333     -0.23804620332628
  H   -1.29684738712499     -1.88243392551977      0.72266084766449
  H   -0.61917819866076     -2.16522328897209     -0.75826368589302
