16
Coordinates from ORCA-job run
  C   0.88040801842410     -0.21007787421930     -0.13125123698045
  C   -0.59404810368140     -0.67938995729114     -0.15857568936004
  Cl  1.91887428882639     -1.42001151996968      0.63792077979954
  H   -0.71908084110727     -1.22772358303771     -1.09581333354370
  N   1.37384286171873      0.06345738089494     -1.41611222406904
  H   0.81613760512388      0.78846058805727     -1.85114882440131
  H   2.34514360702786      0.34527189604655     -1.37647905139480
  N   0.97125312583958      1.02169149788096      0.83325746383806
  O   0.21559439155666      1.02413778609593      1.80056445347079
  O   1.80725547636271      1.86895575025855      0.55966408445601
  N   -1.48170737549635      0.58915875167418     -0.37165915334986
  O   -1.06864114140115      1.44710062492516     -1.15046616891443
  O   -2.55503136882614      0.61374752996164      0.21112112568075
  N   -1.00530104902167     -1.46092679032659      0.92985669434359
  H   -0.96917085130809     -0.93639069046437      1.79327136810860
  H   -1.93452864403783     -1.82846139048632      0.78584971231625
