16
Coordinates from ORCA-job run
  C   0.80201886200846     -0.20009111638783     -0.15558265129856
  C   -0.65437254508630     -0.42167584592998      0.27030150054187
  Cl  1.61234913422568     -1.67888818359616     -0.67188679809598
  H   -0.68131776771589     -1.14947885681439      1.07755185442671
  N   0.90662412427179      0.78844975337990     -1.14266990206837
  H   1.86172965209685      0.89261283122447     -1.45961588860111
  H   0.58257760886631      1.67467704452166     -0.77345693276887
  N   1.52642069193827      0.20395623434776      1.18460403728490
  O   1.29168946135019     -0.47482164045689      2.17416949204671
  O   2.28143138395689      1.16354694846955      1.11577071875542
  N   -1.41463081215210     -1.06201488123858     -0.88360883204617
  O   -1.98537232465863     -0.30341182993510     -1.66184833763195
  O   -1.40268055119719     -2.28733203289532     -0.93761984640423
  N   -1.20066984644862      0.83917496290436      0.65199244955366
  H   -1.90655846454733      0.72936434778018      1.36697319631591
  H   -1.62023860690838      1.28493226462635     -0.15707406000998
