16
Coordinates from ORCA-job run
  C   0.94991695279116     -0.16346207548655     -0.06305807518215
  C   -0.52979151725930     -0.65055503208212     -0.12553777404290
  Cl  1.93729475527606     -1.59173088142821      0.20990158300990
  H   -0.55301380903017     -1.48108198982185     -0.83261764217238
  N   1.51045909614503      0.58895052028084     -1.13175410978224
  H   0.87200357361521      1.31127689973445     -1.44042056359467
  H   1.73245885054771     -0.01273762941800     -1.91334301106798
  N   1.02668617784305      0.76926244354478      1.15500089293133
  O   0.23283308369601      1.70555627396462      1.05791191951113
  O   1.81937992778955      0.56994611865448      2.05483623470905
  N   -1.43564188873009      0.40046993158282     -0.79667091963614
  O   -2.34457739997580      0.87991004252835     -0.13225125706974
  O   -1.19574223486633      0.64649286637060     -1.97748795567771
  N   -0.98809856039206     -1.04959312179787      1.14765946169135
  H   -1.25446213312228     -0.24828975325366      1.70674400386842
  H   -1.77970487432773     -1.67341461337271      1.08108721250477
