16
Coordinates from ORCA-job run
  C   0.76300635655786      0.07506201323632     -0.20747183997656
  C   -0.56938854835405     -0.61759754537629      0.07967539347202
  Cl  1.51387940174624     -0.70257816682442     -1.67018464291407
  H   -0.41103838083325     -1.68701901059898      0.19471278672572
  N   0.65181737867791      1.46543379367000     -0.24774379557500
  H   0.06838817878918      1.76730766521209     -1.01684577746739
  H   1.55647100857017      1.91717282699905     -0.24906800552970
  N   1.71698346474847     -0.29629979908443      0.94050415977948
  O   2.50046806529143      0.57317976042972      1.29628745395000
  O   1.64748518801596     -1.43849883940562      1.36581862729064
  N   -1.44658324764245     -0.50447571339726     -1.17339623224466
  O   -1.82497977330759     -1.55179709451091     -1.68673868284093
  O   -1.75703556162710      0.63067555378589     -1.53683897943079
  N   -1.14254732738894     -0.04550415818113      1.23385013200394
  H   -1.29687739473099      0.94805344213798      1.13142806527073
  H   -1.97204880851279     -0.53011472809206      1.54601133748648
