16
Coordinates from ORCA-job run
  C   0.70794546603416      0.10947312009103      0.31625451365444
  C   -0.67790116160505     -0.19964094893439     -0.32315806641620
  Cl  0.72774358369626     -0.42157254059484      1.98820896700825
  H   -0.67887193876063      0.27661902756341     -1.30559095063445
  N   1.81511267397630     -0.46869669307502     -0.37449695216390
  H   1.82468254571323     -1.47376685357199     -0.27182907544103
  H   1.81402261751030     -0.19508699277449     -1.34939035178116
  N   0.93310778417587      1.62821957987413      0.21969796288750
  O   1.06429668310621      2.00899632076872     -0.93997539387209
  O   0.95882086853026      2.31042558818618      1.22734028707637
  N   -1.74549648693775      0.51698077716194      0.47207423446805
  O   -1.82021086604919      1.72998983980098      0.28764343057369
  O   -2.41520863144540     -0.14742048215082      1.25224392690210
  N   -1.02510644118507     -1.56837773077574     -0.43709496941116
  H   -0.54356386074963     -2.02897543069349     -1.19353612427776
  H   -0.94137283600991     -2.07516658087561      0.43260856142739
