16
Coordinates from ORCA-job run
  C   0.73966804698584      0.22250989139529      0.10468678556932
  C   -0.66637398459609     -0.25719825733900     -0.27277933234312
  Cl  1.04059452890214     -0.20975778741670      1.83144816046609
  H   -0.94128683833407      0.23784267092137     -1.20495881343938
  N   1.66117995968607     -0.30697498745100     -0.80820783405982
  H   2.62013682554383     -0.15671164743864     -0.52287193631462
  H   1.46325339813509     -1.28400447068619     -0.98337421467850
  N   0.84630364923014      1.75948600599476     -0.04121296214949
  O   1.52007379784086      2.37117029478871      0.77112809517945
  O   0.30868285075538      2.20837592457590     -1.04205346341871
  N   -1.67071337080907      0.26352686245092      0.76309666653724
  O   -1.61311447895116      1.45762363558087      1.02762820399053
  O   -2.46813516090675     -0.54682561842013      1.22128203935320
  N   -0.67672479570392     -1.66642417367869     -0.41516800024048
  H   -0.66903077529583     -2.11886224756791      0.49123788764927
  H   -1.49551365248244     -1.97577609570957     -0.91988128210100
