16
Coordinates from ORCA-job run
  C   0.83840382653221     -0.17809769796690     -0.06825702178031
  C   -0.63318165454209     -0.67627051962519     -0.18804292972854
  Cl  1.81575138822423     -1.42394974898056      0.73279789256635
  H   -0.64681058212025     -1.34655940147315     -1.04848643253975
  N   1.38143051033706      0.13035505609686     -1.31613565974457
  H   2.29045399209481      0.56785374772511     -1.24429520122218
  H   0.75402136972445      0.69455841242330     -1.87535673135624
  N   0.82751662336034      1.03763359959915      0.92548323887783
  O   0.46107998969782      0.82438700956591      2.07425438933928
  O   1.14611777796039      2.12106406070795      0.44997523515134
  N   -1.44122015178575      0.54395457184502     -0.61436989257172
  O   -2.04387582210472      1.14998718961069      0.26132211793057
  O   -1.39409954663488      0.84509655724189     -1.80776030569348
  N   -1.26937039031370     -1.27166701971383      0.92351511633270
  H   -1.07998062261276     -0.77512982993785      1.78363092907894
  H   -1.00723670781715     -2.24221598711841      1.01172525535973
