16
Coordinates from ORCA-job run
  C   0.66930550630145      0.18065542156109      0.15708288591035
  C   -0.75982767220496     -0.22275702982696     -0.27186847811080
  Cl  0.88928468841891     -0.19390390686219      1.89785079819933
  H   -0.95049361982780      0.28333708207956     -1.21866616576094
  N   1.59913241691416     -0.45085119712173     -0.69853786846544
  H   2.54984240715547     -0.17910687458916     -0.47536715776578
  H   1.51588944021115     -1.45619513491637     -0.62602094199486
  N   0.87599006048667      1.69671899173590     -0.06606876928720
  O   0.54555641682426      2.08164964389565     -1.17842258346785
  O   1.38689140995548      2.35898467777626      0.82202964108311
  N   -1.72430750451416      0.39464749618055      0.72802060866542
  O   -1.69903235734265      1.62113512196751      0.77980371221802
  O   -2.41147387700644     -0.35059641313168      1.41034361726705
  N   -1.00971668547303     -1.60485257066682     -0.39123863642458
  H   -0.73182086634597     -1.99793780904990     -1.27509508735710
  H   -0.74421976355256     -2.16092749903169      0.40715442529128
