14

C	0.0	0.0	0.0
C	-0.525637	-0.056368	-1.444164
Cl	1.747701	0.0	0.0
H	0.244217	-0.553863	-2.040883
H	-0.347425	-0.882407	0.522449
N	-0.459826	1.148521	0.860181
O	-0.542351	0.895308	2.054272
O	-0.618064	2.241636	0.339522
N	-0.612243	1.305969	-2.097776
O	-1.705739	1.73093	-2.43619
O	0.466045	1.863289	-2.28675
C	-1.786593	-0.807298	-1.58158
N	-2.375305	-1.628423	-2.200196
F	-2.4134	0.0	0.0
