14

C	0.0	0.0	0.0
C	-0.519444	-0.137793	-1.43665
Cl	1.746201	0.0	0.0
H	0.137318	-0.863808	-1.920895
H	-0.365165	-0.840324	0.578297
N	-0.434051	1.224448	0.756973
O	-0.345196	2.298853	0.176992
O	-0.735764	1.056255	1.929957
N	-0.300773	1.113214	-2.259447
O	-1.234539	1.889966	-2.407645
O	0.824738	1.241229	-2.746163
C	-1.916294	-0.61869	-1.582739
N	-2.577932	-1.225342	-2.360979
F	-2.451943	0.0	0.0
