15

C	-0.494676	0.01446	-1.405667
C	0.0	0.0	0.0
Br	-2.444525	0.25925	-1.578451
H	1.096206	0.0	0.0
H	-0.313864	0.944398	0.453047
N	0.190297	1.174038	-2.12119
O	1.053537	0.892092	-2.942112
O	-0.122871	2.294198	-1.740474
N	-0.12062	-1.235942	-2.180695
O	-0.607093	-1.37286	-3.29866
O	0.688325	-1.982096	-1.641343
N	-0.504568	-1.168475	0.712593
H	-0.947705	-0.875155	1.571727
H	0.305756	-1.729415	0.954774
H	2.729487	0.0	0.0
