16

C	-0.538637	0.030184	-1.417559
C	0.0	0.0	0.0
Br	0.01984	-1.766765	-2.294828
H	1.096592	0.0	0.0
H	-0.331054	0.948599	0.442464
N	-1.944334	0.142465	-1.394599
H	-2.303724	-0.527462	-0.721702
H	-2.35342	-0.018192	-2.305723
C	0.137415	1.089883	-2.256174
H	-0.121803	2.066416	-1.836741
H	1.218904	0.95837	-2.218906
H	-0.203676	1.050853	-3.293829
N	-0.622303	-1.089181	0.765767
H	-0.114317	-1.93873	0.539676
H	-0.448593	-0.911608	1.748547
Cl	3.582191	0.0	0.0
