16

C	-0.41652	-0.026215	-1.462301
C	0.0	0.0	0.0
Br	-0.182125	1.937923	-2.192689
H	1.101352	0.0	0.0
H	-0.318136	-0.9728	0.396916
N	0.433323	-0.906558	-2.138002
H	1.410537	-0.750619	-1.897055
H	0.300141	-0.902044	-3.139848
C	-1.8838	-0.307626	-1.69793
H	-2.486541	0.395226	-1.1249
H	-2.087669	-1.327676	-1.355903
H	-2.142793	-0.229693	-2.756473
N	-0.655191	1.045536	0.781957
H	-0.220935	1.927322	0.531786
H	-0.415982	0.88098	1.753677
Cl	3.535132	0.0	0.0
