16

C	-0.551328	-0.045015	-1.419665
C	0.0	0.0	0.0
Br	-0.076059	-1.824943	-2.191134
H	1.096938	0.0	0.0
H	-0.324957	0.974708	0.392388
N	-1.994007	0.05125	-1.486152
H	-2.236887	1.02713	-1.337567
H	-2.349123	-0.478812	-0.69337
C	0.115398	1.003892	-2.283787
H	-0.127301	1.996812	-1.884858
H	1.19893	0.880237	-2.251494
H	-0.245657	0.937728	-3.311616
N	-0.620591	-1.035953	0.836334
H	-0.14925	-1.909439	0.624788
H	-0.390914	-0.825799	1.801252
Cl	3.573498	0.0	0.0
