18
Coordinates from ORCA-job run
  C   -0.60731246401749      0.23040127497235      0.12136978807179
  C   0.86033101082151     -0.16117529038193     -0.06220848868511
  Cl  -0.74856997782073      1.94331315022294      0.62043511588326
  H   0.94217110073695     -1.24404694912234     -0.15587702759513
  C   -1.22850025524194     -0.62460299604809      1.22256024879459
  H   -0.75333280350247     -0.45557092402626      2.18680047848527
  H   -2.28541436869753     -0.36758121216410      1.30650568948783
  H   -1.14485484219610     -1.68602688623490      0.97200713708196
  C   -1.35662516621986      0.02387644223227     -1.19104583610239
  H   -2.42097040428105      0.19133448384354     -1.02022176225962
  H   -1.22319140733571     -1.00463928248857     -1.54179967682507
  H   -1.01870585100401      0.71542038321885     -1.96002533330832
  N   1.72505589827938      0.21272117453063      1.11280299832273
  O   1.65108347673869     -0.54824042741794      2.07197567365370
  O   2.40631926043670      1.22490364724295      1.02182137663907
  N   1.54848522201076      0.39133492612768     -1.27810152070939
  O   1.21387641596252      1.48716636736452     -1.70808755663639
  O   2.44215515533037     -0.32958788187160     -1.71891130429879
