18
Coordinates from ORCA-job run
  C   -0.61955342801307      0.22576407691778      0.05178793342585
  C   0.85898425870786     -0.12801274437079     -0.12109902956249
  Cl  -0.83954724022508      1.99882796255179      0.15394125029355
  H   0.95432594017031     -1.18019302148796     -0.38935077990458
  C   -1.15149179798882     -0.42325702254234      1.32559519613595
  H   -0.95971886732888     -1.50099817702815      1.30613471895980
  H   -0.69920317638173      0.00891594682272      2.21574244476092
  H   -2.23020085264540     -0.26890106561156      1.37713734057614
  C   -1.40609455967095     -0.26896249848324     -1.15899270795822
  H   -1.28559931701253     -1.35002955932357     -1.27386975121646
  H   -2.46276880501064     -0.05016082177895     -0.99841576606048
  H   -1.08802620907837      0.21698371715524     -2.07923515181412
  N   1.73253827827426      0.05034180260209      1.08814941977998
  O   2.69203983374417     -0.71789486693967      1.12973333102015
  O   1.46483983768031      0.93061404372099      1.89505081037390
  N   1.52590017581248      0.63854817245148     -1.23263409871113
  O   2.20700641046693      1.60848011118245     -0.92870727170245
  O   1.30556951849917      0.21093394416168     -2.36096788839630
