18
Coordinates from ORCA-job run
  C   -0.61676684081879      0.18410726086294      0.14899441807768
  C   0.86657005651351     -0.10386489589992     -0.09051827940608
  Cl  -0.84706182102113      1.84376512278367      0.77805867493844
  H   1.00876728084534     -1.16976762398904     -0.26859405864408
  C   -1.16157862442548     -0.78588913911339      1.19376958272106
  H   -2.22950026238189     -0.59949443053107      1.31620533978791
  H   -1.02187186660758     -1.81886305048717      0.86236456272659
  H   -0.67542539385282     -0.66096176595852      2.15927866853836
  C   -1.38234163206953      0.03060897989242     -1.16136063270930
  H   -2.45036116410494      0.12273306077860     -0.95898137792833
  H   -1.10218603561252      0.79489786909185     -1.88323999431261
  H   -1.19861811809777     -0.96023172380574     -1.58931050276943
  N   1.73402937751563      0.23084429371576      1.09438622375412
  O   1.72907284620585     -0.60550704440142      1.99162237549506
  O   2.34882150613124      1.28842083551677      1.07164180135683
  N   1.49451449629028      0.57902578625622     -1.27228929893423
  O   1.08619290943611      1.68141775536800     -1.61247114603587
  O   2.41974328605452     -0.05124129007996     -1.78155635665612
