15

C	0.0	0.0	0.0
C	-0.193	0.029008	-1.534285
F	1.420441	0.0	0.0
H	0.174225	1.003572	-1.875689
H	0.503873	-0.71332	-1.935142
N	-0.498757	1.169309	0.59653
H	-0.613392	1.109975	1.595556
H	-0.005098	2.001978	0.312591
C	-0.55498	-1.233807	0.654565
H	-0.179255	-2.130721	0.158896
H	-0.256663	-1.263735	1.706593
H	-1.647142	-1.183403	0.579793
C	-1.476031	-0.223921	-2.186579
N	-2.320427	-0.468814	-2.964472
Cl	-4.075439	0.0	0.0
