15

C	0.0	0.0	0.0
C	-0.467672	-0.227433	-1.437342
F	1.393636	0.0	0.0
H	-0.16496	-1.22737	-1.760516
H	-1.563547	-0.180443	-1.445956
N	-0.453664	1.293572	0.424184
H	-0.258275	1.398552	1.414757
H	-1.470401	1.296963	0.321737
C	-0.422971	-1.15587	0.89083
H	0.012228	-2.096325	0.5417
H	-0.063899	-0.966295	1.90675
H	-1.512109	-1.219139	0.896823
C	0.097244	0.749432	-2.364651
N	0.534733	1.505902	-3.147736
Cl	-3.672984	0.0	0.0
