15

C	0.0	0.0	0.0
C	-0.482544	-0.176484	-1.439627
F	1.414201	0.0	0.0
H	-0.213828	0.711948	-2.021925
H	-1.580492	-0.243252	-1.404794
N	-0.464708	1.255639	0.460618
H	-0.392489	1.357594	1.460796
H	-0.013647	2.019698	-0.021973
C	-0.47316	-1.117003	0.898598
H	-0.102424	-0.943925	1.912754
H	-1.567155	-1.138297	0.900973
H	-0.071822	-2.070857	0.548255
C	0.102061	-1.349848	-2.083418
N	0.576643	-2.294458	-2.594125
Cl	-3.928955	0.0	0.0
