15

C	0.0	0.0	0.0
C	-0.441936	0.166141	-1.464307
F	1.393177	0.0	0.0
H	-0.080682	-0.672283	-2.066914
H	-1.539128	0.165546	-1.467833
N	-0.452364	1.044017	0.870508
H	-1.467007	0.948898	0.942156
H	-0.257878	1.947643	0.450728
C	-0.447583	-1.344235	0.535496
H	-0.026983	-2.144529	-0.078724
H	-0.07345	-1.442692	1.555777
H	-1.537114	-1.405529	0.531839
C	0.063402	1.411023	-2.034061
N	0.458406	2.426178	-2.471968
Cl	-3.676287	0.0	0.0
