15

C	0.0	0.0	0.0
C	-0.471039	-0.322819	-1.419085
F	1.389473	0.0	0.0
H	-1.566528	-0.380231	-1.404764
H	-0.168917	0.503981	-2.066708
N	-0.454326	1.332068	0.300079
H	-0.262243	1.520843	1.279165
H	-1.472465	1.321064	0.206069
C	-0.424493	-1.061431	0.998304
H	-1.514361	-1.100685	1.025377
H	-0.042093	-0.78601	1.98597
H	-0.015126	-2.038183	0.729987
C	0.102763	-1.563646	-1.926095
N	0.57253	-2.554001	-2.34552
Cl	-3.678089	0.0	0.0
