15

C	0.0	0.0	0.0
C	-0.487023	0.192163	-1.433781
F	1.41814	0.0	0.0
H	-0.160583	-0.64473	-2.056881
H	-1.585268	0.211295	-1.383217
N	-0.450835	1.088842	0.789006
H	-0.297068	0.92202	1.773116
H	-0.005098	1.95266	0.508298
C	-0.493782	-1.309411	0.561714
H	-1.586924	-1.288104	0.567181
H	-0.116934	-1.436064	1.580466
H	-0.128427	-2.141685	-0.044161
C	0.020648	1.432727	-2.013318
N	0.43677	2.421571	-2.489514
Cl	-3.88812	0.0	0.0
