15

C	0.0	0.0	0.0
C	-0.441447	0.177728	-1.463918
F	1.38987	0.0	0.0
H	-0.077889	-0.656226	-2.072041
H	-1.538542	0.177674	-1.466951
N	-0.447446	1.04133	0.877741
H	-1.461804	0.95289	0.950326
H	-0.246149	1.946249	0.463917
C	-0.453947	-1.345318	0.524452
H	-1.54288	-1.400847	0.500148
H	-0.022658	-2.14368	-0.084409
H	-0.099126	-1.446019	1.551636
C	0.066792	1.425338	-2.026931
N	0.474199	2.426065	-2.486023
Cl	-3.679871	0.0	0.0
