19

C	-0.47424	0.003018	-1.45066
C	0.0	0.0	0.0
F	0.097488	-1.081976	-2.11706
H	1.097141	0.0	0.0
C	-1.982215	-0.133758	-1.631952
H	-2.318159	-1.06792	-1.183257
H	-2.217158	-0.155288	-2.698914
H	-2.512097	0.701609	-1.170946
C	-0.030194	1.230363	-2.144788
N	0.265629	2.229038	-2.684988
C	-0.439429	-1.271305	0.722492
H	0.132279	-1.357956	1.650571
H	-0.220959	-2.156864	0.122074
H	-1.505707	-1.264569	0.978972
C	-0.451791	1.24882	0.750348
H	-0.110363	2.161966	0.256859
H	-1.542006	1.294774	0.868829
H	-0.005777	1.236737	1.749677
Br	3.629243	0.0	0.0
