19

C	-0.385526	0.096208	-1.477313
C	0.0	0.0	0.0
F	-1.758308	0.411656	-1.594082
H	1.097814	0.0	0.0
C	0.413225	1.145428	-2.229409
H	0.188895	2.132277	-1.823642
H	1.479915	0.944128	-2.09944
H	0.148768	1.133188	-3.28904
C	-0.23471	-1.208665	-2.155447
N	-0.15133	-2.247839	-2.695645
C	-0.526571	-1.268546	0.660549
H	-0.08348	-2.16351	0.220023
H	-1.616572	-1.336166	0.573296
H	-0.266344	-1.26247	1.721848
C	-0.465669	1.238647	0.764172
H	-1.556932	1.301894	0.796888
H	-0.087639	1.179334	1.787559
H	-0.072858	2.161328	0.333874
Br	3.619057	0.0	0.0
