19

C	-0.384333	0.065627	-1.476218
C	0.0	0.0	0.0
F	-1.78464	0.221553	-1.598406
H	1.097822	0.0	0.0
C	0.283969	1.207991	-2.216921
H	-0.095518	2.15542	-1.834225
H	1.362886	1.156269	-2.054041
H	0.061232	1.147313	-3.284215
C	-0.078514	-1.207686	-2.160505
N	0.145204	-2.225451	-2.700771
C	-0.527317	-1.260445	0.674461
H	-1.621405	-1.297976	0.641284
H	-0.131431	-2.163058	0.204661
H	-0.212275	-1.272181	1.720656
C	-0.462772	1.252832	0.74257
H	-0.208654	1.149216	1.800294
H	-1.544341	1.394104	0.657917
H	0.044757	2.149278	0.382505
Br	3.625281	0.0	0.0
