19

C	-0.382789	-0.028387	-1.479014
C	0.0	0.0	0.0
F	-0.032932	1.19714	-2.059427
H	1.097905	0.0	0.0
C	0.344302	-1.1109	-2.257956
H	0.175647	-0.961019	-3.326531
H	-0.012538	-2.104231	-1.981123
H	1.410801	-1.027174	-2.03077
C	-1.851253	-0.145782	-1.647027
N	-3.014136	-0.256383	-1.773832
C	-0.465054	-1.264276	0.718525
H	-0.003179	-2.161448	0.30216
H	-0.160632	-1.208023	1.766513
H	-1.554901	-1.377629	0.685933
C	-0.522471	1.252563	0.690247
H	-1.618417	1.262748	0.730581
H	-0.141073	1.286414	1.713858
H	-0.180481	2.151521	0.177253
Br	3.6544	0.0	0.0
