14

C	0.0	0.0	0.0
C	-0.536698	0.009637	-1.418615
F	1.368893	0.0	0.0
H	-1.62791	-0.163103	-1.366647
H	-0.370912	-0.913746	0.466968
C	-0.43524	1.169101	0.779499
N	-0.58599	2.108869	1.466327
N	0.127824	-1.104732	-2.170279
O	0.001057	-2.213169	-1.66154
O	0.72846	-0.848338	-3.207543
N	-0.290117	1.270582	-2.16767
O	0.597391	2.021893	-1.767474
O	-0.997202	1.442616	-3.155938
Cl	-3.272949	0.0	0.0
