14

C	0.0	0.0	0.0
C	-0.538575	0.010587	-1.417699
F	1.369865	0.0	0.0
H	-1.630124	-0.159558	-1.362625
H	-0.370874	-0.91379	0.466453
C	-0.437619	1.168153	0.778646
N	-0.593651	2.110343	1.461315
N	0.121164	-1.105444	-2.17093
O	0.714825	-0.851001	-3.21261
O	-0.001874	-2.212824	-1.659166
N	-0.290823	1.271238	-2.166864
O	0.60035	2.019517	-1.76942
O	-1.000805	1.446346	-3.152405
Cl	-3.276244	0.0	0.0
