17

C	0.0	0.0	0.0
C	-0.476796	0.029757	-1.45587
F	1.387393	0.0	0.0
H	-1.578508	-0.012721	-1.380727
N	-0.550325	1.097937	0.695393
H	-1.591759	0.944929	0.564069
H	-0.35257	0.995047	1.686903
C	-0.334357	-1.345617	0.568658
N	-0.467212	-2.429252	1.004857
C	0.149451	-1.053276	-2.30941
H	-0.152525	-2.03276	-1.934398
H	-0.191086	-0.962285	-3.343294
H	1.23597	-0.977985	-2.291221
N	-0.128716	1.371708	-2.022942
O	-1.014329	2.220717	-2.073022
O	1.024512	1.538688	-2.428917
H	-2.925418	0.0	0.0
