17

C	0.0	0.0	0.0
C	-0.491633	-0.47347	-1.372928
F	1.403545	0.0	0.0
H	-1.560416	-0.207384	-1.388534
N	-0.515985	1.282971	0.290274
H	-1.554803	1.12719	0.228672
H	-0.302777	1.505213	1.259766
C	-0.327876	-1.035189	1.02918
N	-0.44538	-1.816612	1.898986
C	-0.284636	-1.950077	-1.618407
H	0.71545	-2.277048	-1.333951
H	-1.025733	-2.502996	-1.04041
H	-0.433561	-2.174159	-2.676797
N	0.230474	0.331808	-2.40301
O	-0.214887	1.440827	-2.691631
O	1.237981	-0.170072	-2.913907
H	-2.911984	0.0	0.0
