17

C	0.0	0.0	0.0
C	-0.508389	0.093543	-1.440739
F	1.381849	0.0	0.0
H	-1.609267	0.130757	-1.328841
N	-0.537045	1.072177	0.750489
H	-0.334912	0.919433	1.734644
H	-1.576252	0.943126	0.621613
C	-0.342513	-1.35687	0.537348
N	-0.472205	-2.418647	1.025318
C	-0.023801	-1.032637	-2.327573
H	-0.494012	-1.964092	-2.006363
H	-0.313731	-0.843966	-3.363684
H	1.060303	-1.134363	-2.282476
N	-0.061865	1.40596	-1.998658
O	-0.855725	2.342745	-1.970612
O	1.074356	1.46569	-2.476954
H	-2.937668	0.0	0.0
