17

C	0.0	0.0	0.0
C	-0.459978	0.045413	-1.478455
F	1.382281	0.0	0.0
H	-1.560273	0.174058	-1.373993
N	-0.518139	1.002029	0.858058
H	-0.394373	1.898815	0.398137
H	-1.547856	0.80278	0.82183
C	-0.392731	-1.326313	0.552716
N	-0.529248	-2.401626	1.005115
C	-0.074136	-1.176826	-2.281984
H	-0.629692	-2.033914	-1.898996
H	-0.33115	-1.038526	-3.333054
H	0.996258	-1.375941	-2.213198
N	0.106808	1.275444	-2.095163
O	0.957723	1.160182	-2.981053
O	-0.309397	2.36488	-1.688095
H	-2.899828	0.0	0.0
