18

C	0.0	0.0	0.0
C	-0.378661	0.236109	-1.480636
F	1.390202	0.0	0.0
H	-0.048933	1.243115	-1.74223
C	-0.404125	1.195934	0.763478
N	-0.649088	2.159258	1.388341
C	-0.555911	-1.248686	0.641203
H	-1.647535	-1.176242	0.687631
H	-0.267532	-2.122017	0.059356
H	-0.161258	-1.330927	1.655623
C	-1.823558	-0.006275	-1.839935
H	-2.511911	0.560262	-1.207624
H	-2.090784	-1.053233	-1.70386
H	-1.989009	0.272296	-2.884251
N	0.505696	-0.639321	-2.328433
O	1.27261	-0.073258	-3.105835
O	0.39057	-1.857389	-2.216579
Cl	-4.580802	0.0	0.0
