18

C	0.0	0.0	0.0
C	-0.536858	-0.044658	-1.432885
F	1.387753	0.0	0.0
H	-1.591489	0.250795	-1.371763
C	-0.361765	1.278988	0.654907
N	-0.553989	2.255856	1.276876
C	-0.496699	-1.158781	0.83824
H	-1.589788	-1.159196	0.823794
H	-0.100176	-2.092833	0.436969
H	-0.137521	-1.032731	1.861242
C	-0.374666	-1.389166	-2.107714
H	-0.595454	-1.296026	-3.171946
H	-1.094439	-2.083472	-1.674278
H	0.639764	-1.77441	-1.999925
N	0.180282	1.019248	-2.212155
O	-0.245335	2.168911	-2.109507
O	1.156835	0.685673	-2.884419
Cl	-3.650249	0.0	0.0
