17

C	0.0	0.0	0.0
C	-0.487056	0.019215	-1.456419
Br	1.968108	0.0	0.0
H	-1.584442	0.000516	-1.364297
N	-0.474261	1.210651	0.615439
H	-0.229845	1.202295	1.600593
H	-1.49739	1.171487	0.553548
C	-0.430989	-1.286189	0.690703
H	-1.523934	-1.300285	0.680256
H	-0.041349	-2.164291	0.177484
H	-0.079044	-1.27673	1.726104
N	-0.068864	-1.163563	-2.196849
H	-0.660302	-1.264024	-3.012065
H	0.887367	-1.04752	-2.510455
C	-0.107139	1.276014	-2.129389
N	0.189862	2.202185	-2.789242
Cl	-3.662764	0.0	0.0
