17

C	0.0	0.0	0.0
C	-0.4823	0.015567	-1.454094
Br	2.046584	0.0	0.0
H	-1.579048	-0.028122	-1.331247
N	-0.466632	1.147483	0.644199
H	-0.447617	1.094059	1.650273
H	-0.089165	2.01818	0.300587
C	-0.458035	-1.254114	0.707445
H	-0.101402	-2.137315	0.182714
H	-1.553432	-1.223923	0.708293
H	-0.083642	-1.262252	1.734399
N	-0.023833	-1.138788	-2.206849
H	-0.607156	-1.253425	-3.025859
H	0.93454	-1.000894	-2.504531
C	-0.152048	1.303783	-2.094256
N	0.115671	2.305382	-2.648403
Cl	-3.798836	0.0	0.0
