17

C	0.0	0.0	0.0
C	-0.396296	0.62435	-1.380287
Br	1.957796	0.0	0.0
H	0.360838	1.371825	-1.623702
N	-0.431444	0.897307	1.027338
H	-0.569398	0.391255	1.8916
H	-1.30455	1.334068	0.743389
C	-0.493752	-1.427103	0.176673
H	-0.238552	-1.769948	1.182278
H	-1.585505	-1.424879	0.079054
H	-0.051379	-2.110828	-0.548044
N	-1.652149	1.325068	-1.289989
H	-1.818609	1.899948	-2.10207
H	-2.473163	0.742087	-1.10395
C	-0.338135	-0.41428	-2.432958
N	-0.354546	-1.213618	-3.294199
Cl	-4.238911	0.0	0.0
