17

C	0.0	0.0	0.0
C	-0.46928	0.218307	-1.465655
Br	1.975523	0.0	0.0
H	-1.566443	0.245893	-1.368518
N	-0.462158	1.017657	0.898991
H	-0.264477	1.938531	0.519807
H	-1.479013	0.908527	0.954101
C	-0.44755	-1.357273	0.512802
H	-0.029499	-2.168016	-0.084599
H	-1.54024	-1.384381	0.476956
H	-0.114212	-1.469001	1.544985
N	-0.118574	-0.790268	-2.451666
H	0.849816	-1.063999	-2.327644
H	-0.708235	-1.599555	-2.306827
C	-0.036239	1.541661	-1.937809
N	0.292913	2.609692	-2.29925
Cl	-3.639544	0.0	0.0
