17

C	0.0	0.0	0.0
C	-0.42379	0.02494	-1.491253
Br	2.04345	0.0	0.0
H	-1.524006	0.009211	-1.446336
N	-0.504104	1.110448	0.654698
H	-0.460943	1.078937	1.660218
H	-0.235963	2.008555	0.282157
C	-0.388385	-1.291482	0.695975
H	-1.477793	-1.383542	0.691455
H	-0.02988	-1.262489	1.728379
H	0.076636	-2.143897	0.200168
N	0.038286	-1.063649	-2.330868
H	-0.486389	-1.898807	-2.107299
H	1.023333	-1.229331	-2.155899
C	-0.017714	1.30917	-2.086634
N	0.27641	2.35261	-2.538828
Cl	-3.803728	0.0	0.0
