17

C	0.0	0.0	0.0
C	-0.344096	-0.527701	-1.434839
Br	2.0185	0.0	0.0
H	0.220392	0.108037	-2.130065
N	-0.495319	1.316552	0.106038
H	0.019027	1.986881	-0.447186
H	-0.599761	1.633273	1.058411
C	-0.547693	-0.872414	1.103101
H	-1.641289	-0.819961	1.048258
H	-0.210897	-1.9034	0.994297
H	-0.222011	-0.502295	2.078552
N	-1.734964	-0.480341	-1.811591
H	-2.097124	0.447191	-1.611585
H	-2.316182	-1.078072	-1.231886
C	0.163708	-1.897006	-1.610381
N	0.536513	-3.000526	-1.757225
Cl	-4.323352	0.0	0.0
