17

C	0.0	0.0	0.0
C	-0.290737	-0.111078	-1.536303
Br	2.060262	0.0	0.0
H	0.494365	0.442167	-2.058337
N	-0.49562	1.212065	0.504559
H	-1.127928	1.059601	1.279154
H	-0.984114	1.72466	-0.222003
C	-0.441063	-1.195435	0.816106
H	-1.530517	-1.273215	0.72331
H	-0.184504	-1.027924	1.865023
H	0.033004	-2.118189	0.485204
N	-1.546757	0.528706	-1.866481
H	-2.345142	0.184225	-1.317811
H	-1.751792	0.412392	-2.850787
C	-0.154856	-1.515371	-1.985431
N	-0.079905	-2.587167	-2.462017
Cl	-4.040764	0.0	0.0
