16
Coordinates from ORCA-job run
  C   0.50693731824735      0.37547874054904     -0.23821227123357
  C   -0.80497132065669     -0.39500448052175     -0.47442298456247
  Cl  0.78509252998956      1.35568042156039     -1.77533592748716
  H   -0.70946542154115     -0.94560951792936     -1.41404936816128
  N   0.35759991166806      1.19391450836300      0.91477286431248
  H   -0.31348094802613      1.93877444408107      0.76258374902143
  H   1.24093570370130      1.60235346841829      1.19314344027078
  C   1.68735995573408     -0.56308808048029     -0.08823932227071
  H   1.55789853369361     -1.16689743466016      0.80846473472019
  H   2.61084481125919      0.01617032103576     -0.01887277527166
  H   1.76192557772103     -1.22098289360717     -0.95442373427703
  C   -1.92293157080146      0.56320224312040     -0.61660604443861
  N   -2.83591255845189      1.30197411973655     -0.64425078063190
  N   -0.99341676210019     -1.34193358627710      0.61219162621102
  H   -1.09809436802904     -0.82636782262627      1.47904847858021
  H   -1.83132139240764     -1.88966445076241      0.45720831521828
