16
Coordinates from ORCA-job run
  C   0.51069478145062      0.35569824691372      0.01098926393940
  C   -0.77730354989183     -0.46930712816330      0.16643576783850
  Cl  0.08612222859382      1.73924108843678     -1.16443737716199
  H   -0.51473021924867     -1.28005905274487      0.85511344466758
  N   0.87281093405320      0.81825030876198      1.29329648607316
  H   0.08412641568136      1.26885755165848      1.74212760482292
  H   1.67024869593495      1.43950481693816      1.26018142758708
  C   1.63289085750816     -0.42522148041909     -0.63916274971477
  H   1.35905397373390     -0.75649933987282     -1.64047232332476
  H   1.87087537824056     -1.28973136266209     -0.01432813538109
  H   2.52263390880924      0.20266353177600     -0.71850625078313
  C   -1.18422447529765     -1.08001608838502     -1.11159475582463
  N   -1.56117535257851     -1.57724565405477     -2.10683600478509
  N   -1.81180024789617      0.33216656132522      0.80267710293281
  H   -2.56052938328962     -0.26344525553786      1.13363221213278
  H   -2.19869394580335      0.98514325602947      0.13088428698124
