16
Coordinates from ORCA-job run
  C   0.53453205289407      0.42960414802265     -0.26271736977533
  C   -0.93432244766451     -0.03332927649328     -0.37886422778541
  Cl  1.17397683702753      0.47452956950066     -1.98480012860168
  H   -1.43000439089758      0.65425702287364     -1.07278482155897
  N   0.55860091722106      1.71067461430140      0.35098114187256
  H   0.08330313048175      2.40561396950461     -0.21289914896195
  H   1.50816641136543      2.02236016934879      0.51182186411810
  C   1.38425656209121     -0.55445101570442      0.51291557236224
  H   0.99976852486419     -0.64346047251381      1.53237169497431
  H   1.38253504192553     -1.52574715288283      0.02038988834086
  H   2.41653008032480     -0.20106165128594      0.55803605584323
  C   -1.58733371674475      0.10069382099146      0.93846770444682
  N   -2.14139479264904      0.10101335861347      1.97454643273905
  N   -1.03804026007919     -1.37836445691673     -0.91913025183595
  H   -0.98907978827335     -2.06396936962869     -0.17594451664713
  H   -1.92349416188716     -1.49936327773096     -1.39238988953074
