16
Coordinates from ORCA-job run
  C   0.54810770613699      0.39640959472498     -0.06904995334789
  C   -0.80528084271954     -0.32515686817295      0.13896834631588
  Cl  0.26735232761367      1.60834687460160     -1.39720186778454
  H   -0.62057326673440     -1.06183728508092      0.93027987901228
  N   0.95968603303899      1.10120017748945      1.10352025678188
  H   1.47859770050408      0.49236355284790      1.72349050373964
  H   0.14756669731142      1.47832690146064      1.57937964893019
  C   1.63166118107331     -0.55579622398165     -0.53137733417450
  H   1.77117623286376     -1.34719266541975      0.21303496435452
  H   2.56603061105935     -0.00407119932822     -0.64170060284400
  H   1.37704615294637     -1.01358125412576     -1.48685561232035
  C   -1.22374765513285     -1.06660982165511     -1.06425231562028
  N   -1.59580067925588     -1.65942732758835     -2.00802195514433
  N   -1.79783480787914      0.61166940004420      0.64122686681951
  H   -2.61360156670939      0.11321563274161      0.97461169404851
  H   -2.09038582411675      1.23214051144233     -0.10505251876653
