16
Coordinates from ORCA-job run
  C   0.44702685147459      0.37370777985317     -0.23569080819368
  C   -0.90611743809889     -0.33819123617920     -0.48361053840670
  Cl  0.79812680948431      1.32339930722181     -1.77840468694405
  H   -0.83427396586107     -0.87179583945348     -1.43595068062011
  N   0.33508533244068      1.20009987900357      0.91320818200251
  H   -0.32558932237340      1.95603168768993      0.76999508932863
  H   1.22961176304272      1.59341927697428      1.17749942384077
  C   1.58083025596861     -0.62024000389106     -0.07102208220859
  H   2.53484449840535     -0.09178251164274     -0.02147540405218
  H   1.44808032825902     -1.18303159069826      0.85407169061515
  H   1.62072447548227     -1.30477479219106     -0.91977138078943
  C   -1.96225534185533      0.67878512522574     -0.61659859051303
  N   -2.78385169618175      1.51576353166197     -0.66333172443812
  N   -1.29359588074555     -1.27649914634602      0.55285547167750
  H   -1.16104670318794     -0.84466019543381      1.46031146872853
  H   -0.72659996625362     -2.11223127179484      0.49991456997280
