16
Coordinates from ORCA-job run
  C   0.49522678018724      0.44057377899902     -0.37743249503205
  C   -0.95719198777719     -0.08117169976677     -0.43322021778821
  Cl  1.10321810067158      0.47067659682116     -2.06100990308368
  H   -1.47055650147296      0.54799137954438     -1.16442176155387
  N   0.43473930184505      1.82037100107382      0.07271555906444
  H   1.31346535025894      2.28322455226873     -0.12849871252646
  H   0.29172500193960      1.84365971763161      1.07788084731389
  C   1.39790725778408     -0.47253156972836      0.43655394414751
  H   2.41054467324571     -0.06578009230973      0.45499048012725
  H   1.03015908808066     -0.53138845829959      1.46643795010711
  H   1.43634978782621     -1.47334081213608      0.00489205577270
  C   -1.58021866047144      0.15668872838149      0.88503844935389
  N   -2.03908860192662      0.28304103226430      1.95968088537909
  N   -1.02810819856280     -1.46874988710476     -0.85495462688282
  H   -1.92915600184880     -1.66232792839018     -1.27185104256629
  H   -0.91001538977926     -2.09293633924906     -0.06680141183248
