16
Coordinates from ORCA-job run
  C   0.50382130752686      0.37837121138754     -0.26628946478281
  C   -0.94934967051304     -0.13689816437764     -0.28243085657456
  Cl  1.12963730232178      0.05840529968740     -1.99123884198570
  H   -1.49950867341126      0.49064441811292     -1.00314699655359
  N   0.49421729209850      1.75773916002216      0.04060281278186
  H   -0.00631870561221      2.30298044473476     -0.65027318354678
  H   1.43071993695892      2.12714081756562      0.14035398900362
  C   1.39364238519432     -0.39320244568487      0.68176487210817
  H   1.05482571479570     -0.21987841405872      1.70562208087430
  H   1.34767797443476     -1.45700340090144      0.46096555453939
  H   2.42603544679621     -0.05029997279336      0.58530897802518
  C   -1.54366446213326      0.09134364109004      1.04094877076452
  N   -2.05362856938952      0.23236118029013      2.08848889563130
  N   -1.00741578964684     -1.56194076736004     -0.57965511935308
  H   -1.94434790960458     -1.90911546049104     -0.41599492796944
  H   -0.77734357981634     -1.70864754722344     -1.55502656296238
