16
Coordinates from ORCA-job run
  C   0.48732154494375      0.37466541645452     -0.35434052959110
  C   -0.96770253143515     -0.14345006144773     -0.35683314721940
  Cl  1.10411372947013      0.13880488823106     -2.03197623697108
  H   -1.49517343160468      0.46525849714813     -1.10462337660326
  N   0.43148387478347      1.80693933573436     -0.13452833877971
  H   1.33459200040965      2.21832765940220     -0.34152489033513
  H   0.22721405825425      1.98425742145191      0.84461112857724
  C   1.38327802268545     -0.40326234941826      0.59291340741095
  H   1.37172264635125     -1.46768767554357      0.36481782035139
  H   2.40496408225028     -0.02462677375107      0.52287076542056
  H   1.02777410119702     -0.26322486551247      1.61809080248113
  C   -1.55635092264231      0.15984641426252      0.95383446499334
  N   -2.00538517568011      0.41782726976153      2.00734173999389
  N   -1.02284846222111     -1.58195758516154     -0.58326870895303
  H   -1.97119773219760     -1.91409967227874     -0.45608536194770
  H   -0.75380580456431     -1.76861791933285     -1.54229953882810
