16
Coordinates from ORCA-job run
  C   0.55981526307483      0.43606877509599     -0.32040556864731
  C   -0.81097618273758     -0.29185795411617     -0.40613137162815
  Cl  0.77008372611568      1.28800676376138     -1.88648608207333
  H   -0.82258477324387     -0.90458750362160     -1.31788204316561
  N   0.63888102868977      1.41229636417963      0.73416273966945
  H   -0.02222540519510      2.16450242304985      0.57126427901577
  H   0.38815693625987      0.94748124966859      1.60175887508847
  C   1.67728685887250     -0.57733996951893     -0.15875540922988
  H   2.63278966944196     -0.05616819476820     -0.20487165545926
  H   1.64313676249945     -1.33325957797106     -0.94681899526592
  H   1.59363047724065     -1.06127362068875      0.81689301977015
  C   -1.88687809329455      0.69607721253624     -0.51528933708028
  N   -2.75287571672528      1.48762009604250     -0.55485333701359
  N   -0.99529025199947     -1.06410142777959      0.82636645412560
  H   -1.97630219477076     -1.13967193162697      1.06298497271125
  H   -0.63664810422810     -2.00179270424292      0.69706345918264
