16
Coordinates from ORCA-job run
  C   0.51390035355349      0.38115985123468     -0.21350178245403
  C   -0.79429855415605     -0.37562584248779     -0.50729513225143
  Cl  0.83235559776363      1.41205105823354     -1.70886177456163
  H   -0.67757465179662     -0.89514164593429     -1.46209698516213
  N   0.33938140237177      1.16039829204063      0.96289815493056
  H   1.21669166872549      1.55581510728448      1.27608966563792
  H   -0.32552095308223      1.91247184385766      0.82013719351196
  C   1.68722495274737     -0.56679746221364     -0.06717745699118
  H   1.53398609869565     -1.20029821722190      0.80491233180284
  H   1.78066151874600     -1.19511243650961     -0.95320523752159
  H   2.61070307861349      0.00579630139790      0.04442957940390
  C   -1.90584478688481      0.59062440205132     -0.64495924970601
  N   -2.81692290580326      1.33221237600608     -0.67079686776820
  N   -1.01219836612066     -1.35727981559297      0.54261210074838
  H   -1.85157041596251     -1.89168077079113      0.35325442433394
  H   -1.12997403741077     -0.86959304135495      1.42356103604669
