16
Coordinates from ORCA-job run
  C   0.37390958741641      0.45397938465193     -0.05672429125223
  C   -0.85234698277837     -0.48276265960954     -0.02910250883756
  Cl  0.11778549058486      1.71969914335841     -1.29068332086168
  H   -0.61165477710133     -1.22960058023696      0.74994923072736
  N   0.41068248678928      1.11420464242386      1.24451784128563
  H   0.86866466250894      0.50103264740865      1.91231487451456
  H   0.95637628825982      1.96554121885505      1.18151117348568
  C   1.64642805483218     -0.30132644853518     -0.40790052294989
  H   1.81183926268347     -1.10391249397287      0.31874567353987
  H   1.59293629434220     -0.73788366678572     -1.40595569652829
  H   2.49667288156131      0.38217925499002     -0.37200437849927
  C   -0.97805316496840     -1.22284913955179     -1.29071601552424
  N   -1.07955161536314     -1.84826025888661     -2.27870669945596
  N   -2.06277263010544      0.26927583554687      0.23411549484099
  H   -1.87085318570972      0.87868201457769      1.02158351741812
  H   -2.82006265295210     -0.35899889423381      0.47105562809690
