16
Coordinates from ORCA-job run
  C   0.47640611266914      0.39717042136545      0.05114194264708
  C   -0.74057638232985     -0.54076315147461      0.10782821721468
  Cl  -0.01047896448395      1.78854331773072     -1.09044478628939
  H   -0.44154343287352     -1.35468939620921      0.77760105523941
  N   0.73450655495892      0.83344802566263      1.36732719633579
  H   -0.11117281591435      1.19582046280864      1.79163422773811
  H   1.47555354946103      1.52100546662732      1.39944866979753
  C   1.69256770694030     -0.25626255348652     -0.56991999124598
  H   2.52668933428892      0.44819375194460     -0.57961792943476
  H   1.97545253514890     -1.12305080278291      0.03260293291846
  H   1.49692027915859     -0.56683926729740     -1.59587080506793
  C   -1.02999073898593     -1.12891867602609     -1.21211986034746
  N   -1.31276292085923     -1.61379581990182     -2.24396568633190
  N   -1.87068714121705      0.14139679913814      0.71979001936791
  H   -2.28039032725477      0.78718838865439      0.05466650933520
  H   -2.57949334870716     -0.52944696675333      0.98889828812324
