16
Coordinates from ORCA-job run
  C   0.36600584325351      0.46377359068711      0.02156933363635
  C   -0.85089703934214     -0.48263244732468     -0.05565178063177
  Cl  -0.03351577704765      2.00144880132010     -0.79466934401751
  H   -0.52055443475417     -1.40016292921146      0.46542654744030
  N   0.56172406676909      0.75968337881526      1.43725511105039
  H   1.09044844715194      0.00357715372731      1.86192749806997
  H   1.10290899520244      1.61023788076836      1.53795447260302
  C   1.58421177328783     -0.13534812755424     -0.66402964913592
  H   1.83352739064948     -1.09585597827006     -0.20084323109402
  H   2.43491778408012      0.53863883335987     -0.54840199415270
  H   1.40899411974185     -0.29466584920466     -1.72855507637798
  C   -1.13098762346755     -0.86749920987491     -1.44431242840578
  N   -1.35387845445566     -1.21307727435719     -2.54363945153455
  N   -2.01891192147454      0.13926608621013      0.53726865737940
  H   -1.73004754345947      0.52460786069172      1.43006190047002
  H   -2.74194562613505     -0.55299176978267      0.68863943470076
