16
Coordinates from ORCA-job run
  C   0.45826319136155      0.37332678181768     -0.35503786303697
  C   -1.00964666967538     -0.12537931214250     -0.46408248022782
  Cl  1.20112988887568      0.10158423580053     -1.97193133736103
  H   -1.45968276332351      0.47344400211515     -1.26212085488076
  N   0.41097825252527      1.80705209219961     -0.15426553344839
  H   0.09774356051912      2.00588088154780      0.79106838103466
  H   1.33685098479808      2.20378335319998     -0.26848878227860
  C   1.27227534633063     -0.40164339395011      0.66876074798985
  H   1.31851735981521     -1.46640995695775      0.43452725905855
  H   0.83022187831851     -0.27152773694587      1.66116965920250
  H   2.29403549629833     -0.01837437468642      0.69140115085421
  C   -1.68608474249060      0.22527809271309      0.79294851714794
  N   -2.15582462747880      0.51250138897682      1.82994644854625
  N   -1.23881212173944     -1.52557728545382     -0.75054301916024
  H   -0.79707044169354     -1.77407689951489     -1.62659702920760
  H   -0.87389459244112     -2.11786186871933     -0.01575526423254
