16
Coordinates from ORCA-job run
  C   0.48547415501837      0.38475410399406      0.06065470549742
  C   -0.74627699184836     -0.53468425368786      0.09794306357714
  Cl  -0.01524074493603      1.85932385785148     -0.96482575753275
  H   -0.43897340190099     -1.39772796721215      0.69896792950515
  N   0.79840415868686      0.72525872576717      1.39303600019121
  H   1.55246006440525      1.39730199990449      1.44468001536735
  H   -0.02474401752125      1.07044494439465      1.87226208815420
  C   1.66607846550317     -0.24450351829069     -0.64785196707897
  H   2.51309316300983      0.44450034987984     -0.63865589615699
  H   1.42862126454231     -0.47914599008311     -1.68514203645563
  H   1.95258378982671     -1.15616244788689     -0.11743888051313
  C   -1.09400368643619     -1.02507061334532     -1.24765334903281
  N   -1.42338751705535     -1.43203509884788     -2.29917698511876
  N   -1.84066205713460      0.12227622156633      0.79647788051237
  H   -2.26110063629579      0.81928302234520      0.19242677600421
  H   -2.55232600786395     -0.55381333634933      1.04429641308000
