16
Coordinates from ORCA-job run
  C   0.47421794078535      0.43250245827695     -0.41298099858552
  C   -0.95752042218773     -0.14634015311848     -0.41436420303533
  Cl  1.06327279124752      0.36935311570788     -2.10232479554918
  H   -1.50184467534477      0.41154421101225     -1.18022601859874
  N   0.36480011223496      1.83683632968271     -0.05790793491943
  H   0.23086310916117      1.92401298194576      0.94497241314494
  H   1.22291741305498      2.31771005493661     -0.30148401410240
  C   1.41984492620205     -0.38739199146858      0.44995350800371
  H   1.49158102666096     -1.41378063773435      0.08818841862297
  H   2.41641411884558      0.05712474128818      0.42620902238765
  H   1.06605882555701     -0.38768042320165      1.48641043911332
  C   -1.57547083230105      0.15588423202398      0.89307700679327
  N   -2.02714962116772      0.33356617982065      1.96345576048206
  N   -0.97903992775786     -1.56153083617108     -0.74018512070509
  H   -1.87587105636088     -1.81650608101895     -1.13229337383295
  H   -0.83107372862956     -2.12530418198189      0.08749989078071
