16
Coordinates from ORCA-job run
  C   0.56384829773456      0.41623928479178     -0.40359289846539
  C   -0.90241589590459     -0.09931379815155     -0.38453562064041
  Cl  1.08375838739491      0.35015004524966     -2.12074127882884
  H   -1.45205953382030      0.49412001545764     -1.12239910541438
  N   0.69417885288404      1.78506229036549      0.02614473835346
  H   0.07824992227670      2.39895572347911     -0.49429788761668
  H   0.49415318888883      1.86921248006660      1.01618476639674
  C   1.47540385155100     -0.46701139355262      0.42400450233427
  H   1.47984873293642     -1.48459094926705      0.03492861299617
  H   2.48754157027153     -0.06535785017839      0.38058648622197
  H   1.14575227421079     -0.47601817049718      1.46840974209167
  C   -1.46945098420039      0.19981623409064      0.94745556975525
  N   -1.89006552525531      0.38006036934628      2.03019583040335
  N   -1.01040082984636     -1.49962431634000     -0.75112377072958
  H   -1.93797580204240     -1.70489894511859     -1.09877470674989
  H   -0.83936650707943     -2.09480101974182      0.04955501989228
