16
Coordinates from ORCA-job run
  C   0.49945552295054      0.40548371996954     -0.31963631672323
  C   -0.87411117904451     -0.31620567310668     -0.48635945498990
  Cl  0.77313679797066      1.27297395594890     -1.87805774535949
  H   -0.83805403566981     -0.89898296113444     -1.41249860511780
  N   0.55301466151441      1.37912365703137      0.73357435914303
  H   0.58009364800328      0.93950437546226      1.64425127356219
  H   -0.21119479349228      2.04248507382472      0.68160721353776
  C   1.62098877003810     -0.60025423961071     -0.13542424422079
  H   1.61465439577236     -1.34164877958400     -0.93645925969358
  H   1.52301351727902     -1.11202384424008      0.82572979042115
  H   2.57472932339227     -0.07360106928434     -0.14693652964189
  C   -1.92776376591521      0.69867209480088     -0.62771388018137
  N   -2.74450415516454      1.54073521862571     -0.66787205658502
  N   -1.25117451247574     -1.20980538626213      0.59405650494923
  H   -1.26847792532616     -0.72688165944293      1.48341300162846
  H   -0.62380626983239     -2.00057448299807      0.64832594927126
