16
Coordinates from ORCA-job run
  C   0.45633750348976      0.37784484672317     -0.20982137052894
  C   -0.89312400391973     -0.31570687865978     -0.52081632795849
  Cl  0.86013323592794      1.37372564039111     -1.70979282841125
  H   -0.79517196580876     -0.82085833667327     -1.48628545841970
  N   0.31506437900303      1.16811752494174      0.96123867789847
  H   -0.33632822619391      1.93283290920798      0.82222548899909
  H   1.20382730097646      1.54705817774886      1.26337588253357
  C   1.57813584325404     -0.62931219296383     -0.04312150101617
  H   1.63930615457864     -1.28653249715090     -0.91196447138658
  H   1.41345600694333     -1.22037670286477      0.85888357316570
  H   2.53372062785819     -0.10998473585942      0.05220594141156
  C   -1.93815029331357      0.71251307458499     -0.65585119112989
  N   -2.75239135172431      1.55657466083923     -0.70352401409021
  N   -1.31855906188046     -1.28199141225532      0.47423043988097
  H   -0.75834890113102     -2.12154461913311      0.41056702552916
  H   -1.20790724805963     -0.88035945887665      1.39845013352271
