16
Coordinates from ORCA-job run
  C   0.46923222046481      0.37691924802541     -0.26234171423352
  C   -0.99931530201672     -0.11100133053027     -0.39316473753810
  Cl  1.22934599823507      0.02960199046887     -1.92452331128023
  H   -1.46518175739549      0.51234597292834     -1.16686378689722
  N   0.46362827865981      1.75582936536290      0.04117316550049
  H   0.00162463115275      2.30633547186351     -0.67212732422044
  H   1.39597923577897      2.11913720560213      0.19127612252628
  C   1.27097245749064     -0.39935611003530      0.75956430734870
  H   0.83288801710782     -0.25238085275181      1.74931530684787
  H   1.29196425993444     -1.46134229608001      0.51757949148236
  H   2.30324561587598     -0.04376997995636      0.77318892259322
  C   -1.68520356416164      0.16267270435010      0.87794809313183
  N   -2.22155384022729      0.33116548654396      1.90813122756385
  N   -1.23022261167991     -1.49434908525000     -0.75342274075509
  H   -0.75137636298271     -1.71216198850426     -1.61792991833462
  H   -0.90402727623654     -2.11864580203723     -0.02680310373538
