16
Coordinates from ORCA-job run
  C   0.51139264682411      0.38391170046002     -0.21463485473701
  C   -0.80210964218664     -0.36625117605463     -0.50167289343783
  Cl  0.81111216551111      1.43741840826116     -1.69758021924301
  H   -0.69814232577251     -0.87093419162006     -1.46593090766029
  N   0.35436597986654      1.14523646352926      0.97618416515756
  H   -0.31018330262564      1.90132057530381      0.85351143831450
  H   1.23694920818222      1.53368398871596      1.28397495689344
  C   1.68484074165872     -0.56814337670210     -0.09897257266280
  H   1.54319308463133     -1.21399564288199      0.76599099017906
  H   2.61091333125111      0.00129889854389      0.00721081607299
  H   1.76412906139726     -1.18378656893247     -0.99526739633633
  C   -1.91406730090217      0.60317953396144     -0.61053396691810
  N   -2.82499669073309      1.34548599506134     -0.61473503044276
  N   -1.00691637213846     -1.36327857849838      0.53594329760865
  H   -1.11097245010688     -0.88921204862840      1.42599186518186
  H   -1.84950813485702     -1.89393398051883      0.35052031203007
