16
Coordinates from ORCA-job run
  C   0.49511388449069      0.46630358973077     -0.00281702017797
  C   -0.75494174834194     -0.44170037798100      0.09250185227124
  Cl  0.01121764614706      1.87126377791012     -1.05259630343721
  H   -0.44770183406500     -1.29062524093350      0.71515325522468
  N   0.88227110201343      0.97236709970446      1.27595974860834
  H   1.49714673389235      0.32111714314182      1.74704947342507
  H   0.05724303774455      1.14729129304525      1.83893193214309
  C   1.65537728588132     -0.23814321658536     -0.67529002819884
  H   2.51435811253076      0.43345766871113     -0.69713627541369
  H   1.40710844341939     -0.52658273216571     -1.69623818470215
  H   1.92076462944908     -1.13757039408765     -0.10937791989110
  C   -1.14609693894452     -0.97850593371968     -1.22319039469601
  N   -1.49459746243958     -1.41634834018222     -2.25634504994195
  N   -1.82127788867199      0.25089314486213      0.79855710660614
  H   -2.21985666090050      0.96474386147531      0.19941465321238
  H   -2.55712834220509     -0.39896134292589      1.04642315496797
