16
Coordinates from ORCA-job run
  C   0.47952201009980      0.38695000737816      0.08828352687202
  C   -0.72543349472615     -0.56770201643915      0.06103794297493
  Cl  -0.12327634432671      1.98330326766793     -0.66336408201680
  H   -0.35864260697982     -1.50167589036477      0.50128431778886
  N   0.87378839277341      0.53032464639507      1.43486574991826
  H   0.07678967085335      0.77089212920956      2.01232715457502
  H   1.61396284171541      1.21114798074395      1.54220324696211
  C   1.62361180604290     -0.08735341328747     -0.78228684572830
  H   2.45340231835871      0.61964754937967     -0.72016663875641
  H   1.96600501760736     -1.05942505772954     -0.41845347612279
  H   1.32199494123088     -0.16829176347921     -1.82625340697925
  C   -1.15206994690436     -0.85852399177021     -1.31925885823876
  N   -1.54232892474530     -1.11109986940297     -2.39803914646331
  N   -1.78489259683460     -0.06141469389802      0.92057328364794
  H   -2.46208928979979     -0.79073270268345      1.10614054245155
  H   -2.26134379436511      0.70495381828045      0.45910668911494
