16
Coordinates from ORCA-job run
  C   0.46127319492468      0.37297729834179     -0.20832727240296
  C   -0.89671412223893     -0.30197419321072     -0.52359220391598
  Cl  0.87876992963645      1.37010314385536     -1.70375391912634
  H   -0.80555275767554     -0.80167894759222     -1.49253848428603
  N   0.32913062889895      1.15965233093246      0.96604648995325
  H   1.22235522495923      1.52493223826467      1.27177561376956
  H   -0.31187150830179      1.93365507043114      0.83020578824784
  C   1.57002708604731     -0.64909018377621     -0.04509251198553
  H   2.53223771007384     -0.14232160864504      0.05122835361768
  H   1.62245895576442     -1.30472558188572     -0.91572731124797
  H   1.39805199069986     -1.24052374176328      0.85534038827823
  C   -1.92887590035481      0.74007062005194     -0.65075305183740
  N   -2.73271055146594      1.59445797757686     -0.69067445069412
  N   -1.33414659069224     -1.26954668798123      0.46506710499717
  H   -0.78082261881102     -2.11352762990894      0.39931504515187
  H   -1.22261067146447     -0.87346010469085      1.39148042148073
