16
Coordinates from ORCA-job run
  C   0.51361912228264      0.44043089830576     -0.28660789221496
  C   -0.94665316607374     -0.05920537330599     -0.34388425440822
  Cl  1.08734880993714      0.48506938188810     -2.03145456385754
  H   -1.48564244154667      0.60987880946398     -1.02340870643005
  N   0.52880456309030      1.72711304797880      0.31531108914021
  H   0.01797845777505      2.40600665028063     -0.23681279737779
  H   1.47563677113572      2.06202405279998      0.44150773289228
  C   1.41527320021269     -0.51565151241273      0.46513181509985
  H   2.43945929476381     -0.13679608960283      0.46900851177879
  H   1.07088801027976     -0.60475717975071      1.49879494749575
  H   1.41947380839594     -1.49111495527068     -0.01905005011573
  C   -1.55229407700307      0.07015322881335      0.99650823976826
  N   -2.06539544052600      0.06472775371145      2.05343878664268
  N   -1.03760096506611     -1.41100592010294     -0.86921074505232
  H   -0.94228028011142     -2.08854500568794     -0.12313449520441
  H   -1.93761566754605     -1.55832778710822     -1.30613761815680
