16
Coordinates from ORCA-job run
  C   0.44785008413827      0.30310939129460      0.07211187213879
  C   -0.87250461594917     -0.49238988060996     -0.06545211570618
  Cl  0.18098157050504      1.91472139882555     -0.78926136484625
  H   -0.66474160384032     -1.46173464152156      0.40302156823350
  N   0.71808576977532      0.47608484350694      1.45773682706683
  H   1.63114472139378      0.89086987230140      1.59802517085466
  H   0.02939818979770      1.07839961498139      1.89089687820555
  C   1.60591126764475     -0.38908669569393     -0.61633296174657
  H   1.76631257962484     -1.36547196855151     -0.15176563397963
  H   2.51601566580005      0.20512894878349     -0.50849198127092
  H   1.40915418048942     -0.51835845385672     -1.67995185978918
  C   -1.17164506969457     -0.74754009054073     -1.48166518757687
  N   -1.39825524939127     -0.96527938397158     -2.61236627121885
  N   -2.04170659328813      0.05975126637808      0.58444204000885
  H   -2.19273352659126      1.02177102255338      0.30752393961317
  H   -1.96226737041446     -0.00897524387885      1.58952908001311
