16
Coordinates from ORCA-job run
  C   0.52332678236613      0.35625102512204     -0.36045183449483
  C   -0.96050583106910     -0.12791234033119     -0.40227897271100
  Cl  1.17095137188270      0.02275172717992     -2.01469081446466
  H   -1.44888710672623      0.45869340299862     -1.19024702746709
  N   0.65504132907625      1.76894640658765     -0.13045819201985
  H   0.43184383575418      1.99325541398764      0.83239279693808
  H   0.05569492960215      2.30537825343129     -0.74729299629515
  C   1.35674478453014     -0.40353167687404      0.65080923326694
  H   0.95938950974364     -0.24652721412464      1.65822484329610
  H   2.38094139158609     -0.03286448703060      0.61384242712286
  H   1.36538120606865     -1.47165691305478      0.43510023412177
  C   -1.57539181065571      0.25241674536214      0.87803169118771
  N   -2.00171466317603      0.56022621306229      1.92790070153581
  N   -1.23463327055671     -1.52598601621131     -0.66422498830246
  H   -0.85255728207409     -2.11480127863528      0.06501730603849
  H   -0.82562517635205     -1.79363926146974     -1.55067440775272
