16
Coordinates from ORCA-job run
  C   0.46742183466131      0.45022982588182     -0.40088855473749
  C   -0.97197484911383     -0.10961346736980     -0.39152083548824
  Cl  1.00253492229368      0.48148579747223     -2.10919448071730
  H   -1.53100939096588      0.49870559563204     -1.10660968486976
  N   0.38956591423850      1.83183903356835      0.04064317854388
  H   0.28548688804591      1.86016036198693      1.05041164358118
  H   1.24756895928795      2.31504117569260     -0.19873278191814
  C   1.42759802321442     -0.43228645340454      0.38030266958331
  H   1.10656402026144     -0.49075264872002      1.42576185248753
  H   1.47271629995035     -1.43565766823683     -0.04472147083162
  H   2.42922935031206      0.00038477363687      0.35117991009210
  C   -1.54574755709979      0.12373246011004      0.94947994152984
  N   -1.95997134677774      0.24950244745423      2.04213131398314
  N   -1.02349486430476     -1.50280686178966     -0.79829652690807
  H   -1.93378735216679     -1.72265336841255     -1.18045789613034
  H   -0.86170085183683     -2.11631100350173     -0.00948827820004
