16
Coordinates from ORCA-job run
  C   0.57066911887236      0.43241797822402     -0.28604086496289
  C   -0.76922674934084     -0.32698903484522     -0.46752671921687
  Cl  0.77827889537581      1.41976250069521     -1.78019285093486
  H   -0.68669773186882     -0.95024408149747     -1.36268695391259
  N   0.59622331253681      1.32575191152633      0.83723378485986
  H   -0.18947852010906      1.96552590861487      0.84045635417102
  H   0.64104961767413      0.80694968340738      1.70505835456347
  C   1.72627111998482     -0.54446534508439     -0.18831398302499
  H   1.59587763284812     -1.18010023574812      0.68829289545174
  H   2.65602332095551      0.01830270513161     -0.10599102330150
  H   1.76989260314776     -1.17700115349136     -1.07623169155574
  C   -1.87624094283744      0.62689936945827     -0.66629207930956
  N   -2.78274133694295      1.37287502085036     -0.71731430922417
  N   -0.98797644923031     -1.19090050862468      0.68896983441137
  H   -1.41213123564718     -0.66076132696638      1.44074585773925
  H   -1.62879265541872     -1.93702339165041      0.44883339424647
