16
Coordinates from ORCA-job run
  C   0.51154202884961      0.41375691568345     -0.28938918720709
  C   -0.86129785964945     -0.28960234231404     -0.52425054875084
  Cl  0.83783757512242      1.33690130315991     -1.80567679768502
  H   -0.80233493880785     -0.83606582448396     -1.47112350153786
  N   0.54096861627843      1.34623808450760      0.80091307840481
  H   -0.21853344746589      2.01530923794173      0.75496180885720
  H   0.54431946905377      0.87300806055266      1.69486618937378
  C   1.61960460359777     -0.60781674362005     -0.11073732090434
  H   1.63205339401875     -1.31796339839322     -0.93950344202598
  H   1.48865057315852     -1.15542743407713      0.82641355251406
  H   2.57710297764434     -0.08930719479753     -0.07342728725801
  C   -1.90438256571061      0.73765095758818     -0.65499077532811
  N   -2.71499172363886      1.58612266246765     -0.68296382821261
  N   -1.27617562738565     -1.22180235487297      0.50915065007847
  H   -1.31818891333018     -0.77277525751276      1.41526710046769
  H   -0.65517416173511     -2.01822667182952      0.55249030921385
