16
Coordinates from ORCA-job run
  C   0.52578029320183      0.36052326966044     -0.35273602614147
  C   -0.96448208137291     -0.10243107586648     -0.39958018302502
  Cl  1.15802113653081      0.07125402558465     -2.02123173048193
  H   -1.45056717245497      0.51481545158536     -1.16522689898503
  N   0.67808931779361      1.76346488122235     -0.07912656243844
  H   0.46250574689696      1.95993457082759      0.89154090311985
  H   0.08247235647331      2.32684569037174     -0.67520182878908
  C   1.35553679390635     -0.44187134391598      0.62816824992217
  H   1.34917948329412     -1.50259857187529      0.37850172756586
  H   0.96653366533171     -0.31205772212690      1.64270516784377
  H   2.38415007064479     -0.08315419919458      0.59612931051124
  C   -1.56605226454919      0.24518948699337      0.89633279714431
  N   -1.98202766241813      0.52553673839282      1.95796337088137
  N   -1.25896618319523     -1.48799368776785     -0.70317594358907
  H   -0.85881184898609     -1.73337626698017     -1.60003558171085
  H   -0.88036165109697     -2.10408124691105      0.00497322817232
