16
Coordinates from ORCA-job run
  C   0.50791880406972      0.41843005555585     -0.29064219415070
  C   -0.86773587511180     -0.28261807738403     -0.51590949323133
  Cl  0.81032712535678      1.36387025907933     -1.79885551661910
  H   -0.81972506731888     -0.81912873916121     -1.46902421351509
  N   0.55176923261976      1.33476826085371      0.81220221065769
  H   -0.20969892870479      2.00272982514154      0.78939670960055
  H   0.57412883092822      0.84972854016834      1.69942723815742
  C   1.61980356634937     -0.60399328307134     -0.14363207457947
  H   2.57722245960112     -0.08484687221918     -0.11191239856772
  H   1.50259142887930     -1.16617105167934      0.78678693226237
  H   1.62114700910820     -1.30112743456829     -0.98347482993137
  C   -1.91312075721935      0.74487214870543     -0.62239028506506
  N   -2.73976030713167      1.57827460362303     -0.62780896838927
  N   -1.26946201770754     -1.22576413721118      0.51262968148511
  H   -0.64818121202912     -2.02278543105184      0.53926323101207
  H   -1.29922429168933     -0.78623866678082      1.42394397087391
