13
Coordinates from ORCA-job run
  C   -1.03150168554799     -0.12314733212708     -0.11105662582902
  C   0.31851045305809      0.13669249254739     -0.09006030028900
  C   -1.86656285034922      0.62090210526661     -0.99500523575452
  N   -2.47545236316324      1.28369907477756     -1.75404979309126
  C   -1.62142868533624     -1.10586935474886      0.73392682018759
  N   -2.10091857665821     -1.91816067070742      1.43727663309611
  N   0.88410248921500      1.02512578382902     -0.94229878387384
  H   1.81214816775271      1.35705743259210     -0.74367081027965
  H   0.29138859138757      1.64531900866160     -1.47398471698117
  C   1.26046105407184     -0.59520530767381      0.81476394962492
  H   1.79459343736660      0.11559535242549      1.45238915196599
  H   0.73622521395154     -1.30428053175605      1.45232361052676
  H   1.99943475425156     -1.13772805308654      0.21944610069710
