13
Coordinates from ORCA-job run
  C   -1.03530933688651     -0.11647634270879     -0.09043387146662
  C   0.30561562041159      0.18199758036575     -0.03129283839805
  C   -1.92070018923175      0.80007562447998     -0.72922323606865
  N   -2.57050195918502      1.61413448442300     -1.27801312887998
  C   -1.56294862317537     -1.31877449320114      0.46065855609257
  N   -1.98911728712978     -2.31654469889768      0.91584032561711
  N   0.79278050769497      1.35743447479049     -0.49603257690758
  H   0.20132272147922      1.95053917990192     -1.05883186526025
  H   1.78303995639645      1.44058890041086     -0.64877072347528
  C   1.30105310291188     -0.72957811186526      0.61665697342045
  H   2.07886966437714     -1.00606817922543     -0.10141814977155
  H   1.78104641767688     -0.21643885442461      1.45414621932272
  H   0.83284940466031     -1.63988956404908      0.98571431577511
