13
Coordinates from ORCA-job run
  C   -1.03105130518733     -0.13763036189550     -0.09670822662852
  C   0.30773346869836      0.17273548210645     -0.06035945325592
  C   -1.93932310185585      0.78364321553969     -0.69525783916092
  N   -2.61237627957946      1.60525206274682     -1.20338097958531
  C   -1.53841696200148     -1.34751688330471      0.45676616210955
  N   -1.95044256015513     -2.34788816063919      0.91934179233915
  N   0.79439729452351      1.29264367437878     -0.64764209357520
  H   1.71643164417905      1.60340712940320     -0.39386027116393
  H   0.15125741757663      2.00721783791511     -0.95473802723889
  C   1.32381220862118     -0.73928239682441      0.55417286232574
  H   0.86016135378083     -1.61901374404990      0.99615888772876
  H   1.87926355997443     -0.21053394546713      1.33468573710654
  H   2.03755326142526     -1.06303390990923     -0.20817855100104
