13
Coordinates from ORCA-job run
  C   -1.01459102477424     -0.15705928104966     -0.19409798018659
  C   0.31600585065128      0.15948250431690     -0.05310935497667
  C   -1.82750306188951      0.63476784324850     -1.05666119719853
  N   -2.41958277370049      1.34506166212595     -1.78523612123755
  C   -1.60758687356767     -1.24436070436217      0.50882415496768
  N   -2.09156357257278     -2.14182976767823      1.09595059066175
  N   0.88994869340757      1.15295428361253     -0.77318474965901
  H   0.30439407848273      1.79242550537373     -1.28927232678373
  H   1.78527332959722      1.50456367008884     -0.48032589850581
  C   1.23367494138030     -0.61811635264312      0.83863666236820
  H   1.69396656163715      0.04759062682976      1.57494474195077
  H   2.03298134388362     -1.06800560308795      0.24372185950278
  H   0.70558250746481     -1.40747438677510      1.36980961909671
