13
Coordinates from ORCA-job run
  C   -1.03714848842069     -0.12680910975955     -0.08382951771890
  C   0.30026025288062      0.18707391588267     -0.02645114882626
  C   -1.92971265959108      0.77751425235117     -0.73019352178129
  N   -2.57821982818627      1.58565361618539     -1.28913730934834
  C   -1.54855772564164     -1.33497150637339      0.47014658647593
  N   -1.95297368922038     -2.33812426972078      0.93275173445424
  N   0.77458218906483      1.36501237822093     -0.50011062908067
  H   1.76351880850159      1.45337201527365     -0.65990387665832
  H   0.17656487687632      1.94337362821258     -1.07155786786500
  C   1.30842206471104     -0.71181958532619      0.61939647586130
  H   1.83027007110858     -0.17092779010354      1.41319582294196
  H   0.84365658250125     -1.59866987897459      1.04568519076443
  H   2.05033754541582     -1.03067766586836     -0.11899193921910
