13
Coordinates from ORCA-job run
  C   -1.00541994530484     -0.20390577704697     -0.21519279793656
  C   0.30343582272110      0.17938167721955     -0.04034735077894
  C   -1.52338659235620     -1.39399319408965      0.37095063835408
  N   -1.93381756231149     -2.38052148193392      0.86307067960809
  C   -1.86757910940287      0.62400987302710     -0.99200664500058
  N   -2.49497614023649      1.37794557238587     -1.64317637645714
  N   0.80894645452757      1.27971668838394     -0.64908897095999
  H   0.17797868218538      1.93502596753132     -1.08626962163133
  H   1.67833456463306      1.65644490921812     -0.31205202581175
  C   1.27259825116676     -0.62231134597494      0.77177193788031
  H   1.63499346703335     -0.02624139190828      1.61483868310853
  H   2.13264679948960     -0.89631068045680      0.15507689312068
  H   0.81724530785505     -1.53024081635533      1.16242495650461
