13
Coordinates from ORCA-job run
  C   -1.03420224541866     -0.10393274448430     -0.11134237949341
  C   0.32001637864476      0.13354584108136     -0.08628416629553
  C   -1.85591027855490      0.67059097383312     -0.98132857941388
  N   -2.45030852055100      1.36108650884096     -1.72695777346834
  C   -1.64030639559876     -1.09351167567976      0.71379544603256
  N   -2.13443897799651     -1.91089798958324      1.40097167007536
  N   0.89907314486505      1.02937784719486     -0.92071681498117
  H   0.31784962963945      1.66444550054578     -1.44711853831696
  H   1.83510256884967      1.33837989674464     -0.72294359162724
  C   1.25049785566618     -0.63082379616679      0.80342937404064
  H   0.71568429702651     -1.34523149615695      1.42609948922597
  H   1.98177468438623     -1.17133365993746      0.19668716801303
  H   1.79516785904197      0.05830479376777      1.45570869620897
