13
Coordinates from ORCA-job run
  C   -1.03820364453288     -0.08064407586391     -0.09065522083931
  C   0.31064048834706      0.17621501806677     -0.01579606705847
  C   -1.59354450600766     -1.31883076720631      0.34063148424714
  N   -2.04462145465992     -2.34583386650627      0.69588883232681
  C   -1.90365268477975      0.91796827596435     -0.62511946696946
  N   -2.53502970052213      1.79985960934826     -1.08302210297606
  N   0.82451613763828      1.37948625430515     -0.36551596258223
  H   0.24389483363076      2.04244431632327     -0.85700568337080
  H   1.81586849798952      1.45602711467710     -0.51442061723492
  C   1.28672126931273     -0.82139731201660      0.52626903805714
  H   1.78736823529149     -0.40860356121472      1.40603634907989
  H   2.05077293877574     -1.04367155963920     -0.22465258150139
  H   0.79726958951678     -1.75201944623789      0.80636199882167
