13
Coordinates from ORCA-job run
  C   -1.01696573804417     -0.17577863144062     -0.16944057685488
  C   0.29360615280875      0.20539811261535     -0.00070823919308
  C   -1.88747679376213      0.65814641999282     -0.93001432593111
  N   -2.52603435077853      1.40435025041078     -1.57926920999896
  C   -1.52261795187661     -1.38977979311226      0.37692864084473
  N   -1.92984718633134     -2.39573459868008      0.83175298132465
  N   0.75563642169909      1.38732438610958     -0.47338262815732
  H   0.18667242280307      1.92245168725240     -1.11242996117916
  H   1.74944568637843      1.52949424260614     -0.53086862480231
  C   1.27864201578157     -0.63021805377601      0.75640807513969
  H   1.77812390227494     -0.02395281785948      1.51643812038758
  H   2.04203381322772     -1.01499408869707      0.07267428030154
  H   0.79678160581921     -1.47670711542157      1.24191146811862
