13
Coordinates from ORCA-job run
  C   -1.02230164046732     -0.17321247822051     -0.13735718599790
  C   0.29611093398350      0.19807838218109     -0.01759242828290
  C   -1.90771249919033      0.65614191494537     -0.88607454653673
  N   -2.55429171526075      1.40170187333896     -1.52782386151336
  C   -1.52358175079558     -1.37104078650503      0.44738914550063
  N   -1.93162888932343     -2.36352408046572      0.92970475823373
  N   0.75268115474336      1.36993666977166     -0.52234288930178
  H   0.16872204655951      1.89354236806816     -1.15752697315977
  H   1.74519499274434      1.49138096937807     -0.62949025725050
  C   1.29596299595700     -0.62415735668222      0.73449037719764
  H   2.09789946854068     -0.94273837692286      0.06150325522291
  H   1.74188195233233     -0.02552374748125      1.53312361874103
  H   0.84106295017669     -1.51058535140573      1.17199698714700
