13
Coordinates from ORCA-job run
  C   -1.01673904481324     -0.16618809054817     -0.17648525092449
  C   0.30436677447721      0.18533032410222     -0.02862070337228
  C   -1.84393949091604      0.60138502094340     -1.04740383933915
  N   -2.44510367578626      1.29023691990755     -1.78911225655859
  C   -1.57977758234631     -1.28043259478759      0.50845769493910
  N   -2.03633044355186     -2.20435499792985      1.07619254102872
  N   0.81806522843320      1.28557142361200     -0.62897165002059
  H   0.27988040133438      1.75782553526391     -1.34005773130286
  H   1.81737049154580      1.37842031910555     -0.68984648220492
  C   1.23988161112233     -0.57322924501566      0.86095602248508
  H   0.75026663011046     -1.42692524063824      1.32523651217166
  H   2.09516026738322     -0.93558768140216      0.28282751648123
  H   1.61789883300711      0.08594830738703      1.64682762661709
