13
Coordinates from ORCA-job run
  C   -1.02938502758327     -0.14064078687740     -0.11320594334204
  C   0.30685168913696      0.17699270716562     -0.04857458155070
  C   -1.57805203230654     -1.23665433804545      0.61159238817910
  N   -2.02331786484074     -2.14461817333477      1.21315632267974
  C   -1.88859287215835      0.64566813746140     -0.93511280854274
  N   -2.51571081221439      1.34867117835495     -1.64116265918031
  N   0.81019999938249      1.26330717354992     -0.68250152697411
  H   0.24164540851836      1.74660479421550     -1.36188751386307
  H   1.80584970214812      1.32856309811315     -0.80706253347700
  C   1.27577244535310     -0.60347434070815      0.78429124987152
  H   2.08138322806619     -0.99341586323256      0.15500146006516
  H   0.79316350780552     -1.44054766077946      1.28475134584697
  H   1.72219262869255      0.04854407411724      1.53971480028745
