13
Coordinates from ORCA-job run
  C   -1.03158161261679     -0.13137186715717     -0.10750900768156
  C   0.31101209006417      0.16261567136714     -0.06692140463244
  C   -1.56885744775706     -1.28427876937885      0.53264152079199
  N   -2.00484206121334     -2.23891205827919      1.06474872035835
  C   -1.91153124194677      0.74718167749681     -0.80452828685185
  N   -2.55685872420772      1.53134520051223     -1.40004230990537
  N   0.82719366914884      1.22031608203828     -0.73784452199228
  H   0.20311509511145      1.91280789273371     -1.12432406734035
  H   1.75088993964126      1.53712474660999     -0.49801340539045
  C   1.29889494128645     -0.70408354674696      0.65048292985203
  H   2.03920580263973     -1.08457484672453     -0.05818825788005
  H   1.82681318580005     -0.12046196827713      1.41053048118468
  H   0.81454636404972     -1.54770821419432      1.13796760948729
