13
Coordinates from ORCA-job run
  C   -1.03446790955355     -0.10472098905860     -0.10555759588811
  C   0.31281434482840      0.16507504639546     -0.05279887142181
  C   -1.86630823995983      0.68676881541154     -0.95060387776864
  N   -2.46743090088660      1.38947131563266     -1.67922437404572
  C   -1.62170406084877     -1.15747158716768      0.65250542890364
  N   -2.10059528507595     -2.02927776789537      1.28109534744154
  N   0.85462193077830      1.21213563440788     -0.72029106388034
  H   0.30243374879373      1.69401304561334     -1.41412358283570
  H   1.85153959647373      1.23238441312868     -0.85129199389911
  C   1.25509327012824     -0.62615672255329      0.80015314016945
  H   1.73872507727078      0.03266961916373      1.52638350019112
  H   2.03532126439667     -1.07461919273677      0.17754964549527
  H   0.74195716365485     -1.42227163034157      1.33620429753842
