13
Coordinates from ORCA-job run
  C   -1.03633837255780     -0.08935121973670     -0.09986194382060
  C   0.31558065086390      0.15801920981119     -0.05895299970605
  C   -1.60031766634442     -1.28269183540942      0.43451071617594
  N   -2.06056616787728     -2.27038576828488      0.87860038523493
  C   -1.90026543585279      0.88205451520553     -0.68518061895677
  N   -2.53038248663588      1.74373668943930     -1.18165348036696
  N   0.85390795376661      1.26144875717220     -0.63209093503504
  H   0.24503618367565      2.00849988329875     -0.93159554951486
  H   1.78995012042420      1.52536096846918     -0.37596316648175
  C   1.28771374852296     -0.80549964729584      0.54802845821526
  H   2.00984807860554     -1.12752365631824     -0.20695269656822
  H   0.78635495074714     -1.68337989973414      0.95075993587510
  H   1.83947844266216     -0.31928799661691      1.35835189494901
