13
Coordinates from ORCA-job run
  C   -1.02855335894016     -0.15045062532477     -0.11702143418534
  C   0.30380850123907      0.18183782665768     -0.04233198900116
  C   -1.56229872077768     -1.27843323588306      0.56880386128297
  N   -1.99347198896279     -2.21468337252591      1.13624236131380
  C   -1.89825070365011      0.65758783119793     -0.90623799676159
  N   -2.53195665318026      1.38352492666540     -1.58251633341298
  N   0.79207122470247      1.29536216431585     -0.63899615703983
  H   1.78661272261303      1.38160348853838     -0.75882849726123
  H   0.21547946318291      1.79735246010409     -1.29766092058591
  C   1.28458530671287     -0.61656913341328      0.75910415664090
  H   2.08752704687162     -0.98129584958155      0.11147687296751
  H   0.81166390506600     -1.47192452564047      1.23736852231759
  H   1.73278325512305      0.01508804488973      1.53059755372528
