13
Coordinates from ORCA-job run
  C   -1.04630388848673     -0.00928506668129      0.02870959580911
  C   0.31579012624902      0.13953594026100     -0.08721527951032
  C   -1.90086584035118      0.88859458312697     -0.67528594286487
  N   -2.51922291464392      1.67638449860643     -1.29415414106339
  C   -1.62521168613361     -1.04295176248863      0.81852290607151
  N   -2.09380828014827     -1.90215432792181      1.47161875488292
  N   0.86142915015775      1.16357876205650     -0.78607502192781
  H   1.83326107068893      1.10992905975838     -1.03816557950296
  H   0.27344768300629      1.72364359591357     -1.38507899361021
  C   1.28305040328230     -0.76786362482911      0.60782594860074
  H   1.91244409195322     -0.18685901330609      1.28687649247157
  H   1.93450891660551     -1.25169742985137     -0.12627717532067
  H   0.77148116782069     -1.54085521464456      1.17769843596437
