13
Coordinates from ORCA-job run
  C   -1.03224620096460     -0.12578248953270     -0.10464427471580
  C   0.31327926137268      0.15561520551744     -0.07431041343137
  C   -1.58587652080990     -1.22907806892349      0.60530550024189
  N   -2.03461038834770     -2.14059064377451      1.19868997803228
  C   -1.89879745184623      0.71359776007330     -0.86383350592562
  N   -2.53586081802851      1.46060259286027     -1.51383120375110
  N   0.84483581677933      1.16384185621506     -0.80627805326653
  H   1.77168086560505      1.48338041358981     -0.58328784162860
  H   0.23195510533468      1.83607388707232     -1.24249834304509
  C   1.28777782518161     -0.67569093781344      0.70116219196690
  H   1.82690141549888     -0.04993630500910      1.41872921288372
  H   2.02030141867382     -1.11641179957873      0.01959463659789
  H   0.79065967155089     -1.47562147069624      1.24620211604144
