13
Coordinates from ORCA-job run
  C   -0.99677957117081     -0.25298079914639     -0.18646895910220
  C   0.25873864771803      0.20881254369480      0.13139032697886
  C   -1.19039135286225     -1.40530128918599     -1.00016132141981
  N   -1.34291035815276     -2.35765174582566     -1.67406252747629
  C   -2.13734997511790      0.43691570295640      0.31854871315238
  N   -3.01739659058107      1.06873957408839      0.77938197509337
  N   0.43707442482187      1.34324092902577      0.84921239529135
  H   1.34170942049756      1.52734016691807      1.24760251556528
  H   -0.35259987729731      1.76770679180087      1.31214318838510
  C   1.50555965242070     -0.46200415145630     -0.35559978990064
  H   2.07882451256197      0.23014333930487     -0.97782275504607
  H   2.13130965980660     -0.75063454605848      0.49419449630753
  H   1.28221140735538     -1.35332651611634     -0.93835825782885
