13
Coordinates from ORCA-job run
  C   -1.02525184548747     -0.10201286814056     -0.17175419815778
  C   0.34266340529021      0.02393082955463     -0.10449439191526
  C   -1.85353777234997      0.07204444427720      0.97308570013901
  N   -2.53750734503638      0.22429018055164      1.91844325241144
  C   -1.63260432462659     -0.39895546330144     -1.42601264219171
  N   -2.03892338347785     -0.64068859651495     -2.50409371225265
  N   1.11999526751968     -0.07612634150593     -1.20703829176787
  H   2.11347569133772     -0.17982707697742     -1.09609738970777
  H   0.72330805044011     -0.41044156939626     -2.07249857456876
  C   1.05461150278601      0.31872833813509      1.17948866714134
  H   1.58730959906675     -0.57197370618319      1.52597593846783
  H   0.36015085974298      0.62606076933790      1.95844668691676
  H   1.78631029479481      1.11597106016329      1.02754895548541
