13
Coordinates from ORCA-job run
  C   -1.02755355531878     -0.12851569018025     -0.13646462596246
  C   0.31531990846296      0.15718194646863     -0.06357114317972
  C   -1.59686112104917     -1.24748953949500      0.53541474277276
  N   -2.06116590728140     -2.17333817656627      1.09376910562268
  C   -1.87702188849393      0.72480398890601     -0.89967350091578
  N   -2.50028320998903      1.48728641468408     -1.54468240526442
  N   0.86273912920995      1.18024645251916     -0.76307204395682
  H   0.25778885133133      1.85792028010800     -1.20251855567328
  H   1.77945545162052      1.50253032340983     -0.50472065241702
  C   1.27133797171885     -0.68432727179407      0.72351094207713
  H   2.01917480383341     -1.11720065505267      0.05376708531711
  H   1.79389723640485     -0.06782481225792      1.46103191322532
  H   0.76117232955044     -1.49027326074954      1.24720913835451
