13
Coordinates from ORCA-job run
  C   -1.03070281009762     -0.13585334562391     -0.10771560598846
  C   0.31323247640046      0.15310231621904     -0.07870705520268
  C   -1.58656969378218     -1.20480103783133      0.65128717600456
  N   -2.03614052842306     -2.09118372570849      1.28090806733485
  C   -1.89242049470861      0.65865433314787     -0.91904378674822
  N   -2.52458125323871      1.36768673837168     -1.61462621879587
  N   0.84835398734389      1.12185570907566     -0.86017629127130
  H   1.77052211026087      1.45930891299108     -0.64364408895409
  H   0.23553940934911      1.76784529139395     -1.33518858464414
  C   1.28281659738449     -0.62983005806363      0.75110364329286
  H   0.78360789179740     -1.40377517354988      1.33080070014187
  H   1.80824090974146      0.03645377331130      1.44182797898477
  H   2.02710139797251     -1.10046373373335      0.10317406584585
