13
Coordinates from ORCA-job run
  C   -1.03055229883232     -0.12667060024573     -0.11795241335773
  C   0.31279845223398      0.16135036132088     -0.06322039601517
  C   -1.58054743172055     -1.27564157417172      0.51848917606666
  N   -2.02768236325055     -2.22629387948973      1.04847257347142
  C   -1.89894678881439      0.75408700647694     -0.82669616162257
  N   -2.53509904266356      1.53920176616590     -1.43078322243440
  N   0.84068102072510      1.21642360676285     -0.72918480677865
  H   1.76317221732767      1.52936900816903     -0.47980835519178
  H   0.22372680135874      1.91098806121947     -1.12330359678397
  C   1.28924256640110     -0.70964165634725      0.66450148137268
  H   2.02716593159202     -1.10484262658456     -0.03861949606093
  H   1.82157958214848     -0.12486142248760      1.42061472979269
  H   0.79446135349429     -1.54346805078847      1.15849048754173
