13
Coordinates from ORCA-job run
  C   -1.02595765444563     -0.14365401128616     -0.14252805823803
  C   0.30539180548232      0.18194483609565     -0.03299695081465
  C   -1.58233421965014     -1.27006291145633      0.52769090605186
  N   -2.03263431341004     -2.20470608735274      1.08273385309798
  C   -1.86968298426078      0.66316837587194     -0.96053228808051
  N   -2.48214491328853      1.38430169426313     -1.66132268591100
  N   0.81512929708555      1.29377259180392     -0.61589029978335
  H   1.81298087127538      1.36857064144109     -0.71518441365437
  H   0.26012077881751      1.79428039759748     -1.29412246613392
  C   1.26022888011244     -0.61937056687711      0.79633808800230
  H   2.08220040746852     -0.98433023297826      0.17322876095988
  H   0.77186812911038     -1.47467083416144      1.25887652091174
  H   1.68583391570303      0.01075610703882      1.58170903359206
