13
Coordinates from ORCA-job run
  C   -1.02585065712804     -0.15166141952193     -0.12971054422833
  C   0.30341667885029      0.18618533436427     -0.03305363344024
  C   -1.55646384627802     -1.30937557993516      0.50732085388458
  N   -1.98820363685979     -2.26820115044365      1.03508902492864
  C   -1.89708639107006      0.67832497455553     -0.89400291593857
  N   -2.53642966968942      1.42100409465606     -1.54664422986989
  N   0.78822370446312      1.32594957677350     -0.58153949357116
  H   1.78293478937936      1.41985815955121     -0.69431110258726
  H   0.21358716299565      1.84775431386209     -1.22646957811790
  C   1.28396718236683     -0.63591869386508      0.74432238525409
  H   2.09450109182743     -0.96994502051922      0.08959800971507
  H   0.81381016545283     -1.51260906781561      1.18534103807324
  H   1.72159342568982     -0.03136552166200      1.54306018589771
