13
Coordinates from ORCA-job run
  C   -1.03629252211231     -0.10956547923964     -0.09078017379715
  C   0.31664608552543      0.13707027958936     -0.09085003860840
  C   -1.87868034280921      0.65857013810093     -0.94654060073120
  N   -2.48882848725734      1.34383721989716     -1.68417719638200
  C   -1.61861148522821     -1.10665428328903      0.74243223086495
  N   -2.09117257137803     -1.93331809886472      1.43370199979211
  N   0.87428838268348      1.03682990322235     -0.93532888334392
  H   0.27973509587831      1.66710434769755     -1.45257477251526
  H   1.81183911218626      1.35179097129605     -0.75536120918985
  C   1.26853646574955     -0.62133415647762      0.78139034175305
  H   1.81795221462196      0.07117525594699      1.42614005232999
  H   0.75055523281876     -1.34179946883421      1.41127685910997
  H   1.99403281932132     -1.15370662904517      0.16067139071772
