13
Coordinates from ORCA-job run
  C   -1.03470684715082     -0.11025792127154     -0.09680336218433
  C   0.31014977812928      0.17192826662359     -0.04747684933917
  C   -1.59467307603211     -1.22668107437160      0.58715436343982
  N   -2.04910671263778     -2.15185634191218      1.15458237935730
  C   -1.89217801351038      0.73423151336672     -0.86066998149630
  N   -2.51987769926237      1.48328916617093     -1.51705769448549
  N   0.82719796162725      1.27246503743174     -0.64400807659114
  H   0.25686504155679      1.80301917535470     -1.28546583466658
  H   1.82168622326539      1.32349840719767     -0.78281658942956
  C   1.27671786326189     -0.66924757252894      0.72737600620820
  H   1.75138059905771     -0.06516191374039      1.50503177694739
  H   0.78436413274965     -1.51883717242504      1.19604010591668
  H   2.06118074894550     -1.04538956989566      0.06411375632318
