13
Coordinates from ORCA-job run
  C   -1.03015651941964     -0.13640159834034     -0.11796921838362
  C   0.30595162274689      0.17959904535988     -0.04059685833036
  C   -1.57502861798550     -1.26717690762140      0.55453043717552
  N   -2.01616463542943     -2.20547433931489      1.11071802377282
  C   -1.89179740985077      0.68630412523742     -0.90061874905116
  N   -2.52184002951184      1.42163909211820     -1.57037113691383
  N   0.80741585179720      1.29208495919370     -0.62743209561250
  H   1.80329480439882      1.37234035596946     -0.74042061619211
  H   0.23738809616210      1.81095425928896     -1.27845032875083
  C   1.27715344405794     -0.63752682146697      0.75354567320125
  H   1.72580394142147     -0.02168744093289      1.53728381194158
  H   0.79681557430586     -1.49771053053608      1.21547357919981
  H   2.08116387730689     -0.99694419895503      0.10430747794342
