13
Coordinates from ORCA-job run
  C   -1.03888851194272     -0.06810430336077     -0.09330171125664
  C   0.31755554058353      0.15435876817138     -0.05519392274698
  C   -1.62034117486496     -1.26444041986126      0.41464794171555
  N   -2.09359538524514     -2.25493775089152      0.83827527114787
  C   -1.88836011459719      0.93266259286999     -0.64907807624970
  N   -2.50650742466925      1.81605919903697     -1.12196362265498
  N   0.87040071493175      1.26462576424796     -0.59837761503397
  H   0.27507370008987      2.02865386989215     -0.88120359756203
  H   1.81809302964402      1.49969788251479     -0.35919955895079
  C   1.27652815957882     -0.84229957697663      0.51845781055686
  H   0.76160727243584     -1.71796894345095      0.90842996402159
  H   1.84871631200012     -0.38521332387215      1.33133120568324
  H   1.98171788205531     -1.16309375831996     -0.25282408867003
