13
Coordinates from ORCA-job run
  C   -1.03856282531031      0.09857681269887     -0.07516439855463
  C   0.32971711236412      0.12445128245383      0.05865551882550
  C   -1.72409542788198     -1.05024288498654     -0.56290721325766
  N   -2.27845555518624     -2.00775464926047     -0.96308203179210
  C   -1.79287526713128      1.24828983516428      0.30041336426030
  N   -2.33000217154056      2.23854826242676      0.64241660401284
  N   0.98298723622175      1.24026936215042      0.46206064943582
  H   1.93800816541357      1.15639062104241      0.76508389335323
  H   0.45670499426303      2.01060761256602      0.84654188315902
  C   1.19157075261625     -1.04544328095675     -0.30252872255159
  H   0.59910648725956     -1.89118352217969     -0.64559502274443
  H   1.88927407780489     -0.75994794736770     -1.09421153248100
  H   1.77662242110719     -1.36156150375145      0.56631700833471
