13
Coordinates from ORCA-job run
  C   -0.97975006380119     -0.30108520991344     -0.20522149613556
  C   0.24488752715176      0.18832118702502      0.18270709611610
  C   -1.10422434285014     -1.42989353799189     -1.06301132484809
  N   -1.19801322865735     -2.35704321434196     -1.78108851972479
  C   -2.16241175287836      0.34969608217308      0.25429554607699
  N   -3.07775284074400      0.95325582627740      0.68277540080099
  N   0.35796670501788      1.22834415121962      1.04082992548455
  H   -0.45718673806437      1.77126382474960      1.28247865255551
  H   1.24999348083922      1.68201759992054      1.13741863650044
  C   1.53158968379430     -0.41389502866284     -0.29211159715077
  H   1.37384590722156     -1.38295007308569     -0.76265593095665
  H   2.00041876587727      0.25002641479929     -1.02504829251915
  H   2.22063689709343     -0.53805802216872      0.54763190380044
