13
Coordinates from ORCA-job run
  C   -0.97873776236327     -0.31947214858045     -0.16741620428492
  C   0.24664141204761      0.21858155788419      0.14829146976869
  C   -1.09698703272543     -1.55382712415144     -0.86783211393648
  N   -1.17978595692501     -2.57893983307772     -1.43948445198766
  C   -2.16421997763305      0.37200166051730      0.21781611671061
  N   -3.09771985730366      0.99462867515377      0.57410981607610
  N   0.35879679365824      1.35357382788159      0.87937544788134
  H   -0.46065856781977      1.91960950408798      1.04270356446294
  H   1.24261849860626      1.83343665003696      0.88588798061622
  C   1.53295943975987     -0.44044523016924     -0.24346947907780
  H   1.36274319630445     -1.42702407625875     -0.67004907568488
  H   2.05325786870084      0.17042777475059     -0.98829583303847
  H   2.18309194569290     -0.54055123807478      0.62936276249432
