13

C	-0.439335	0.041644	-1.456922
C	0.0	0.0	0.0
Cl	-2.229002	0.031786	-1.620485
H	1.094482	0.0	0.0
H	-0.10427	1.008171	-1.842883
C	0.134138	-0.999137	-2.305224
N	0.545673	-1.774066	-3.08503
N	-0.43855	-1.246417	0.705265
O	-0.611483	-1.169202	1.917228
O	-0.535169	-2.261251	0.024319
C	-0.485836	1.16962	0.714656
N	-0.854373	2.153838	1.238709
Cl	3.090991	0.0	0.0
