13

C	-0.541839	0.068529	-1.429325
C	0.0	0.0	0.0
Cl	0.252038	-1.155394	-2.448697
H	1.091576	0.0	0.0
H	-1.607917	-0.167346	-1.425494
C	-0.344611	1.397933	-2.00157
N	-0.249196	2.46333	-2.48404
N	-0.468178	-1.277407	0.665545
O	-1.404017	-1.886484	0.153848
O	0.11183	-1.58442	1.69482
C	-0.523507	1.095806	0.804241
N	-0.971678	1.977391	1.437463
Cl	3.140645	0.0	0.0
