13

C	-0.457363	-0.003093	-1.4595
C	0.0	0.0	0.0
Cl	0.077915	1.502666	-2.244749
H	1.09482	0.0	0.0
H	0.041686	-0.828965	-1.965827
C	-1.90825	-0.137678	-1.584879
N	-3.076101	-0.235568	-1.670579
N	-0.395076	-1.296478	0.649829
O	-0.525467	-1.302089	1.867228
O	-0.493167	-2.271821	-0.092323
C	-0.537482	1.11586	0.758516
N	-0.96676	2.043899	1.336807
Cl	3.111896	0.0	0.0
