13

C	-0.538078	0.076077	-1.428453
C	0.0	0.0	0.0
Cl	0.231673	-1.170087	-2.440928
H	1.091681	0.0	0.0
H	-1.608299	-0.137013	-1.426663
C	-0.310136	1.397919	-2.003844
N	-0.191019	2.458343	-2.494179
N	-0.473016	-1.278203	0.656086
O	-1.444833	-1.852031	0.165817
O	0.133694	-1.617998	1.661868
C	-0.518079	1.094992	0.809556
N	-0.967675	1.975873	1.444458
Cl	3.143478	0.0	0.0
