13

C	-0.430956	-0.289998	-1.438212
C	0.0	0.0	0.0
Cl	0.07164	1.063837	-2.48071
H	1.103548	0.0	0.0
H	0.110025	-1.1733	-1.774774
C	-1.870905	-0.502408	-1.567476
N	-3.029388	-0.661002	-1.677405
N	-0.383952	-1.155037	0.88018
O	-0.499424	-0.937407	2.079493
O	-0.484809	-2.251152	0.331843
C	-0.554918	1.231242	0.529093
N	-1.004462	2.24252	0.922957
Cl	3.105756	0.0	0.0
