13

C	-0.534939	0.127705	-1.426343
C	0.0	0.0	0.0
Cl	0.253182	-1.061282	-2.492462
H	1.103256	0.0	0.0
H	-1.602925	-0.098378	-1.438639
C	-0.321559	1.475642	-1.944797
N	-0.205061	2.555815	-2.390761
N	-0.468405	-1.299799	0.612823
O	0.098026	-1.635093	1.64479
O	-1.391627	-1.900715	0.062959
C	-0.515211	1.065967	0.847585
N	-0.957086	1.925482	1.516314
Cl	3.132538	0.0	0.0
