16
Coordinates from ORCA-job run
  C   0.45220355930298     -0.42001471610744     -0.29232340938327
  C   -0.83209526333867      0.42382495230202     -0.44023026850765
  Br  1.34632586436845     -0.37868605469449     -2.10087738733782
  H   -1.41949922255513     -0.02103640651277     -1.26031858114691
  N   0.05929032589267     -1.73958235217049      0.07022531752458
  H   -0.42596906047007     -2.20517854847684     -0.68823327758648
  H   0.85940729177831     -2.30163043326053      0.33300280525255
  C   1.42500343597258      0.15734282292134      0.71409652192942
  H   0.93943400721005      0.18958095071699      1.69022159313826
  H   2.32247644335595     -0.46305255892314      0.76641272210141
  H   1.72322543434714      1.16585016846460      0.42886032981745
  C   -0.52709447578577      1.80493712093709     -0.82886006103741
  N   -0.32751386667558      2.91738894105055     -1.14558303745181
  N   -1.51003415558188      0.43700624169957      0.85148499542376
  H   -2.37816993933137      0.95450622274552      0.78595077904968
  H   -1.70699037848967     -0.52125635069198      1.11417095821425
