16
Coordinates from ORCA-job run
  C   0.44711745547176     -0.36952997342849     -0.24728782905922
  C   -0.84194029006402      0.41252392151793      0.05861911672130
  Br  1.33068119131880      0.48347211889677     -1.78520135363696
  H   -1.31143515379067     -0.11997687154573      0.89767226678828
  N   0.05438106996206     -1.69534252959046     -0.67945538933241
  H   -0.28313195955078     -2.21732044534183      0.12474808925468
  H   0.85085364228917     -2.19212760993263     -1.06154333459921
  C   1.40879473738318     -0.32505715674093      0.93011947359059
  H   2.31117484684663     -0.89172857804757      0.69242708432479
  H   0.92234397938870     -0.79071987926311      1.79519277478715
  H   1.67503638590587      0.69646622754766      1.19465446588140
  C   -1.78236796232729      0.34175453185465     -1.07778848791240
  N   -2.58068840705497      0.39329685609165     -1.93796275607987
  N   -0.55796322197515      1.76398746534921      0.51017535839828
  H   -0.23768323171644      2.31899122875105     -0.27593859447823
  H   -1.40617308208685      2.19131069388183      0.86256911535183
