16
Coordinates from ORCA-job run
  C   0.53694438516344     -0.35788276722351     -0.21381366102459
  C   -0.79242997779221      0.38167855369200      0.07939133338796
  Br  1.36263191021028      0.55048094335921     -1.76605333588112
  H   -1.20019176535945     -0.11869960196551      0.96791990755814
  N   0.37096873700874     -1.73547886326534     -0.58194679316158
  H   0.09104125079640     -2.28627166694011      0.22159144492164
  H   -0.29839635945466     -1.85556978796170     -1.33324946196114
  C   1.47852062818254     -0.24989440963376      0.96905310185083
  H   1.02860078209373     -0.75752175810235      1.83063842937020
  H   1.65001465279961      0.79066040713536      1.23439569104566
  H   2.42097719948502     -0.74020082366197      0.72628734917073
  C   -1.75269211962835      0.14521084202757     -1.01931990077918
  N   -2.52942578149416     -0.01677168960969     -1.88640506486760
  N   -0.59308995019377      1.77829378958056      0.41716204478076
  H   -0.31790262986413      2.29343374088575     -0.41124030331658
  H   -1.45557096195301      2.17853309168347      0.76658921890587
