16
Coordinates from ORCA-job run
  C   0.44063486656480     -0.43865426851835     -0.11806312560972
  C   -0.66830519690634      0.60789544894780     -0.33404785612001
  Br  0.51620656756045     -1.41252072880070     -1.96824627723469
  H   -0.39534026099532      1.20433320778863     -1.21505923539508
  N   0.08357802296317     -1.28078599057264      0.92550474654186
  H   -0.87603586762007     -1.59569435201489      0.85315981579568
  H   0.73295820740115     -2.03510449243536      1.09578702241139
  C   1.81711404316421      0.16553606973689      0.05058790841650
  H   2.57344552167783     -0.62079675528562      0.08372118377898
  H   1.84472500196542      0.72179549597859      0.99117115047566
  H   2.05715299203907      0.83148220566394     -0.77896276667152
  C   -0.69367155693191      1.51069717165487      0.82528614762269
  N   -0.71863254741192      2.26415943050404      1.72519518964784
  N   -1.96226248085705     -0.06095391752334     -0.44451448695248
  H   -2.03644824156368     -0.46744578660169     -1.37008838864534
  H   -2.71511907104980      0.60505726147781     -0.32343102806177
