13

C	0.0	0.0	0.0
C	-0.46716	0.270329	-1.425757
F	1.36511	0.0	0.0
H	0.214046	-0.310256	-2.055431
H	-0.379214	0.673665	0.767553
H	-0.254156	1.329482	-1.611939
N	-0.382649	-1.389435	0.445695
O	-0.185333	-2.294337	-0.36251
O	-0.793395	-1.522608	1.594257
N	-1.823468	-0.028179	-1.79446
H	-2.010302	-1.0193	-1.720742
H	-2.536333	0.42148	-1.222549
Br	-4.673111	0.0	0.0
