13

C	0.0	0.0	0.0
C	-0.591308	-0.274121	-1.354077
F	1.353816	0.0	0.0
H	-1.677991	-0.305355	-1.202042
H	-0.375889	0.936942	0.409563
H	-0.365385	0.618986	-1.94957
N	-0.37178	-1.033139	1.044922
O	-0.398672	-2.215472	0.706226
O	-0.520777	-0.618589	2.190202
N	-0.008087	-1.436411	-2.034789
H	-0.243496	-2.253929	-1.486422
H	-0.501251	-1.531559	-2.914086
Br	-3.905746	0.0	0.0
