13

C	-0.168475	0.011584	-1.537746
C	0.0	0.0	0.0
F	-0.37051	-1.315902	-1.952279
H	1.094098	0.0	0.0
H	-0.312662	0.96773	0.402335
C	-1.371005	0.752978	-1.986706
N	-2.307709	1.376218	-2.323812
N	1.001106	0.526188	-2.155754
H	1.809385	0.424252	-1.504752
H	0.894768	1.468792	-2.494224
C	-0.658249	-1.079803	0.697387
N	-1.19494	-1.937516	1.295128
F	2.636897	0.0	0.0
