13

C	-0.1342	0.030138	-1.529346
C	0.0	0.0	0.0
F	-0.083452	-1.314227	-1.986451
H	1.094649	0.0	0.0
H	-0.341862	0.947007	0.422432
C	-1.438864	0.525112	-2.035475
N	-2.471213	0.932395	-2.419556
N	0.930402	0.814365	-2.005408
H	1.046811	0.722032	-3.005182
H	1.788712	0.577811	-1.4608
C	-0.646607	-1.123503	0.63715
N	-1.175311	-2.016781	1.187883
F	2.634514	0.0	0.0
