13

C	-0.481601	0.054279	-1.443484
C	0.0	0.0	0.0
F	-0.033413	1.234949	-2.000179
H	1.092844	0.0	0.0
H	-0.314379	-0.956827	0.433166
C	0.111683	-1.078699	-2.195869
N	0.505256	-2.007336	-2.796804
N	-1.914186	0.029612	-1.686504
H	-2.280571	-0.871281	-1.399095
H	-2.328563	0.739153	-1.087908
C	-0.598841	1.081914	0.750698
N	-1.117103	1.962864	1.333185
F	2.525239	0.0	0.0
