13

C	-0.501738	0.071636	-1.422753
C	0.0	0.0	0.0
F	-1.891106	0.432427	-1.42198
H	1.092062	0.0	0.0
H	-0.324757	0.908931	0.514015
C	0.151917	1.180924	-2.152267
N	0.664225	2.042226	-2.762455
N	-0.302019	-1.130257	-2.137955
H	-0.611106	-1.925971	-1.59442
H	-0.778111	-1.10135	-3.02933
C	-0.561077	-1.157083	0.665697
N	-1.015515	-2.120598	1.165649
F	2.516798	0.0	0.0
