13

C	-0.459692	-0.061821	-1.44343
C	0.0	0.0	0.0
F	0.032986	1.0697	-2.1151
H	1.091968	0.0	0.0
H	-0.332444	-0.910074	0.508081
C	0.132448	-1.235308	-2.127626
N	0.527537	-2.172532	-2.712685
N	-1.881207	-0.142625	-1.584016
H	-2.29923	0.619477	-1.06063
H	-2.134197	-0.04553	-2.560721
C	-0.582642	1.157791	0.645503
N	-1.078755	2.096629	1.1523
F	2.525286	0.0	0.0
