13

C	-0.117423	-0.215836	-1.524294
C	0.0	0.0	0.0
F	-0.034411	-1.599412	-1.704206
H	1.092596	0.0	0.0
H	-0.453209	-0.814357	0.564844
C	-1.416791	0.194586	-2.108102
N	-2.448382	0.51478	-2.569152
N	0.96941	0.387674	-2.231153
H	0.767954	1.361839	-2.41759
H	1.794497	0.323597	-1.598152
C	-0.500192	1.296751	0.40321
N	-0.89572	2.357047	0.721694
F	2.618973	0.0	0.0
