13

C	-0.125443	-0.103604	-1.535951
C	0.0	0.0	0.0
F	-0.101247	-1.48285	-1.81066
H	1.09294	0.0	0.0
H	-0.456203	-0.852306	0.503211
C	-1.416877	0.382113	-2.076508
N	-2.458532	0.723026	-2.5002
N	0.978563	0.507722	-2.191836
H	1.794877	0.444593	-1.553468
H	0.78078	1.463497	-2.447669
C	-0.489492	1.265334	0.502994
N	-0.856085	2.299455	0.923364
F	2.622301	0.0	0.0
