13

C	-0.471895	-0.006548	-1.447002
C	0.0	0.0	0.0
F	-0.020272	1.151889	-2.049882
H	1.092911	0.0	0.0
H	-0.314876	-0.937343	0.473283
C	0.127622	-1.167458	-2.149193
N	0.518681	-2.122563	-2.706561
N	-1.902508	-0.045433	-1.700795
H	-2.266415	-0.934802	-1.378521
H	-2.326862	0.685254	-1.136276
C	-0.601411	1.115116	0.699286
N	-1.120553	2.019971	1.243232
F	2.523308	0.0	0.0
