13

C	-0.486068	-0.019993	-1.442531
C	0.0	0.0	0.0
Cl	0.019448	1.446698	-2.347437
H	1.095647	0.0	0.0
H	-0.038827	-0.867187	-1.961917
H	-1.576316	-0.0642	-1.523328
C	-0.480309	-1.22744	0.61323
N	-0.887078	-2.218367	1.101294
C	-0.46423	1.21584	0.797198
H	0.000281	2.108313	0.376805
H	-1.554154	1.343282	0.797771
H	-0.119345	1.120951	1.828756
F	2.575169	0.0	0.0
