13

C	-0.484152	-0.033042	-1.442974
C	0.0	0.0	0.0
Cl	0.015671	1.429852	-2.357488
H	1.095639	0.0	0.0
H	-1.574033	-0.083392	-1.52524
H	-0.031374	-0.88159	-1.955398
C	-0.479557	-1.223352	0.622221
N	-0.885568	-2.210664	1.118086
C	-0.466708	1.221253	0.787389
H	-1.556466	1.350088	0.781328
H	0.001162	2.110577	0.36396
H	-0.127879	1.131846	1.821412
F	2.576119	0.0	0.0
