13

C	-0.457917	0.108389	-1.441478
C	0.0	0.0	0.0
Cl	-0.168485	-1.38695	-2.386109
H	1.095181	0.0	0.0
H	0.133253	0.891876	-1.917226
H	-1.525488	0.329514	-1.537923
C	-0.591297	-1.133413	0.681233
N	-1.085765	-2.04639	1.235006
C	-0.332525	1.305888	0.730417
H	0.213755	2.119532	0.245767
H	0.034932	1.242963	1.756581
H	-1.403945	1.543686	0.748733
F	2.570653	0.0	0.0
