13

C	-0.239979	0.017982	-1.483419
C	0.0	0.0	0.0
Cl	-1.976673	0.220496	-1.993057
H	1.097927	0.0	0.0
H	0.106372	-0.908238	-1.938706
H	0.307234	0.855261	-1.91467
C	-0.541003	-1.188757	0.626861
N	-0.978201	-2.146647	1.15197
C	-0.43332	1.275095	0.712604
H	-1.513373	1.447816	0.6711
H	0.083434	2.120168	0.249021
H	-0.118047	1.234213	1.757429
F	2.55697	0.0	0.0
