14
Coordinates from ORCA-job run
  C   0.56635699894706     -0.53330331799053     -0.09663191602224
  C   -0.59924684491966      0.46301657243478     -0.22231379060362
  Cl  -0.00647098454706     -2.15013777393846      0.22350806966288
  H   -0.18234544761269      1.47571487975697     -0.22572464658705
  N   1.52341113737620     -0.02788332560017      1.04482002709939
  O   1.87808883057931     -0.82189640016328      1.88773812481782
  O   1.84169603847617      1.14269426424979      0.90898314011322
  C   1.36842775523594     -0.48838258862601     -1.31188423818266
  N   2.00982996959886     -0.43821216368523     -2.29680843796183
  N   -1.48578571178789      0.38878693461476      1.01394048280121
  O   -2.69449366443038      0.40298565158277      0.84362304593915
  O   -0.87913152405401      0.36283872581739      2.07654438664222
  C   -1.37405764715732      0.20965876606124     -1.42546647987588
  N   -1.96727890570454      0.01211977548599     -2.42032776784260
