14
Coordinates from ORCA-job run
  C   0.57488837445800     -0.59540388450441     -0.16438386126703
  C   -0.58699302462919      0.40423062722595     -0.26334445273763
  Cl  0.06528931446523     -2.24621378390342      0.02659249263221
  H   -0.17346211128334      1.39914372967101     -0.44134708507612
  N   1.47032657795713     -0.11973602137924      1.04202108391924
  O   1.66302068912682      1.08601524792255      1.03786875268107
  O   1.91658967882998     -0.96238083871978      1.78806480439594
  C   1.40976827895199     -0.43264060133567     -1.34760400715431
  N   2.07439210582757     -0.26494976292046     -2.30381792775708
  N   -1.34393215116981      0.55586648290720      1.05328685056909
  O   -2.18202030550613      1.44152481833467      1.04628817898094
  O   -1.02101424653490     -0.16584051500395      1.98269838818590
  C   -1.53695159809789      0.05680882851042     -1.30731273602667
  N   -2.32890158239546     -0.15742432680486     -2.15001048134556
