14
Coordinates from ORCA-job run
  C   0.52493205525014     -0.56547951324218     -0.12870365600610
  C   -0.55919484539155      0.52505917200388     -0.19480693393517
  Cl  -0.17680298975507     -2.15034494667967      0.07315958765627
  H   -0.06493691813357      1.49982885365587     -0.12507713524187
  N   1.50073336670283     -0.21566828269934      1.05272282412395
  O   1.77424178423739     -1.08804860497357      1.84703537544164
  O   1.91519259384460      0.93120634987197      0.99737339117924
  C   1.34507218016762     -0.50208960717505     -1.33109788228241
  N   2.00665904079459     -0.44674296419725     -2.30225813789831
  N   -1.46468075388449      0.43492493578359      1.02591761713865
  O   -2.66702064531749      0.54567949749715      0.84613458489354
  O   -0.87597231753028      0.29719561095293      2.08999388964362
  C   -1.33429609536566      0.41319081936056     -1.41893502287186
  N   -1.92492645561906      0.32128867984113     -2.43045850184117
