14
Coordinates from ORCA-job run
  C   0.55397682831055     -0.54160594581484     -0.11656071221233
  C   -0.58244573431199      0.49178638947552     -0.20760016591309
  Cl  -0.06954189068003     -2.15764425299607      0.09669938333717
  H   -0.13874346516596      1.49118572088258     -0.14700681876137
  N   1.49876491429646     -0.13027498739183      1.06959511060160
  O   1.84520041727233      1.03884746616236      1.01345317144662
  O   1.81896310709375     -0.98298968805145      1.86793955971684
  C   1.38313802762758     -0.45041768491600     -1.31110993117426
  N   2.05407688073944     -0.36879401277812     -2.27402952720989
  N   -1.49506945667216      0.37582118856450      1.00655446367522
  O   -0.91276541960825      0.26596530017055      2.07710365794321
  O   -2.69852449323058      0.44590656065729      0.81425831886746
  C   -1.33980502529796      0.32515726964119     -1.43657589010671
  N   -1.91722469037318      0.19605667639432     -2.45172062021046
