15

C	-0.490152	-0.049794	-1.431337
C	0.0	0.0	0.0
Br	0.312189	1.355739	-2.512681
H	1.091214	0.0	0.0
H	-0.341021	-0.920213	0.483679
N	-0.138556	-1.395924	-2.113705
O	-0.516695	-1.524781	-3.27162
O	0.45106	-2.225042	-1.437877
C	-1.942851	0.067647	-1.545062
N	-3.115328	0.158082	-1.566473
C	-0.510306	1.223148	0.754039
H	-0.148031	2.143849	0.294281
H	-0.112502	1.189793	1.770089
H	-1.602456	1.260244	0.810088
Cl	3.423978	0.0	0.0
