15

C	-0.529704	0.0257	-1.42895
C	0.0	0.0	0.0
Br	0.291286	1.449384	-2.453659
H	1.092083	0.0	0.0
H	-0.320669	0.942811	0.45508
N	-0.216068	-1.321921	-2.098438
O	0.910564	-1.495757	-2.526151
O	-1.130049	-2.144913	-2.062741
C	-1.977319	0.215403	-1.477271
N	-3.135193	0.418258	-1.452787
C	-0.524473	-1.1892	0.799095
H	-0.183461	-1.081886	1.830755
H	-0.114421	-2.127782	0.422574
H	-1.61601	-1.257196	0.796417
Cl	3.41978	0.0	0.0
