15

C	-0.469364	0.009889	-1.450169
C	0.0	0.0	0.0
Br	0.264594	-1.451218	-2.480317
H	1.092932	0.0	0.0
H	-0.334235	0.949156	0.43316
N	-2.012167	-0.091446	-1.425155
O	-2.546878	-1.167851	-1.641492
O	-2.575622	0.942185	-1.078602
C	-0.147781	1.257143	-2.134656
N	0.095366	2.260663	-2.697054
C	-0.530424	-1.176085	0.807154
H	-1.614059	-1.13593	0.952756
H	-0.27518	-2.126293	0.335473
H	-0.051594	-1.157351	1.787935
Cl	3.377885	0.0	0.0
