15

C	-0.473333	0.006699	-1.448058
C	0.0	0.0	0.0
Br	0.274347	-1.447271	-2.479191
H	1.092923	0.0	0.0
H	-0.334455	0.948408	0.434338
N	-2.014797	-0.110825	-1.418382
O	-2.586851	0.917153	-1.068484
O	-2.539041	-1.192063	-1.633421
C	-0.167905	1.256799	-2.133932
N	0.062494	2.262288	-2.697179
C	-0.525901	-1.177107	0.80932
H	-0.274772	-2.126668	0.334137
H	-1.608583	-1.136386	0.961882
H	-0.040865	-1.160635	1.787086
Cl	3.388029	0.0	0.0
