15

C	-0.422714	-0.002885	-1.448237
C	0.0	0.0	0.0
Br	-2.370625	0.272521	-1.655918
H	1.096661	0.0	0.0
H	-0.336213	0.943442	0.434962
N	0.215534	1.181853	-2.18866
O	0.700001	0.955776	-3.289344
O	0.15434	2.259048	-1.618078
C	-0.100445	-1.236542	-2.151334
N	0.100384	-2.273887	-2.666553
C	-0.509271	-1.202335	0.78053
H	-0.133295	-1.135043	1.803206
H	-1.601122	-1.249064	0.812986
H	-0.126754	-2.133114	0.356231
Cl	3.353122	0.0	0.0
