15

C	-0.42198	-0.006597	-1.447789
C	0.0	0.0	0.0
Br	-2.370866	0.269771	-1.655557
H	1.096776	0.0	0.0
H	-0.336202	0.944315	0.432882
N	0.21572	1.178314	-2.192363
O	0.156494	2.25561	-1.622684
O	0.696548	0.949203	-3.293792
C	-0.100236	-1.241152	-2.148436
N	0.102086	-2.27874	-2.662753
C	-0.508354	-1.200451	0.784257
H	-0.12601	-2.132128	0.36186
H	-1.600223	-1.247429	0.817491
H	-0.13153	-1.130752	1.80645
Cl	3.354844	0.0	0.0
