15

C	-0.421725	-0.002385	-1.446657
C	0.0	0.0	0.0
Br	-2.370952	0.275883	-1.657444
H	1.096758	0.0	0.0
H	-0.334842	0.943523	0.435801
N	0.217828	1.18231	-2.189578
O	0.688458	0.958379	-3.296701
O	0.168622	2.256893	-1.613463
C	-0.101061	-1.236629	-2.149679
N	0.144523	-2.267039	-2.659987
C	-0.509659	-1.202405	0.779893
H	-0.134165	-1.135513	1.802771
H	-1.601597	-1.248636	0.811504
H	-0.127126	-2.132962	0.355239
Cl	3.356299	0.0	0.0
