15

C	-0.472304	0.009073	-1.449351
C	0.0	0.0	0.0
Br	0.303103	-1.425123	-2.48631
H	1.092916	0.0	0.0
H	-0.337572	0.945646	0.437652
N	-2.01146	-0.131357	-1.423682
O	-2.519245	-1.218412	-1.648496
O	-2.599536	0.884732	-1.066021
C	-0.18447	1.269328	-2.124509
N	0.031698	2.282873	-2.678407
C	-0.523339	-1.182752	0.802623
H	-0.270552	-2.128939	0.321341
H	-0.038199	-1.171617	1.780708
H	-1.606223	-1.144618	0.955566
Cl	3.386268	0.0	0.0
