15

C	-0.466876	0.008529	-1.450812
C	0.0	0.0	0.0
Br	0.264128	-1.459069	-2.473715
H	1.092999	0.0	0.0
H	-0.33352	0.950409	0.430924
N	-2.009783	-0.087377	-1.428239
O	-2.547094	-1.16348	-1.638049
O	-2.570832	0.950541	-1.090294
C	-0.138369	1.25266	-2.137361
N	0.110865	2.253428	-2.70172
C	-0.532242	-1.173738	0.809137
H	-0.277444	-2.125058	0.339599
H	-0.054889	-1.153559	1.790702
H	-1.616074	-1.132401	0.953127
Cl	3.377556	0.0	0.0
