15

C	0.0	0.0	0.0
C	-0.319402	0.160112	-1.512577
Br	1.961265	0.0	0.0
H	0.484396	-0.374317	-2.040301
H	-0.331774	0.895377	0.522459
C	-0.526169	-1.27289	0.615242
H	-0.185735	-1.37407	1.648002
H	-1.620291	-1.208395	0.596617
H	-0.194423	-2.147294	0.049863
N	-0.339114	1.585729	-1.853118
H	0.621099	1.909426	-1.899976
H	-0.761554	1.715235	-2.765459
C	-1.50609	-0.524635	-2.058155
N	-2.170706	-1.152993	-2.798562
Br	-3.905891	0.0	0.0
