15

C	0.0	0.0	0.0
C	-0.543111	-0.08668	-1.435055
Br	1.954583	0.0	0.0
H	-1.634319	0.028141	-1.313608
H	-0.284583	0.966443	0.42049
C	-0.501196	-1.132305	0.873696
H	-1.594773	-1.139019	0.826828
H	-0.190068	-0.978457	1.908433
H	-0.101994	-2.091176	0.536691
N	-0.29384	-1.330491	-2.147157
H	-0.916348	-2.041534	-1.783052
H	0.665714	-1.626025	-2.000385
C	-0.059911	1.042786	-2.242839
N	0.313518	1.947465	-2.891371
Br	-3.846455	0.0	0.0
