14

C	0.0	0.0	0.0
C	-0.413483	-0.015773	-1.490946
Cl	1.732618	0.0	0.0
H	-1.495568	0.167789	-1.5873
H	0.091579	0.8466	-1.963043
N	-0.567844	1.117152	0.67073
O	-0.794695	2.15323	-0.035166
O	-0.197775	1.185798	1.89198
N	-0.400318	-1.374365	0.77443
O	0.506438	-2.089375	1.212584
O	-1.603915	-1.60535	0.914994
C	-0.116645	-1.268303	-2.16411
N	0.07615	-2.302129	-2.70133
H	-1.808124	0.0	0.0
