14

C	0.0	0.0	0.0
C	-0.363571	0.088058	-1.497169
Cl	1.729679	0.0	0.0
H	-0.25255	-0.925891	-1.877915
H	-1.416245	0.369893	-1.562919
N	-0.441582	1.271215	0.705501
O	-0.613055	2.247016	-0.028657
O	-0.402816	1.304607	1.929336
N	-0.557598	-1.236138	0.606831
O	-0.656576	-1.336903	1.835276
O	-0.487385	-2.214847	-0.169016
C	0.464512	0.985974	-2.300653
N	1.002748	1.69179	-3.069594
H	-2.179741	0.0	0.0
