14

C	0.0	0.0	0.0
C	-0.377123	-0.037155	-1.493792
Cl	1.731464	0.0	0.0
H	-0.180113	0.963	-1.880559
H	-1.456197	-0.21895	-1.522123
N	-0.501039	1.272409	0.635996
O	-0.504395	1.343363	1.863794
O	-0.583418	2.245949	-0.126122
N	-0.491281	-1.245257	0.699791
O	-0.459889	-1.285267	1.926413
O	-0.624175	-2.224482	-0.042138
C	0.35508	-1.009771	-2.293453
N	0.913913	-1.738983	-3.025649
H	-2.230128	0.0	0.0
