18

C	-0.479963	-0.006858	-1.426854
C	0.0	0.0	0.0
F	-1.801915	-0.103395	-1.578304
H	1.090776	0.0	0.0
N	-0.061918	1.325194	-2.073559
O	1.13714	1.565294	-2.060993
O	-0.960402	2.023493	-2.523822
N	0.163429	-1.073305	-2.31958
O	-0.524929	-1.475	-3.248279
O	1.311246	-1.383528	-2.054556
N	-0.422651	-1.281018	0.632202
O	-0.725347	-2.224083	-0.106314
O	-0.306013	-1.35166	1.853935
C	-0.565165	1.172137	0.773506
H	-1.656606	1.216228	0.703642
H	-0.281358	1.073577	1.819741
H	-0.145665	2.107951	0.399523
Cl	2.688324	0.0	0.0
