14

C	-0.403349	-0.127991	-1.453357
C	0.0	0.0	0.0
F	-0.164503	1.105782	-2.07916
H	1.088704	0.0	0.0
H	-1.471814	-0.32287	-1.594628
H	-0.381133	-0.860538	0.560079
C	0.501223	-1.164196	-2.090089
H	0.22345	-2.168836	-1.755391
H	0.421076	-1.122887	-3.178753
H	1.520857	-0.947472	-1.753522
N	-0.646776	1.187653	0.610768
O	-1.869219	1.304477	0.458456
O	0.039935	1.977427	1.25269
F	2.663576	0.0	0.0
