14

C	-0.469701	-0.022452	-1.440243
C	0.0	0.0	0.0
F	-0.12976	-1.290482	-1.937088
H	1.089792	0.0	0.0
H	0.102439	0.705722	-2.017148
H	-0.39478	-0.850975	0.556088
C	-1.959337	0.14702	-1.652934
H	-2.501234	-0.611297	-1.081604
H	-2.280667	1.137949	-1.332176
H	-2.204528	0.022806	-2.711103
N	-0.443087	1.20877	0.684673
O	-0.48258	2.262975	0.03516
O	-0.69922	1.146412	1.890753
F	2.555098	0.0	0.0
