14

C	-0.447645	0.012613	-1.448472
C	0.0	0.0	0.0
F	-0.134751	-1.257999	-1.957153
H	1.089735	0.0	0.0
H	0.158475	0.7308	-2.003186
H	-0.405122	-0.861635	0.530844
C	-1.926697	0.231488	-1.688706
H	-2.222742	1.229251	-1.364325
H	-2.152545	0.126399	-2.753391
H	-2.505064	-0.5146	-1.137091
N	-0.444904	1.196629	0.703518
O	-0.744156	1.106644	1.898156
O	-0.443854	2.267931	0.082006
F	2.555421	0.0	0.0
