16

C	-0.516049	0.078062	-1.434043
C	0.0	0.0	0.0
Cl	-0.316959	-1.499312	-2.302411
H	1.101224	0.0	0.0
H	-1.596187	0.248083	-1.404566
C	0.209544	1.153619	-2.215312
H	-0.159852	1.211588	-3.241567
H	1.279861	0.938562	-2.222296
H	0.048202	2.1085	-1.714388
N	-0.566178	-1.149144	0.715396
H	-0.030977	-1.238347	1.574597
H	-0.368694	-1.990025	0.183317
N	-0.423465	1.237558	0.654912
H	0.314669	1.548175	1.274514
H	-1.24891	1.024629	1.20542
Br	3.665042	0.0	0.0
