16

C	-0.539177	0.074732	-1.424435
C	0.0	0.0	0.0
Cl	-0.025164	-1.368234	-2.356986
H	1.100016	0.0	0.0
H	-1.632049	0.029371	-1.3794
C	-0.069946	1.318971	-2.158788
H	-0.366863	1.286721	-3.208666
H	1.019791	1.384929	-2.102084
H	-0.517622	2.209293	-1.7093
N	-0.479551	-1.187461	0.672629
H	0.197407	-1.479277	1.365333
H	-1.360612	-0.976325	1.129147
N	-0.490274	1.212704	0.708179
H	-0.198832	1.090095	1.674234
H	0.055794	2.005517	0.380289
Br	3.658682	0.0	0.0
