16

C	-0.470093	0.092127	-1.454557
C	0.0	0.0	0.0
Cl	-0.219102	-1.45446	-2.326708
H	1.096118	0.0	0.0
H	-1.555796	0.253682	-1.470095
C	0.268108	1.183417	-2.212924
H	-0.025237	1.198673	-3.264614
H	1.343587	1.005669	-2.137133
H	0.051674	2.164677	-1.782568
N	-0.508634	-1.191013	0.664236
H	0.226102	-1.544887	1.263005
H	-1.261981	-0.890236	1.269429
N	-0.421441	1.22628	0.709087
H	0.398986	1.787334	0.90589
H	-1.052136	1.787199	0.148827
Br	3.632747	0.0	0.0
