16

C	-0.403042	-0.003881	-1.461455
C	0.0	0.0	0.0
Cl	-2.223724	-0.056899	-1.602448
H	1.096814	0.0	0.0
H	-0.124789	0.96155	-1.883716
C	0.203377	-1.153038	-2.230959
H	-0.14021	-2.100251	-1.816578
H	-0.051362	-1.096442	-3.292558
H	1.29014	-1.094853	-2.11023
N	-0.408716	-1.247709	0.640619
H	-1.381432	-1.189643	0.923726
H	0.162845	-1.390209	1.46553
N	-0.423322	1.250204	0.624006
H	-1.410747	1.203709	0.854601
H	0.100851	1.374314	1.482062
Br	3.623933	0.0	0.0
