17

C	-0.554249	0.030654	-1.415053
C	0.0	0.0	0.0
Cl	0.300031	1.317338	-2.312212
H	1.087368	0.0	0.0
N	-0.165965	-1.261434	-2.191266
O	-0.875775	-1.527782	-3.161056
O	0.809957	-1.889545	-1.819115
N	-1.947617	0.283548	-1.494866
H	-2.230462	0.295715	-2.467387
H	-2.41093	-0.489035	-1.027446
N	-0.499122	-1.228817	0.703874
O	-0.045058	-1.453071	1.816796
O	-1.338791	-1.953163	0.141346
N	-0.404865	1.143444	0.765572
H	0.407838	1.730681	0.891478
H	-1.157192	1.64976	0.317945
F	2.525537	0.0	0.0
