17

C	-0.11055	-0.159835	-1.547309
C	0.0	0.0	0.0
Cl	-1.682928	-0.847762	-2.148921
H	1.091235	0.0	0.0
N	-0.151028	1.313625	-2.163862
O	0.833859	1.638283	-2.823082
O	-1.120438	2.033838	-1.946077
N	0.986403	-0.867938	-1.977179
H	1.160941	-0.782676	-2.966914
H	1.814454	-0.638562	-1.375656
N	-0.534456	-1.260261	0.603806
O	-1.658056	-1.210842	1.104854
O	0.165954	-2.26755	0.546969
N	-0.549359	1.122738	0.66251
H	-1.450738	1.399904	0.303908
H	0.104469	1.88998	0.606635
F	2.637348	0.0	0.0
