17

C	-0.67178	0.065928	-1.36393
C	0.0	0.0	0.0
Cl	0.09091	1.482754	-2.254249
H	1.094711	0.0	0.0
N	-0.337923	-1.096945	-2.293136
O	0.814433	-1.489732	-2.303527
O	-1.25065	-1.492292	-3.016886
N	-2.061691	0.175428	-1.23148
H	-2.235912	0.979356	-0.637855
H	-2.52213	0.263091	-2.127202
N	-0.466509	-1.222446	0.701012
O	-0.597588	-2.250555	0.040276
O	-0.642958	-1.16656	1.922226
N	-0.405222	1.188085	0.742558
H	0.459447	1.677229	0.948006
H	-0.778361	0.877459	1.632944
F	2.500627	0.0	0.0
