17

C	-0.509462	0.023346	-1.433665
C	0.0	0.0	0.0
Cl	0.419466	-1.051708	-2.495725
H	1.092787	0.0	0.0
N	-1.998725	-0.443836	-1.480779
O	-2.66046	-0.093296	-0.506434
O	-2.441866	-0.993426	-2.476416
N	-0.536644	1.352704	-1.94262
H	-0.249578	1.972441	-1.190197
H	0.049981	1.440894	-2.758137
N	-0.430222	-1.236581	0.708555
O	-0.653367	-2.249395	0.043021
O	-0.484147	-1.189335	1.938432
N	-0.328371	1.190809	0.724076
H	-1.210992	1.112066	1.21132
H	0.421292	1.355996	1.382799
F	2.506653	0.0	0.0
