17

C	-0.572982	0.04107	-1.406602
C	0.0	0.0	0.0
Cl	0.279723	1.322921	-2.312604
H	1.087324	0.0	0.0
N	-0.213481	-1.248776	-2.199336
O	0.771674	-1.88106	-1.860604
O	-0.952425	-1.507287	-3.148869
N	-1.965122	0.310398	-1.459543
H	-2.266586	0.32893	-2.426186
H	-2.429514	-0.457888	-0.986379
N	-0.515716	-1.211069	0.716239
O	-1.325379	-1.959128	0.139532
O	-0.101778	-1.403541	1.849445
N	-0.36989	1.160526	0.761822
H	0.462957	1.721703	0.877087
H	-1.106733	1.687885	0.312906
F	2.52057	0.0	0.0
