13

C	-0.392397	-0.009288	-1.460722
C	0.0	0.0	0.0
F	-1.79205	-0.091942	-1.613722
H	1.093913	0.0	0.0
H	-0.094555	0.938584	-1.919357
H	-0.331055	-0.926751	0.480235
C	0.256611	-1.168957	-2.17661
H	1.337831	-1.110726	-2.017226
H	0.026643	-1.143588	-3.244837
H	-0.111172	-2.111707	-1.762083
C	-0.54237	1.138886	0.722367
N	-0.977181	2.064597	1.300612
H	2.842994	0.0	0.0
