13

C	-0.497305	-0.021008	-1.436008
C	0.0	0.0	0.0
F	-0.270385	1.227539	-2.019997
H	1.093097	0.0	0.0
H	0.120189	-0.739461	-1.986438
H	-0.288648	-0.940089	0.486447
C	-1.974077	-0.325431	-1.593275
H	-2.205494	-1.318989	-1.199281
H	-2.257829	-0.291797	-2.648477
H	-2.565505	0.416367	-1.050173
C	-0.569743	1.104496	0.753865
N	-1.047781	1.988488	1.362842
H	2.837069	0.0	0.0
