13

C	-0.378561	0.016121	-1.464477
C	0.0	0.0	0.0
F	-1.770235	0.172131	-1.634776
H	1.094202	0.0	0.0
H	0.083731	0.903105	-1.909162
H	-0.337471	0.916921	0.492016
C	0.075768	-1.226946	-2.188855
H	1.154211	-1.332742	-2.041186
H	-0.429173	-2.105982	-1.782387
H	-0.148454	-1.152679	-3.255801
C	-0.533847	-1.152508	0.707209
N	-0.960481	-2.088626	1.275272
H	2.831721	0.0	0.0
