13
Coordinates from ORCA-job run
  C   0.95341336012790     -0.29204732844325      0.48938024143201
  C   -0.44536058084203     -0.79347121714941      0.16645333283518
  H   1.67536225251173     -1.10868467572119      0.53687264306224
  H   -0.39540205982862     -1.40513568106263     -0.73751985347561
  H   0.98368513766140      0.29873662492512      1.40398086385566
  H   -0.75477817339608     -1.45036101930535      0.98556062560525
  N   1.41487193837229      0.61151989662364     -0.60518011659269
  O   1.56649219509378      1.80278250552226     -0.34171161807720
  O   1.57218194323072      0.09739885120513     -1.71035744716427
  C   -1.44758483918728      0.34230204820598     -0.01124959039005
  H   -1.47200034827234      0.99069852038145      0.86823687001176
  H   -2.45299317399218     -0.05293064458780     -0.16811344127606
  H   -1.19788765147929      0.96019211940603     -0.87635250982622
