13
Coordinates from ORCA-job run
  C   0.81102024949854     -0.41202716256559     -0.63760769354493
  C   -0.45030953587679     -0.79968040951173      0.11782780718907
  H   1.52199654318341     -1.23800967735571     -0.68884119159184
  H   -0.16155313042451     -1.21014911637359      1.08840585125055
  H   0.59882830827750     -0.02706552557401     -1.63418435551584
  H   -0.93363689650654     -1.60549777383832     -0.44360499670928
  N   1.50193027835338      0.68924382182359      0.09529727147963
  O   1.94410001591259      0.41365962183492      1.20837800775095
  O   1.54666817658132      1.79566090262713     -0.43884799371438
  C   -1.40867800242261      0.37306720130603      0.29725833899064
  H   -1.66092871117498      0.82961863209758     -0.66319140414814
  H   -2.33618744296995      0.04343889881308      0.76916921021950
  H   -0.97324985243137      1.14774058671661      0.93194114834408
