15

C	0.0	0.0	0.0
C	-0.418884	0.145004	-1.512086
Br	1.962423	0.0	0.0
H	0.488842	0.133043	-2.120951
C	-0.395323	1.174625	0.782722
N	-0.51527	2.115677	1.477536
C	-0.416191	-1.203348	0.720802
N	-0.58526	-2.145932	1.403327
N	-1.154222	1.320205	-1.739944
H	-1.366358	1.404981	-2.724752
H	-2.006998	1.162516	-1.179071
N	-1.105638	-1.147012	-1.988991
O	-2.077761	-1.037344	-2.72395
O	-0.530644	-2.197126	-1.712935
F	-2.356633	0.0	0.0
