15

C	0.0	0.0	0.0
C	-0.245853	-0.143467	-1.607037
Br	1.957257	0.0	0.0
H	0.535989	0.470588	-2.051417
C	-0.442492	1.337574	0.376497
N	-0.636847	2.478187	0.587296
C	-0.49038	-1.03865	0.891596
N	-0.650714	-1.877326	1.701126
N	-1.497592	0.116015	-2.183367
H	-1.52488	1.094328	-2.439756
H	-2.200311	-0.031063	-1.390622
N	0.157136	-1.557835	-1.986208
O	1.025432	-1.677832	-2.849506
O	-0.463608	-2.481053	-1.46894
F	-2.516019	0.0	0.0
