15

C	0.0	0.0	0.0
C	-0.237609	-0.000327	-1.605529
Br	1.957854	0.0	0.0
H	0.532575	0.670205	-1.986428
C	-0.440199	1.304305	0.49052
N	-0.610642	2.412007	0.846465
C	-0.484068	-1.086612	0.840955
N	-0.691284	-1.934266	1.629607
N	-1.483879	0.299014	-2.175206
H	-2.190869	0.125026	-1.395867
H	-1.49613	1.280084	-2.421912
N	0.212113	-1.361735	-2.138051
O	0.723331	-1.346268	-3.25325
O	-0.013063	-2.369188	-1.473559
F	-2.48879	0.0	0.0
