15

C	0.0	0.0	0.0
C	-0.414887	0.299073	-1.488981
Br	1.959457	0.0	0.0
H	0.494297	0.347118	-2.093655
C	-0.388599	1.094988	0.893596
N	-0.525401	1.968646	1.668368
C	-0.427123	-1.26375	0.600182
N	-0.559049	-2.268415	1.197506
N	-1.140841	1.497299	-1.601751
H	-1.357143	1.66967	-2.575227
H	-1.994163	1.299299	-1.056707
N	-1.107007	-0.92906	-2.104702
O	-2.042399	-0.729313	-2.867737
O	-0.56377	-2.01389	-1.91289
F	-2.347467	0.0	0.0
