15

C	-0.467381	0.002563	-1.456072
C	0.0	0.0	0.0
Br	0.141513	-1.606926	-2.378318
H	1.094867	0.0	0.0
H	-0.001221	0.831501	-1.984502
C	-1.919391	0.086649	-1.575472
N	-3.09077	0.157906	-1.63874
C	-0.54649	-1.122935	0.851565
H	-0.128648	-1.046244	1.852859
H	-0.236401	-2.076655	0.425241
H	-1.638144	-1.090059	0.915586
N	-0.385997	1.333001	0.583781
O	-0.527633	2.281425	-0.191014
O	-0.491964	1.411608	1.803473
Cl	3.249867	0.0	0.0
