15

C	-0.559766	0.034477	-1.415369
C	0.0	0.0	0.0
Br	0.237128	1.465876	-2.476285
H	1.090572	0.0	0.0
H	-1.62644	0.260832	-1.386858
C	-0.359611	-1.232118	-2.105851
N	-0.262042	-2.264638	-2.658279
C	-0.492174	-1.207518	0.788337
H	-0.094318	-2.119455	0.342602
H	-1.585569	-1.258356	0.813619
H	-0.104887	-1.13458	1.805309
N	-0.476006	1.218438	0.736019
O	-1.494639	1.788749	0.336741
O	0.146063	1.524381	1.747335
Cl	3.290777	0.0	0.0
