15

C	-0.467279	-0.038773	-1.456287
C	0.0	0.0	0.0
Br	0.125418	-1.682747	-2.32905
H	1.093132	0.0	0.0
H	0.006574	0.769575	-2.008967
C	-1.918379	0.054051	-1.579396
N	-3.089511	0.110558	-1.657817
C	-0.548564	-1.093428	0.888213
H	-1.64062	-1.060257	0.944978
H	-0.234703	-2.061015	0.497315
H	-0.13633	-0.980836	1.888854
N	-0.384385	1.349827	0.544462
O	-0.535216	2.272452	-0.259304
O	-0.479492	1.467525	1.762357
Cl	3.250264	0.0	0.0
