13
Coordinates from ORCA-job run
  C   -0.53634610733476      0.06387358914568      0.10693824708823
  C   0.62673135686443     -0.49799287814686     -0.28155427439363
  H   0.58140297196035     -1.52297813256496     -0.64844786771185
  C   -0.54550685634368      1.41301606842299      0.60151305256766
  N   -0.58133719858512      2.51622706294380      1.00952413059355
  C   -1.86927552758882     -0.63489172689971      0.06402386711816
  H   -2.57186001146288     -0.09273651786322     -0.57379834176830
  H   -1.75422760848053     -1.64753261226327     -0.32578070843641
  H   -2.30892582053312     -0.69256011774834      1.06286425265547
  C   1.97145700715918      0.15430590431371     -0.25504765764316
  H   1.92123474243882      1.17568073368319      0.12463282642031
  H   2.66104031814147     -0.41556037411861      0.37469740249652
  H   2.40461273376463      0.18014900109560     -1.25956492898654
