13
Coordinates from ORCA-job run
  C   -0.54505929225946      0.07239085200071      0.03031119622037
  C   0.66004000802705     -0.53272093739387      0.00198096098712
  H   0.67107968020889     -1.61794559701698      0.09853253875750
  C   -0.62743974294858      1.50158792253427     -0.09268990972488
  N   -0.72386226996306      2.67027192290303     -0.19167934400438
  C   -1.85372818381088     -0.65527596688437      0.18716037410230
  H   -2.38072689658617     -0.31621385709024      1.08283056107306
  H   -2.50717934281166     -0.46924168105788     -0.66931470974761
  H   -1.68208979885701     -1.73013969920634      0.26838993097057
  C   1.98332263685197      0.14609626941046     -0.15002511252072
  H   2.50416409242360     -0.22595678717252     -1.03723584333428
  H   2.62414154884931     -0.07014337058436      0.71007620503440
  H   1.87933756087600      1.22829092955809     -0.23933684781346
