13
Coordinates from ORCA-job run
  C   -0.49837069424176      0.47669823416556      0.24855620761173
  C   0.85057086193436      0.41675962730562      0.28184772323722
  H   1.36943963879053      1.23534141603240      0.77842525556486
  C   -1.13141408435785      1.60980799384849      0.86776108037307
  N   -1.68028161388249      2.52378382754622      1.36526912646928
  C   -1.44339323911612     -0.51897833765220     -0.37064881481087
  H   -2.12835488906842     -0.91056080509392      0.38577210283548
  H   -0.91406329706134     -1.35611029844778     -0.82234625224598
  H   -2.04954679647415     -0.03640390012856     -1.14153621194146
  C   1.72084709269561     -0.65610781694055     -0.29074378461438
  H   2.41341197471235     -0.22862507166225     -1.02198631096552
  H   2.33238921068448     -1.10571401755752      0.49731054277655
  H   1.15976583538479     -1.45089085141549     -0.77968066428999
