13
Coordinates from ORCA-job run
  C   -0.48696971517710      0.48739835355979      0.24969759837643
  C   0.86131162108259      0.45156375006030      0.17675695816643
  H   1.39956031362439      1.31628530071288      0.56206863210064
  C   -1.09306630521790      1.65756462115368      0.82545122936277
  N   -1.62001480610401      2.60068862993231      1.29121448474779
  C   -1.45690431654678     -0.56980463291860     -0.20791306460466
  H   -2.13425132752590     -0.16051075833619     -0.96179594101119
  H   -0.94821451744643     -1.43315282198813     -0.63314081179629
  H   -2.06974143455638     -0.90861036498404      0.63136524992167
  C   1.70629810044751     -0.65070001920137     -0.37725630763262
  H   2.32675521870159     -0.27439034880953     -1.19616783456105
  H   1.12517055952629     -1.49189362582302     -0.75156027857310
  H   2.39006660919214     -1.02343808335808      0.39128008550317
