13
Coordinates from ORCA-job run
  C   -0.46809035897829      0.44470842754926      0.34723997069755
  C   0.87781324684705      0.34199281962088      0.29894103231587
  H   1.44913085171476      1.05575349619127      0.89056904070928
  C   -1.02908421608220      1.48106712395749      1.17140973917378
  N   -1.51979987492984      2.31865681034477      1.83603687494126
  C   -1.47733457861135     -0.41176325287142     -0.37099420749256
  H   -2.13666504001892     -0.90329886494294      0.34905050148343
  H   -1.00144527463988     -1.17712698636259     -0.98143571115561
  H   -2.10463421976271      0.20656671525754     -1.01822762182412
  C   1.67971325779063     -0.64954435740070     -0.48201912290006
  H   2.34729222992079     -0.13104842298231     -1.17680930639766
  H   1.06698055893452     -1.34345593502448     -1.05528251697349
  H   2.31612341781542     -1.23250757333678      0.19052132742232
