16

C	-0.555643	0.067371	-1.405921
C	0.0	0.0	0.0
F	-0.271257	-1.105755	-2.052416
H	1.096013	0.0	0.0
H	-0.341957	-0.968342	0.382783
C	-2.040393	0.331207	-1.507287
H	-2.565813	-0.478142	-0.997119
H	-2.286449	1.269201	-1.017789
H	-2.338893	0.349186	-2.558863
N	0.132107	1.168064	-2.206893
O	0.068368	2.290922	-1.713887
O	0.613118	0.894712	-3.297221
N	-0.562864	1.06144	0.85713
H	-0.252084	0.843152	1.798586
H	-0.066486	1.911282	0.607986
H	2.983631	0.0	0.0
