16

C	-0.421092	-0.022194	-1.445857
C	0.0	0.0	0.0
F	-0.070738	1.149012	-2.055723
H	1.093588	0.0	0.0
H	-0.34659	-0.924956	0.465745
C	0.167746	-1.179864	-2.214452
H	1.252187	-1.131932	-2.082102
H	-0.090345	-1.093583	-3.273459
H	-0.205572	-2.125518	-1.821223
N	-1.944139	-0.089189	-1.538398
O	-2.545141	0.783383	-2.152538
O	-2.468346	-1.055394	-0.983265
N	-0.562135	1.179932	0.666851
H	-0.890514	0.913023	1.586291
H	0.203543	1.832951	0.807409
H	2.988819	0.0	0.0
