16

C	-0.471822	0.079187	-1.429937
C	0.0	0.0	0.0
F	-1.852768	0.236952	-1.490602
H	1.090236	0.0	0.0
H	-0.380499	-0.923049	0.451584
C	0.201336	1.163311	-2.214722
H	-0.130667	1.158202	-3.254484
H	1.281997	1.022344	-2.152212
H	-0.064646	2.104833	-1.735154
N	-0.23575	-1.281189	-2.077349
O	0.656048	-1.389577	-2.913965
O	-0.963647	-2.196782	-1.698208
N	-0.407283	1.217337	0.701568
H	0.366546	1.493663	1.294798
H	-1.221641	1.049798	1.276075
H	2.920696	0.0	0.0
