16

C	-0.478602	0.113365	-1.424468
C	0.0	0.0	0.0
F	-1.869037	0.16631	-1.477385
H	1.093163	0.0	0.0
H	-0.37012	-0.941365	0.420047
C	0.098344	1.281709	-2.163403
H	1.186717	1.218444	-2.128864
H	-0.252206	1.300037	-3.196464
H	-0.227646	2.176153	-1.634105
N	-0.146644	-1.195026	-2.134811
O	0.66392	-1.180524	-3.057372
O	-0.733654	-2.19627	-1.726039
N	-0.424784	1.188675	0.743119
H	0.347704	1.455295	1.342354
H	-1.227106	0.983698	1.32127
H	2.925305	0.0	0.0
