16

C	-0.549411	0.105433	-1.406781
C	0.0	0.0	0.0
F	-0.315861	-1.073552	-2.064408
H	1.093188	0.0	0.0
H	-0.34948	-0.973167	0.361712
C	-2.019011	0.441962	-1.516234
H	-2.221319	1.394765	-1.033644
H	-2.587366	-0.33617	-1.002764
H	-2.310036	0.468232	-2.570109
N	0.200047	1.180352	-2.187334
O	0.689472	0.891065	-3.269492
O	0.191556	2.299074	-1.677196
N	-0.553631	1.050585	0.876085
H	-0.026832	1.891144	0.663325
H	-0.270222	0.798661	1.817442
H	2.980417	0.0	0.0
