14

C	0.0	0.0	0.0
C	-0.520916	0.045254	-1.418022
F	1.356805	0.0	0.0
H	-0.245444	0.988202	-1.882172
H	-1.615969	-0.067745	-1.378162
N	-0.364482	1.312614	0.718362
O	-0.46447	1.258283	1.93495
O	-0.381132	2.322008	0.025
C	-0.447179	-1.128176	0.822963
N	-0.5939	-2.06334	1.519139
N	0.065385	-1.03398	-2.24858
O	0.11291	-0.813882	-3.457421
O	0.426293	-2.0748	-1.699813
Cl	-3.326876	0.0	0.0
