14

C	0.0	0.0	0.0
C	-0.578119	-0.119705	-1.391447
F	1.349097	0.0	0.0
H	-0.478223	-1.146283	-1.745084
H	-1.652551	0.125354	-1.331754
N	-0.388568	1.322844	0.675802
O	-0.919424	2.186889	-0.00089
O	-0.042036	1.403908	1.850107
C	-0.456227	-1.105546	0.853086
N	-0.609294	-2.083012	1.487097
N	0.090361	0.733611	-2.410962
O	0.861784	1.621955	-2.0629
O	-0.212733	0.47511	-3.572887
Cl	-3.412421	0.0	0.0
