14

C	0.0	0.0	0.0
C	-0.159904	0.22758	-1.521227
F	1.363703	0.0	0.0
H	0.409056	1.13533	-1.708925
H	0.343555	-0.629114	-1.968944
N	-0.356525	1.192849	0.868052
O	-0.330787	2.285615	0.317476
O	-0.457597	0.972558	2.066727
C	-0.476584	-1.253409	0.569712
N	-0.506371	-2.344895	1.010496
N	-1.414113	0.39192	-2.30566
O	-1.841379	-0.611221	-2.868404
O	-1.807095	1.539501	-2.480228
Cl	-2.935487	0.0	0.0
