14

C	0.0	0.0	0.0
C	-0.176088	-0.267968	-1.512636
F	1.3467	0.0	0.0
H	0.439946	0.496037	-1.983135
H	0.270694	-1.25095	-1.662234
N	-0.362576	1.406478	0.444465
O	-0.332847	2.267283	-0.424623
O	-0.471677	1.577369	1.650574
C	-0.480499	-1.005058	0.941884
N	-0.508563	-1.899155	1.707581
N	-1.431777	-0.281005	-2.311827
O	-1.885795	-1.386203	-2.589359
O	-1.80178	0.790086	-2.77474
Cl	-2.955769	0.0	0.0
