14

C	0.0	0.0	0.0
C	-0.531768	-0.109018	-1.409648
F	1.341522	0.0	0.0
H	-1.631698	-0.174811	-1.355058
H	-0.224239	0.757979	-1.987824
N	-0.364556	1.388295	0.566252
O	-0.408812	2.308552	-0.239877
O	-0.424388	1.478591	1.782947
C	-0.455264	-1.021798	0.950266
N	-0.601749	-1.85286	1.766416
N	0.002153	-1.304238	-2.10621
O	0.390699	-2.258949	-1.437585
O	-0.020161	-1.260734	-3.334223
Cl	-3.331439	0.0	0.0
