17

C	-0.496835	0.004319	-1.446098
C	0.0	0.0	0.0
Br	0.159292	-1.619734	-2.265134
H	1.089476	0.0	0.0
N	-2.037877	0.033451	-1.491496
O	-2.489589	0.984707	-0.860951
O	-2.667353	-0.794372	-2.122133
N	-0.120594	1.105196	-2.272525
H	-0.303524	1.973748	-1.78182
H	0.864482	1.05496	-2.501274
N	-0.457142	-1.184241	0.776047
O	0.365868	-1.670297	1.546654
O	-1.596796	-1.602482	0.571404
N	-0.413775	1.207193	0.776664
O	0.04785	2.27053	0.363128
O	-1.076332	1.053901	1.798749
Br	2.74689	0.0	0.0
