17

C	-0.392672	0.047467	-1.481042
C	0.0	0.0	0.0
Br	-0.057095	-1.777554	-2.282682
H	1.11732	0.0	0.0
N	-1.917491	0.116857	-1.773855
O	-2.621805	-0.651056	-1.128834
O	-2.221915	0.562576	-2.882432
N	0.317822	0.995218	-2.236512
H	0.107964	0.92757	-3.221698
H	1.313185	0.82014	-2.098711
N	-0.469374	-1.103624	0.888463
O	0.438742	-1.629994	1.559419
O	-1.64432	-1.068776	1.26664
N	-0.233864	1.245392	0.755871
O	-0.086933	1.150213	1.98244
O	0.003825	2.287651	0.129544
Br	2.819838	0.0	0.0
