17

C	-0.424879	0.009303	-1.496426
C	0.0	0.0	0.0
Br	0.819669	-1.076371	-2.550057
H	1.117111	0.0	0.0
N	-1.814358	-0.509536	-1.734014
O	-2.084271	-0.660127	-3.011315
O	-2.714229	0.144984	-1.04808
N	-0.405127	1.348821	-2.086281
H	-1.105606	1.956089	-1.633898
H	0.523849	1.760419	-1.915725
N	-0.367318	-1.221645	0.734893
O	-0.018929	-1.156308	2.005008
O	0.025956	-2.306841	0.095255
N	-0.457598	1.188224	0.766597
O	0.43593	1.55945	1.665366
O	-1.680291	1.060541	1.222796
Br	2.644593	0.0	0.0
