17

C	-0.530746	0.042138	-1.439443
C	0.0	0.0	0.0
Br	0.563326	1.240113	-2.593206
H	1.116452	0.0	0.0
N	-0.17779	-1.405822	-1.879576
O	1.00047	-1.668447	-2.063144
O	-1.119939	-2.213126	-1.901025
N	-1.902432	0.299388	-1.590649
H	-2.07034	1.246344	-1.274578
H	-2.179309	0.230715	-2.56128
N	-0.539197	-1.060889	0.899768
O	-1.768298	-1.206603	0.988178
O	0.289338	-1.620488	1.622148
N	-0.168489	1.237191	0.796253
O	-0.007909	2.314744	0.200441
O	-0.258225	1.133629	2.024261
Br	2.943645	0.0	0.0
