15

C	-0.231331	-0.001675	-1.501362
C	0.0	0.0	0.0
Cl	-1.98161	0.267153	-1.996187
H	1.097554	0.0	0.0
H	0.315922	0.839211	-1.930464
C	0.206305	-1.229655	-2.16044
N	0.506452	-2.213973	-2.724591
C	-0.600309	-1.195832	0.704537
H	-0.224643	-2.131869	0.282171
H	-0.304011	-1.15263	1.753913
H	-1.697397	-1.201921	0.655595
N	-0.411955	1.249374	0.627904
H	-1.288168	1.591811	0.245454
H	0.314372	1.935901	0.45675
F	2.61329	0.0	0.0
