15

C	-0.581215	0.016773	-1.40998
C	0.0	0.0	0.0
Cl	-0.044022	-1.380836	-2.406346
H	1.100408	0.0	0.0
H	-1.672984	-0.045969	-1.35854
C	-0.243621	1.247116	-2.124363
N	0.022479	2.226802	-2.713215
C	-0.5231	-1.18893	0.779509
H	-0.274482	-2.127705	0.283694
H	-1.611823	-1.133952	0.92272
H	-0.037891	-1.204436	1.759321
N	-0.505393	1.25655	0.607879
H	0.24229	1.935775	0.482045
H	-0.56823	1.105334	1.609564
F	2.664677	0.0	0.0
