15

C	-0.395165	-0.01471	-1.454743
C	0.0	0.0	0.0
Cl	-2.205082	0.117443	-1.72106
H	1.102845	0.0	0.0
H	0.023249	0.875494	-1.924399
C	0.053235	-1.209637	-2.166439
N	0.37648	-2.179629	-2.743827
C	-0.504322	-1.198231	0.783763
H	-0.05349	-1.170796	1.77929
H	-1.59707	-1.198961	0.891934
H	-0.200925	-2.138266	0.313747
N	-0.376496	1.296343	0.565702
H	0.38636	1.576149	1.171613
H	-1.224371	1.222008	1.117216
F	2.616907	0.0	0.0
