12

C	0.0	0.0	0.0
C	-0.534781	0.449942	-1.335379
F	1.411596	0.0	0.0
H	-0.213532	1.47971	-1.511863
H	-0.144345	-0.182596	-2.132066
H	-1.628281	0.393797	-1.29296
N	-0.503396	0.793067	1.041884
H	-0.546285	1.776008	0.827743
H	-0.088288	0.598788	1.940228
C	-0.318088	-1.426495	0.268821
N	-0.449466	-2.570628	0.494915
Cl	-4.008934	0.0	0.0
