12

C	0.0	0.0	0.0
C	-0.40242	-0.251252	-1.443413
F	1.400228	0.0	0.0
H	0.045778	-1.176896	-1.80733
H	-1.487794	-0.29305	-1.506717
H	-0.016854	0.581921	-2.039295
N	-0.510767	1.21308	0.549061
H	-0.942732	1.741872	-0.19705
H	-1.283813	0.9946	1.170525
C	-0.33165	-1.157831	0.870271
N	-0.474678	-2.082292	1.578988
Cl	-3.629108	0.0	0.0
