12

C	0.0	0.0	0.0
C	-0.463699	-0.309447	-1.405785
F	1.386423	0.0	0.0
H	-0.015033	-1.247205	-1.738166
H	-1.551539	-0.381623	-1.418141
H	-0.128061	0.507353	-2.047876
N	-0.49616	1.265307	0.429779
H	-0.331645	1.37349	1.42551
H	-1.51205	1.232253	0.29439
C	-0.325723	-1.125687	0.931185
N	-0.485474	-2.024139	1.670141
Cl	-3.609613	0.0	0.0
