18

C	0.0	0.0	0.0
C	-0.57152	0.034331	-1.441003
Br	1.926095	0.0	0.0
H	-1.672848	-0.064955	-1.224713
N	-0.597008	1.20213	0.655127
O	-1.772988	0.912157	1.14536
O	-0.244565	2.337966	0.266866
N	-0.400609	-1.135063	0.775871
H	-1.420427	-1.092403	0.812692
H	-0.130124	-1.978974	0.290094
N	-0.182693	-1.209544	-2.140531
O	-0.713933	-2.270496	-1.783797
O	0.672155	-1.139624	-3.032298
C	-0.266345	1.236616	-2.302791
H	-0.65833	1.064223	-3.308771
H	0.803437	1.430617	-2.371546
H	-0.749934	2.10762	-1.864464
H	-2.87046	0.0	0.0
