13
Coordinates from ORCA-job run
  C   1.12129521353120      0.31722489083206     -0.10617845332903
  C   -0.28737278212775     -0.17292144021772     -0.48853253058181
  Cl  2.19634979113940      0.32768212885341     -1.52817400262663
  H   -0.17865393153037     -1.16044152983473     -0.95004566639030
  H   1.06717304786967      1.34665146714626      0.25793568915330
  C   1.69072112859921     -0.53091509735712      0.93739189312311
  N   2.11526566852650     -1.22591345019063      1.78362739757650
  C   -0.85704905790471      0.73460836848114     -1.48691110428309
  N   -1.34433439124164      1.47649173449430     -2.25528954965729
  C   -1.20645721880922     -0.26125427141771      0.73480336400127
  H   -2.20251307221034     -0.58118521628763      0.42710715182093
  H   -1.29754477585780      0.71238713960886      1.22072009803398
  H   -0.81787961998416     -0.98241472411050      1.45454571315904
