13
Coordinates from ORCA-job run
  C   1.05456204392942     -0.18606245882092      0.35726285432441
  C   -0.26727862801011      0.02428250300549     -0.40330970045786
  Cl  0.87851567897093      0.17398690510703      2.09389796093957
  H   -0.04259815698392     -0.17989752718520     -1.45787092410112
  H   1.33063342284872     -1.24131308562345      0.28287432830640
  C   2.12592750215206      0.62380241253269     -0.21570874475717
  N   2.97791623791448      1.26151607142645     -0.71251563266555
  C   -0.69587693736814      1.42102187053188     -0.30752322682723
  N   -1.06914514349631      2.53120768117987     -0.22812258317161
  C   -1.36823985835575     -0.92909344969712      0.06558711278297
  H   -1.03243424854488     -1.96442201325936     -0.03104043101606
  H   -2.25992173798686     -0.79692960898818     -0.54872229110633
  H   -1.63306017506963     -0.73809930020918      1.10519127774959
