15

C	0.0	0.0	0.0
C	-0.234228	0.18784	-1.526627
Cl	1.799975	0.0	0.0
H	0.301307	1.097279	-1.813672
H	0.294576	-0.646015	-1.995841
C	-0.458488	1.182827	0.834454
H	-1.549202	1.204348	0.785667
H	-0.036488	2.122264	0.472082
H	-0.143649	1.039875	1.873404
N	-0.501192	-1.28232	0.406486
H	-1.518231	-1.215248	0.274597
H	-0.346641	-1.386178	1.405567
C	-1.533273	0.258682	-2.207352
N	-2.279895	0.343056	-3.111616
Cl	-3.574033	0.0	0.0
