16
Coordinates from ORCA-job run
  C   -0.62302326313309     -0.44451302300757      0.17817860976168
  C   0.61604670118343      0.39813105734565     -0.15599206602419
  Br  -2.09679786947014      0.63812671180747      0.88581954011975
  H   1.38824579935408     -0.27630005654464     -0.52685237450335
  N   -0.17466478594830     -1.38362102908256      1.19563838113198
  H   -0.78171574938540     -1.39842107509107      2.00240513246587
  H   -0.12188141800697     -2.31105106753091      0.79281851584702
  N   -1.09408723787487     -0.97981576832216     -1.06695178423494
  H   -0.36560558739900     -1.46860446814271     -1.57599211243204
  H   -1.89394144059011     -1.58224837607240     -0.92016342133201
  N   1.25852035202983      1.12845324886876      0.98369168867432
  O   0.69034474458852      1.20749511373125      2.06234874570088
  O   2.34881928604078      1.61304762788201      0.68967514420559
  N   0.37050602831718      1.39445347279689     -1.24435224177950
  O   -0.11981916394612      2.46827911246296     -0.91780257064366
  O   0.60105360424018      0.99858851889904     -2.38246918695740
