16
Coordinates from ORCA-job run
  C   -0.60558883963582     -0.53088354136608      0.05600202409095
  C   0.47858309431903      0.36061549849443     -0.54197523162844
  Br  -2.23473783040122     -0.06122948029448     -1.28792497879520
  H   0.69347480978270      0.07281630175499     -1.56694938816492
  N   -0.92211853097411     -0.25379213177536      1.37321193272273
  H   -1.69130076432285     -0.80949238596956      1.72176908984130
  H   -1.06556253016788      0.73107711927069      1.54627879860634
  N   -0.23775141013714     -1.87043813652185     -0.13705503680841
  H   -0.26082693766258     -2.14782889223727     -1.10847806222582
  H   -0.78726282626988     -2.50946329754619      0.42181103651873
  N   1.76715049728819      0.19232316507495      0.23435945141316
  O   2.57683088970283     -0.58271731383676     -0.25877200244074
  O   1.87881640358013      0.82832223018289      1.27487016545918
  N   0.18632945253304      1.82894019738159     -0.56779385685386
  O   -0.46202538454551      2.31806544490074      0.35104000707623
  O   0.68498990691108      2.43468522248726     -1.51139394881123
