16
Coordinates from ORCA-job run
  C   -0.64549807779808     -0.39247191177692      0.14576220283926
  C   0.73949735916708      0.25105099492588     -0.09255739154309
  Br  -1.94144143551520      1.05324420174639      0.67803651617352
  H   1.47825900207281     -0.55147175942544     -0.11982385664747
  N   -0.50965979752625     -1.40684370174411      1.12528648775975
  H   -1.41101007702990     -1.82540210006549      1.32258981033422
  H   -0.10169882638790     -1.04926476987682      1.98086126556235
  N   -1.08649053277399     -0.92660014924859     -1.11399912785560
  H   -2.04814913107659     -0.70881265333403     -1.32384523629944
  H   -0.92294122059551     -1.92503251569712     -1.13363591636886
  N   1.19047656545675      1.19636393024525      0.98608359109929
  O   1.07074139609120      0.76707758171736      2.12975939217358
  O   1.68837841028599      2.26168336853006      0.65553565514162
  N   0.81098505987189      0.92941997955792     -1.41991859010529
  O   1.62142107108148      0.44813719575305     -2.20679081925684
  O   0.06713023467622      1.87892230869263     -1.61434398300698
