16
Coordinates from ORCA-job run
  C   -0.77734871266560     -0.27728857391887      0.18675991794566
  C   0.63354415728441      0.23019453727147     -0.20686433668871
  Br  -1.99084633230653      1.25432007541938      0.36680723807602
  H   1.23789438542927     -0.62486136933629     -0.52008740041791
  N   -0.62294393409377     -0.87348036110355      1.48094765777568
  H   -1.51211030518191     -1.26618120843858      1.76762248105534
  H   0.08029156098997     -1.60648864513210      1.46846332496553
  N   -1.38582896837095     -1.16276165150216     -0.76864702556485
  H   -0.83538325926333     -2.01131030368598     -0.85332642699000
  H   -1.47920475212344     -0.72402008266567     -1.67615251138308
  N   1.35171550940955      0.82752662423733      0.96232842830228
  O   2.24173784618210      0.12059300176128      1.43238333426530
  O   0.98253510710922      1.91948011209826      1.36476576557344
  N   0.66756457481247      1.18590278927055     -1.37040253033459
  O   1.48671987242634      2.09202051037089     -1.33158825897055
  O   -0.07933674963781      0.91535454535404     -2.30400965760955
