16
Coordinates from ORCA-job run
  C   -0.76710782967885     -0.41344177987007      0.14557638042271
  C   0.22926632940652      0.76366053052641      0.04041879985506
  Br  -2.49243497571686      0.44113519457961     -0.50700496809240
  H   -0.07259935872898      1.60484688255104      0.65918419454783
  N   -0.78368595794738     -0.79426284627200      1.50033854929590
  H   -1.39716991548200     -1.58915917040553      1.62995848394701
  H   -1.02729742165824     -0.04674365869965      2.13674058729506
  N   -0.57725651997823     -1.58114960904667     -0.63765313009060
  H   -0.54147858801940     -1.36194395559251     -1.62336648302480
  H   0.29328313396322     -2.02498250185759     -0.36472739765796
  N   0.42549425715703      1.31256467592037     -1.33798974265977
  O   0.53528777004727      2.53455152704119     -1.40068721802730
  O   0.49290506444332      0.52444338352387     -2.27498487170462
  N   1.57281365773052      0.32257662468853      0.54710256052446
  O   1.94680781575510      0.83885600218227      1.59477641796575
  O   2.16217253870696     -0.53095129926928     -0.10868216259633
