17

C	-0.585634	0.008685	-1.419775
C	0.0	0.0	0.0
Br	0.217359	-1.424133	-2.462195
H	1.091397	0.0	0.0
C	-2.093339	-0.09657	-1.457896
H	-2.400688	-1.043727	-1.013094
H	-2.45147	-0.043799	-2.483538
H	-2.506222	0.732182	-0.87889
N	-0.171848	1.31005	-2.102786
O	0.760734	1.93802	-1.620832
O	-0.804302	1.624107	-3.108865
C	-0.446745	-1.219322	0.674953
N	-0.857174	-2.156376	1.253312
N	-0.503961	1.191042	0.708171
H	0.295481	1.797391	0.854011
H	-0.870765	0.93228	1.614945
Cl	3.300122	0.0	0.0
