17

C	-0.429794	0.05291	-1.467198
C	0.0	0.0	0.0
Br	-2.382903	0.242253	-1.5894
H	1.093008	0.0	0.0
C	0.262614	1.179251	-2.198087
H	0.006785	2.116427	-1.70603
H	1.343266	1.015375	-2.108293
H	-0.039031	1.195247	-3.244844
N	-0.079887	-1.245798	-2.190933
O	-0.444253	-1.344491	-3.35674
O	0.581068	-2.072614	-1.573455
C	-0.529088	-1.164721	0.712901
N	-0.995692	-2.024707	1.364011
N	-0.372873	1.260786	0.645291
H	-1.2512	1.169977	1.137308
H	0.35682	1.492002	1.307411
Cl	3.263639	0.0	0.0
