17

C	-0.376474	-0.015113	-1.485057
C	0.0	0.0	0.0
Br	0.101666	1.684234	-2.293515
H	1.095866	0.0	0.0
C	0.315654	-1.143281	-2.219287
H	1.387446	-1.058317	-2.023598
H	0.113787	-1.086627	-3.287095
H	-0.043485	-2.102902	-1.836605
N	-1.886298	-0.142041	-1.671945
O	-2.60066	0.047453	-0.688741
O	-2.294177	-0.424152	-2.794015
C	-0.424604	-1.277212	0.59948
N	-0.754233	-2.289002	1.099523
N	-0.442499	1.165513	0.733512
H	-1.347092	1.016214	1.156171
H	0.248119	1.380112	1.44057
Cl	3.274466	0.0	0.0
