17

C	-0.475155	0.021468	-1.452234
C	0.0	0.0	0.0
Br	-2.411032	0.321978	-1.524329
H	1.093104	0.0	0.0
C	0.263113	1.069796	-2.253222
H	-0.067159	1.058863	-3.292856
H	0.07413	2.040563	-1.800601
H	1.333374	0.84882	-2.18004
N	-0.205711	-1.316396	-2.119741
O	0.629912	-2.030394	-1.574285
O	-0.759887	-1.537756	-3.191062
C	-0.511889	-1.163234	0.733626
N	-0.937551	-2.040077	1.390268
N	-0.35502	1.268925	0.636205
H	-1.218151	1.189595	1.156115
H	0.394928	1.513322	1.270454
Cl	3.240178	0.0	0.0
