15
Coordinates from ORCA-job run
  C   0.46629301301571      0.01824088660139      0.80946734438694
  C   -0.52131955599247     -0.58466507647177     -0.21909157431735
  Cl  1.03154791875780     -1.41804645963666      1.81856289931657
  H   -1.19565867233022     -1.27083210274750      0.28966309731076
  N   1.51037771529051      0.67850314466178      0.12538973896997
  H   2.12980854485393      1.16965245302361      0.75700342359466
  H   2.03428241159901      0.00842863185394     -0.42594455675241
  C   -0.17310776455158      0.93347546588141      1.75553538945987
  N   -0.62966491375903      1.68564034745890      2.53410902110828
  N   0.19938569429334     -1.20453681316213     -1.27208948946748
  H   0.40560045333158     -0.51509929519362     -1.98686391301538
  H   -0.32847491074556     -1.96049866641102     -1.68485641584224
  N   -1.42479616162330      0.54797111338560     -0.71844204139868
  O   -2.39825537825442      0.80793905506061     -0.01762540580112
  O   -1.10701839388533      1.10382731569546     -1.76481751755241
