15
Coordinates from ORCA-job run
  C   0.38267370894065      0.46668131933265      0.62820114688072
  C   -0.13283989082712     -0.22340523925864     -0.65228890319492
  Cl  -0.78343072251289      1.70845565057233      1.18892395126421
  H   0.66158837680026     -0.87838364517670     -1.01872213779310
  N   0.53627994015203     -0.49092318552329      1.68341510460038
  H   0.95529234870472     -0.06239888799791      2.49947317264590
  H   1.09329535203111     -1.28383183232102      1.38512011108117
  C   1.61901204351886      1.17982195335570      0.25668692292028
  N   2.65943803359729      1.67292266854848      0.01890586560282
  N   -0.50217029999514      0.71396602918195     -1.63719709850381
  H   -0.63857345736684      0.27719135148670     -2.53826021671937
  H   -1.33766172461746      1.21830971672349     -1.36952946709751
  N   -1.23975664890463     -1.19651762899606     -0.24325041066102
  O   -2.38360612983182     -0.75582086262244     -0.21604896334932
  O   -0.88954092968900     -2.34506740730523      0.01257092232359
