15
Coordinates from ORCA-job run
  C   0.48085418466791      0.30808735301868      0.60542695914533
  C   -0.30068697700222     -0.13881697822407     -0.65282505122572
  Cl  -0.70787829828567      0.87551080300867      1.89567316850823
  H   0.44906241508632     -0.31943977026665     -1.42632333913601
  N   1.39358606231790     -0.67976828639944      1.04030706628797
  H   0.89814438129072     -1.47746071173950      1.41841693957211
  H   2.04515116612047     -0.31504455846343      1.72331953090690
  C   1.21489886022174      1.51484508830381      0.20678503402205
  N   1.80219346145970      2.46895021755386     -0.14594039467057
  N   -1.30023194525796      0.73874738322704     -1.13219482210102
  H   -1.75543284320280      1.26849329365606     -0.40337846067095
  H   -0.98027270669645      1.33193233313379     -1.88041486002380
  N   -0.92114409788017     -1.52499076051862     -0.45251488600286
  O   -1.05205669054120     -1.96679081263029      0.68787592884502
  O   -1.26618697229829     -2.08325459365990     -1.48321281345668
