15
Coordinates from ORCA-job run
  C   0.45574553962752      0.31752685520596      0.60882709016676
  C   -0.35983906962146     -0.14942726463365     -0.63328598656551
  Cl  -0.62272899579146      1.04387814269972      1.84241725670087
  H   0.36378565241241     -0.46182897844764     -1.38978424973936
  N   1.13488056133853     -0.78920448572213      1.20599352544901
  H   1.77233627386928     -0.48835340739687      1.93233958473838
  H   1.62125111465400     -1.35149403357323      0.51744295170337
  C   1.32824131386692      1.40462882010939      0.12251401398338
  N   2.06066930209632      2.21636036695073     -0.31108982723272
  N   -1.28403415772283      0.76389042993895     -1.19992973330077
  H   -0.82156723260292      1.47450988060124     -1.74925943172427
  H   -1.88331533777314      1.18072830642192     -0.50040780721452
  N   -1.08322765260796     -1.41315980218108     -0.24608484542167
  O   -2.17341812198689     -1.27919030468037      0.29436752256107
  O   -0.50877918975832     -2.46986452529293     -0.49506006410402
