15
Coordinates from ORCA-job run
  C   0.44202775673672      0.13780547898983      0.87037675940667
  C   -0.32360561320635     -0.52458073096732     -0.30357328382242
  Cl  -0.34204778374219     -0.31548578033118      2.40520236764099
  H   -0.25293863461074     -1.60641293627454     -0.18241410356591
  N   1.82034465134279     -0.28227189143649      0.92367889578862
  H   1.86571560849307     -1.26333667803658      1.17760614292565
  H   2.22553100555758     -0.15749005111606      0.00089493539786
  C   0.40952899967028      1.59894383298151      0.72223746105808
  N   0.42527658044840      2.76104087866982      0.55227918642419
  N   0.26078507744676     -0.09304391328229     -1.52640378956100
  H   -0.01116510482988     -0.68602974428380     -2.29949530799025
  H   -0.00523207788707      0.86473359457739     -1.73032128733930
  N   -1.81143373847129     -0.22157781988932     -0.21823921330828
  O   -2.15176282982148      0.91127446425511     -0.55365542513589
  O   -2.55002389712661     -1.12556870385609      0.16082666208098
