15
Coordinates from ORCA-job run
  C   0.38029536976459      0.43445477147528      0.58913470025721
  C   -0.23518852890973     -0.31293106312951     -0.63079822262545
  Cl  -0.67395618770531      1.79062827359126      1.10211219886138
  H   0.50773777320651     -1.04061208378421     -0.96519425905055
  N   0.53391842133979     -0.45595133397012      1.69609935519886
  H   0.95625974110920     -1.33484147652445      1.42074843098755
  H   1.05864066601463     -0.03045628475222      2.44958550193107
  C   1.63012836542515      1.04202059048538      0.09091674178034
  N   2.65476529424097      1.45241479391097     -0.31514287440921
  N   -0.67450072471754      0.46585098990472     -1.73008824467234
  H   -1.25238534857293      1.24297510939729     -1.44057746358237
  H   0.09731646746000      0.78099152984777     -2.30037150415024
  N   -1.38357421667349     -1.14295939897413     -0.11758607119681
  O   -1.12399571949702     -2.30292262537021      0.19207857863848
  O   -2.47246137248483     -0.58866179210782     -0.04191686796791
