15
Coordinates from ORCA-job run
  C   0.37225816068761      0.00390519185388      0.77923721081837
  C   -0.50802915405469     -0.56999408860640     -0.35558388459734
  Cl  -0.29037016658697     -0.50187770636299      2.35370198872243
  H   -0.53503186603176     -1.64904167191988     -0.20964123562079
  N   1.68226491825324     -0.60462697107634      0.62322385378342
  H   2.21512146462805     -0.48265502271913      1.47741913900154
  H   2.18190246408986     -0.12985676377706     -0.12149084899023
  C   0.42609913275763      1.47409536638995      0.74448849588534
  N   0.59174790412402      2.63608312443745      0.67160489745672
  N   -0.09053580682296     -0.24408661050760     -1.67675708175341
  H   0.05471868862076      0.74650585716198     -1.81916978790230
  H   0.69239156851738     -0.80017016878743     -1.98400637775031
  N   -1.92085703752334     -0.08413812815653     -0.19517838275726
  O   -2.75978666204180     -0.89024399092781      0.19230242469725
  O   -2.11389360861704      1.09510158299791     -0.48215041099343
