15
Coordinates from ORCA-job run
  C   0.40708585890026      0.31427430143312      0.70460401727128
  C   -0.24468291982815     -0.16690659815134     -0.64477903423260
  Cl  -0.93556675562816      0.70990741517404      1.83825022623454
  H   0.57918075609938     -0.51134795573991     -1.27513103785334
  N   1.32179094511806     -0.57070845531284      1.35631321125765
  H   2.21391983645961     -0.58706134398548      0.87682794092190
  H   0.94308847145717     -1.50958465614017      1.39972227304899
  C   1.10579768220848      1.56121875060353      0.37233246370165
  N   1.68023772839656      2.52847352030032      0.03332610179832
  N   -1.05845170274220      0.74719017300754     -1.35804829200135
  H   -1.78671908439357      1.14528262921534     -0.78059630542413
  H   -0.50676761385515      1.47378660948562     -1.79247269961723
  N   -1.05042040846078     -1.40627546293739     -0.33392511780122
  O   -0.39973646834551     -2.42253844631357     -0.08408681988218
  O   -2.26875632538599     -1.30671048063882     -0.31233692742229
