15
Coordinates from ORCA-job run
  C   0.49710245575282     -0.12177696497669      0.79697331667127
  C   -0.61561084875859     -0.56962934177322     -0.17311347102754
  Cl  0.94127545467923     -1.54418674462831      1.78239413292413
  H   -1.42559567170544     -1.04253755686174      0.38323750632765
  N   1.66738182369673      0.30329595490464      0.06874458386022
  H   2.45022463560312      0.40952495673311      0.70277512870821
  H   1.47216645794125      1.18891832272591     -0.38589709043562
  C   -0.04076720269004      0.89027417346318      1.72504114882747
  N   -0.44382594044047      1.73525381002245      2.43630846749598
  N   -0.09527400133398     -1.42417129495286     -1.16082542289061
  H   0.70865555202204     -1.02597859559706     -1.62582306703130
  H   -0.79490626233073     -1.76300952796197     -1.80494490582109
  N   -1.27782284359056      0.69440620598794     -0.75097822520551
  O   -0.53808860064110      1.56191243687379     -1.21663845313358
  O   -2.50491500820425      0.70770416604084     -0.77725364926968
