15
Coordinates from ORCA-job run
  C   0.43984514496435      0.41054645052164      0.62990710248067
  C   -0.21611866195313     -0.14350804581611     -0.65230443180104
  Cl  -0.71482515657947      1.44149430825503      1.53506267575749
  H   0.55882145808105     -0.65955872317701     -1.22463810613208
  N   0.83066385826471     -0.66393596285119      1.49404305191903
  H   1.33859953539494     -0.31341325569944      2.29672166041800
  H   1.39283442276662     -1.34906117776965      1.00162136299373
  C   1.54414001377471      1.28697072854411      0.19637570415552
  N   2.49256923062940      1.90887805370394     -0.11313981302558
  N   -0.80581366436575      0.88024291958304     -1.42049212896612
  H   -1.05096937045117      0.55874907880549     -2.34677978639365
  H   -1.62423195076522      1.25846619427578     -0.96076444122558
  N   -1.16794391019397     -1.26752642727594     -0.23985750297765
  O   -2.32365553132584     -0.94882738935100      0.01731029187872
  O   -0.69591541824124     -2.40051675174867     -0.21406563908145
