15
Coordinates from ORCA-job run
  C   0.43316287363068      0.25989404384990      0.65204901152472
  C   -0.34187454410136     -0.08865152981065     -0.65338512975906
  Cl  -0.69214822635326      0.80986166374177      1.93355440609945
  H   0.40675216968571     -0.29498202258438     -1.42169709956284
  N   1.13673196533878     -0.88600291720833      1.13684599359610
  H   1.65444355570767     -1.35151292696897      0.40050995444568
  H   1.75065762359514     -0.64985064243758      1.90598335244294
  C   1.27875188285364      1.42099138858572      0.31049683193325
  N   1.99113068437230      2.29841260386380     -0.01505200625761
  N   -1.28080290215813      0.85595466886997     -1.13747850624124
  H   -0.82939860367122      1.63436792224772     -1.59640613924330
  H   -1.90726581451945      1.17658177110737     -0.41183818861042
  N   -1.03479265626397     -1.40716803669148     -0.42641215196340
  O   -2.13990282350690     -1.36420712891266      0.09869948365410
  O   -0.42444518460964     -2.41368885765220     -0.77686981205839
