15
Coordinates from ORCA-job run
  C   0.45961235075262     -0.02342298818430      0.73756120709123
  C   -0.63081263255942     -0.53898745334057     -0.24861143704297
  Cl  1.21873899103765     -1.58062684892662      1.41239568754710
  H   -1.33105266371947     -1.15078770421546      0.31987441314788
  N   1.37130698722838      0.82352758222513      0.08544063992352
  H   1.82707202027754      0.36481816935078     -0.69209248912085
  H   2.05937136056248      1.22061387834598      0.71138670779932
  C   -0.11582604361949      0.65490132716962      1.89801468203450
  N   -0.54161445197608      1.20563166950903      2.84468093337043
  N   -0.18137616313736     -1.22660718177323     -1.40996300681586
  H   0.29256818653002     -0.61617022319489     -2.06065040452964
  H   0.36246885958239     -2.04593870586825     -1.18207688205996
  N   -1.41051197064617      0.67192787415671     -0.70285245374178
  O   -2.31252770306092      1.04282134080568      0.04218767910253
  O   -1.06641712725217      1.19929926394039     -1.75429527670547
