15
Coordinates from ORCA-job run
  C   0.52211726422716      0.34525395719984      0.59768722725744
  C   -0.12133079902496     -0.31453642654403     -0.64008751772714
  Cl  -0.73102502606510      1.55979896597150      1.23990057474718
  H   0.51580916209926     -1.15504192441008     -0.92621319651338
  N   0.96345011509153     -0.59285770107132      1.54860574069668
  H   1.40935526855237     -0.15046153484270      2.34130360926112
  H   0.22706319471477     -1.22329062674922      1.83754201760087
  C   1.66171311742798      1.15782320382275      0.16174707023934
  N   2.61266927544608      1.78550103784399     -0.12293603902967
  N   -0.27525508572294      0.59789079954270     -1.69672870903885
  H   -0.52808163501889      0.13687106593939     -2.55900155536935
  H   -0.96193760316360      1.30959654780834     -1.48278592372071
  N   -1.44843266953421     -0.98316343307054     -0.20069724654044
  O   -2.47235925588301     -0.61340155985291     -0.75804247317277
  O   -1.37275532314641     -1.85898237158770      0.65870642130967
