15
Coordinates from ORCA-job run
  C   0.51630379276727      0.11419954990900      0.72390106432017
  C   -0.33461455658509     -0.53174901657664     -0.39168543316324
  Cl  -0.26628591915177     -0.32274751246258      2.32939372156784
  H   -0.24955007225893     -1.61701327459468     -0.30636573309565
  N   1.85057252897923     -0.34061374225615      0.61056712511538
  H   2.44905926193284      0.07683395472629      1.31182742188343
  H   1.90746889674846     -1.34984718290106      0.66475945579308
  C   0.50294494580798      1.57699606514084      0.63389496277591
  N   0.53853883090056      2.74574965031217      0.52187759917554
  N   0.07560857808050     -0.07923150182776     -1.66729512671101
  H   -0.35954394498005     -0.61013052388689     -2.40987855421723
  H   -0.11483164770255      0.90809362547942     -1.79170730218666
  N   -1.81279325178027     -0.25811640090161     -0.12135070352673
  O   -2.52766780418665     -1.22373172940557      0.12819865436073
  O   -2.17320963857152      0.91030803924523     -0.23613715209155
