15
Coordinates from ORCA-job run
  C   0.47182819604768      0.31953088065761      0.65895036074387
  C   -0.30632133088884     -0.01296191615275     -0.63159477265016
  Cl  -0.65419009186993      0.80078804602500      1.96898253735223
  H   0.42518747123945     -0.17952156185495     -1.42629266069776
  N   1.19857104829063     -0.82947161464330      1.11280286834841
  H   1.76987052856236     -1.22158513941161      0.37263697575008
  H   1.77860554360630     -0.59623995888471      1.90925414393815
  C   1.30563172447548      1.49860709538032      0.35928987939021
  N   2.05646785466496      2.37206337046026      0.12360171584312
  N   -1.19930911782996      1.01881841550196     -0.98274606508993
  H   -1.97043003387016      1.07507879390986     -0.32983976927638
  H   -1.55285237430546      0.90464027522602     -1.92258884928708
  N   -0.95256748435894     -1.38666120736743     -0.44431574341195
  O   -0.29410782697261     -2.35476385929692     -0.81370941003859
  O   -2.07638410679096     -1.40832161954935      0.04556878908576
