15
Coordinates from ORCA-job run
  C   0.53529845047084      0.00913078548501      0.76486394703378
  C   -0.50967449644464     -0.60087338823658     -0.20048727315296
  Cl  1.26060268984518     -1.43624600656323      1.65021639982749
  H   -1.10235977567495     -1.34211464584975      0.33207630964991
  N   1.47910033076767      0.75351995419086      0.02280183623147
  H   1.98531905227213      0.13593660073879     -0.60156754256864
  H   2.12704307246350      1.25043871763720      0.62045552749107
  C   -0.05956737934031      0.84779010959411      1.80642824085409
  N   -0.48215378076713      1.52364261754100      2.66945452661975
  N   0.14371610787471     -1.13672029764217     -1.33991434262454
  H   -0.38145691404963     -1.90142286847850     -1.73984310016339
  H   0.25091582177087     -0.40812036665288     -2.03733032598483
  N   -1.50788208796548      0.50327981559643     -0.56615765480066
  O   -1.31526206650576      1.11553787821293     -1.61151461833196
  O   -2.42363902471701      0.68522109442679      0.23051806991942
