17

C	0.0	0.0	0.0
C	-0.269865	-0.138528	-1.534255
Cl	1.791676	0.0	0.0
H	0.418434	0.55855	-2.015394
N	-0.364135	1.332217	0.617456
O	-0.596881	1.335923	1.815826
O	-0.25483	2.309278	-0.108044
C	-0.486202	-1.108415	0.802338
N	-0.564943	-2.108301	1.419737
N	-1.604637	0.29037	-2.12945
O	-1.773582	1.49452	-2.279153
O	-2.333036	-0.577057	-2.596518
C	-0.00785	-1.569892	-1.969529
H	-0.779128	-2.21657	-1.556047
H	-0.051961	-1.638444	-3.057237
H	0.971199	-1.909192	-1.635422
F	-2.204186	0.0	0.0
