17

C	0.0	0.0	0.0
C	-0.26861	-0.122161	-1.551825
Cl	1.789908	0.0	0.0
H	0.289105	0.707974	-1.9959
N	-0.380938	1.348284	0.577426
O	-0.861662	2.171314	-0.178706
O	-0.172931	1.481931	1.780824
C	-0.506374	-1.078261	0.823739
N	-0.594078	-2.068981	1.457877
N	-1.678932	0.079397	-2.131309
O	-1.983655	1.220513	-2.448063
O	-2.302028	-0.922375	-2.459305
C	0.229148	-1.460862	-2.082426
H	1.305864	-1.574536	-1.936662
H	0.023987	-1.520464	-3.154235
H	-0.29955	-2.281562	-1.592815
F	-2.317794	0.0	0.0
