17

C	0.0	0.0	0.0
C	-0.487295	0.148276	-1.463452
Cl	1.777804	0.0	0.0
H	-1.542705	0.424797	-1.315522
N	-0.436745	1.224906	0.806416
O	-0.577935	2.274345	0.195892
O	-0.493418	1.08171	2.017082
C	-0.486669	-1.185775	0.695785
N	-0.628917	-2.183995	1.301653
N	-0.532068	-1.188686	-2.12864
O	0.272646	-2.059272	-1.79367
O	-1.338437	-1.29942	-3.050235
C	0.316184	1.050225	-2.385225
H	0.434141	2.030882	-1.930653
H	1.299402	0.635469	-2.617668
H	-0.250391	1.158016	-3.312691
F	-2.448364	0.0	0.0
