17

C	0.0	0.0	0.0
C	-0.453377	0.144711	-1.483752
Cl	1.786542	0.0	0.0
H	-1.536281	0.301709	-1.351661
N	-0.453168	1.183232	0.84456
O	-0.598932	2.256978	0.280378
O	-0.509203	0.985309	2.047995
C	-0.479488	-1.226886	0.62291
N	-0.593255	-2.286858	1.120635
N	-0.309987	-1.207767	-2.129126
O	0.810116	-1.543323	-2.52574
O	-1.323975	-1.891004	-2.251983
C	0.279325	1.1515	-2.346086
H	0.203355	2.139807	-1.899329
H	1.325585	0.889343	-2.495158
H	-0.213101	1.174602	-3.322828
F	-2.430546	0.0	0.0
