16
Coordinates from ORCA-job run
  C   -0.98080615515360      0.07626696093549     -0.01588958185436
  C   0.47965074116438      0.41871318526095     -0.36573300892500
  Br  -1.93053555606946     -0.09471176894118     -1.83050829217675
  H   0.47584346664957      1.32501158700566     -0.97113578409397
  N   -1.08076811194516     -1.06118026898171      0.79511496031015
  H   -0.66235538564375     -1.88444701894421      0.38449507561090
  H   -2.02598762588725     -1.25239856391644      1.10012112818337
  C   -1.67110385354404      1.20064186669818      0.61522589498563
  N   -2.25282718991501      2.07575274921614      1.14209051936545
  C   1.26407588891601     -0.69839832394655     -1.02126047482185
  H   0.78453700662288     -1.00062044527696     -1.95133376562785
  H   2.26953746997085     -0.34158749773435     -1.25122043187079
  H   1.37009350637161     -1.55385855113817     -0.35545784223334
  N   1.15813272747167      0.82475844672893      0.92560672036617
  O   1.08191241311393      2.01598534872126      1.22085940973196
  O   1.71860065787736     -0.04892770568704      1.57902547305029
