16
Coordinates from ORCA-job run
  C   -1.04338486193770      0.09649478083739      0.15321872815287
  C   0.34714100766014      0.35486303276603     -0.46712744857715
  Br  -2.10655486654028      1.74397588569226     -0.06097326918437
  H   0.19624714324913      0.54918609394719     -1.53121261935790
  N   -1.76515576121308     -0.96752636561230     -0.49089437385355
  H   -1.41618026845615     -1.87785128610743     -0.21912705153574
  H   -1.76675479931355     -0.86312425346926     -1.49827274285907
  C   -0.96153871738061     -0.21480764191559      1.58104648101088
  N   -0.90345647948754     -0.55899949567853      2.70303488008045
  C   1.31829269342084     -0.78901087129552     -0.22839587593467
  H   2.27627139987488     -0.55875099117804     -0.69912281845430
  H   1.47963191426168     -0.93958755841827      0.84009199188099
  H   0.94021262605094     -1.71076743776822     -0.67237861789765
  N   0.97050617529256      1.60848128826135      0.06557634802719
  O   1.31278660800110      2.45322342378567     -0.75759530659817
  O   1.12293618651763      1.67420139615328      1.28213169510021
