16
Coordinates from ORCA-job run
  C   -0.90525305860378     -0.11660046836186      0.26385806028207
  C   0.53674905375388     -0.02412609606324     -0.27419214129413
  Br  -1.13875749865067      0.84244596493931      1.96155693789740
  H   0.57552493253316     -0.68591440817073     -1.14488465918169
  N   -1.81353448684309      0.46403362874617     -0.68384027860114
  H   -2.77597620938181      0.33514777268488     -0.39624964196812
  H   -1.67302305671394      0.07479287553310     -1.61076240612323
  C   -1.15565412782519     -1.53562172891202      0.57171507085169
  N   -1.37160985792403     -2.67953001197556      0.74315094589697
  C   1.62980013296779     -0.36490224971922      0.71344221748654
  H   1.46197556864897     -1.36069809389688      1.12856959191879
  H   1.65829433506704      0.36356630992080      1.52087973755934
  H   2.59476921938975     -0.36363477275884      0.20292211399524
  N   0.74295624707726      1.34643877845446     -0.85225210297201
  O   1.04901809674447      2.24692715283964     -0.07844791295083
  O   0.58272070976018      1.45467534673999     -2.06646553279689
