16
Coordinates from ORCA-job run
  C   -0.96497900062233     -0.01973344299557      0.12167594516145
  C   0.40728491858250      0.33239406797879     -0.47364276660939
  Br  -2.15053723037086      1.60423696700744     -0.05510852685665
  H   0.27168799247044      0.50186111296305     -1.54409390029045
  N   -1.47317917434483     -1.14738864751713     -0.57824066448495
  H   -2.32628615797331     -1.49569152275949     -0.15813657862197
  H   -1.64631953701771     -0.92459556995649     -1.55180272569984
  C   -0.91440933758515     -0.32771657402611      1.54989996382621
  N   -0.91435425057872     -0.65736132708323      2.67796826067754
  C   1.44941130539377     -0.73645031061157     -0.19100576655655
  H   1.11158029175757     -1.69226146450009     -0.58884452840028
  H   1.61295876754477     -0.83122969610911      0.88344060918029
  H   2.39223890799275     -0.46129339249300     -0.66866255027569
  N   0.91102178305623      1.63666303996856      0.06018090887127
  O   1.21770967537335      2.49329199585388     -0.76427194228442
  O   1.01717104632152      1.72827476428006      1.27964426236343
