16
Coordinates from ORCA-job run
  C   -1.07233619572966      0.03811868779695      0.06291956720377
  C   0.34854899387880      0.50999971836928     -0.35259345918671
  Br  -2.18834341006069      0.26005744658879     -1.54835755603891
  H   0.27676951286833      1.49281384922386     -0.81919417162103
  N   -1.24545637031218     -1.31011182385871      0.52103927765484
  H   -0.65574125276123     -1.46510509692339      1.33187715179920
  H   -1.00932796700658     -1.97146801280660     -0.20844451617756
  C   -1.59444830425929      0.96565430657097      1.07191049614218
  N   -1.96606712205804      1.72474214869455      1.88888591898015
  C   1.10315585095257     -0.47716576763319     -1.22186292854686
  H   1.27162432977331     -1.41117326601500     -0.68442997838643
  H   0.54590307792320     -0.67760327105634     -2.13728753285701
  H   2.07232417355364     -0.05524915725116     -1.49476421314178
  N   1.16108921931396      0.74096785184275      0.89246491874524
  O   1.15959039828001     -0.15403657550400      1.73828315612118
  O   1.79171506564385      1.79055896196123      0.96055386930972
