16
Coordinates from ORCA-job run
  C   -0.90801835928576     -0.24716302393103      0.10250481020888
  C   0.54700330321769      0.04855874073539     -0.33056028148103
  Br  -1.32257635843943      0.96237012874617      1.69368354365228
  H   0.65506617373364     -0.41438232356937     -1.31683791461248
  N   -1.81972312511360     -0.12631959238463     -0.96234758871682
  H   -1.74214752039684      0.77205516299827     -1.42263829475174
  H   -2.77216283823113     -0.31594094522485     -0.67857607981601
  C   -0.98786741884863     -1.59757221972972      0.65950058147581
  N   -1.05753085709924     -2.69531601424525      1.07380471601566
  C   1.61446911096086     -0.42824491286140      0.62759182390879
  H   1.49108528081407      0.01946698124434      1.61274102822823
  H   2.59787463675712     -0.15398271288772      0.24671995609806
  H   1.56746291301529     -1.51441600724124      0.71386815520625
  N   0.68280880545957      1.53032822540170     -0.59769222525270
  O   -0.04745370144116      1.99392847996415     -1.47456993698199
  O   1.50170995489754      2.16763003298520      0.05080770681883
