16
Coordinates from ORCA-job run
  C   -0.96533112824209     -0.00706952037176      0.12097461792694
  C   0.41157674675216      0.32187969896381     -0.47681248451537
  Br  -2.13130173908771      1.62871508778907     -0.07365761250769
  H   0.27901764482707      0.48156919898095     -1.54914508269514
  N   -1.48650727689896     -1.13603700662606     -0.56746884089317
  H   -2.34473387825897     -1.46863271412329     -0.14502800930492
  H   -1.65560384427487     -0.92113788249512     -1.54353364169674
  C   -0.91943559339683     -0.30039606406748      1.55246970961715
  N   -0.92405355159055     -0.61750891244173      2.68410087369740
  C   1.44040941186442     -0.75629765677044     -0.18138683326491
  H   1.09141672877701     -1.71253294957340     -0.56841099320034
  H   1.60204397428740     -0.84068371720954      0.89421449279868
  H   2.38685945104512     -0.49807246878443     -0.66132120398912
  N   0.93045936899052      1.62579155448217      0.04331127411351
  O   1.03845147608001      1.72877153046381      1.26169948472040
  O   1.24573220912626      2.47064182178344     -0.79000575080667
