16
Coordinates from ORCA-job run
  C   -1.06396670909269     -0.01634059489720      0.14534415017825
  C   0.29012653180926      0.49858077553560     -0.42015261767790
  Br  -2.31513693704264      0.00904746513282     -1.37689027314266
  H   0.12107123179907      1.43707491130242     -0.94861361121075
  N   -1.11307550786628     -1.32993500809572      0.72042363676839
  H   -0.44405124598459     -1.38692759299421      1.48143792540717
  H   -0.90068539848962     -2.03438541051747      0.02458501967498
  C   -1.55827199134538      0.96008970182164      1.12176422118535
  N   -1.89899478815969      1.76236682889064      1.91030898830557
  C   1.03179360913689     -0.51100366026667     -1.27345304138422
  H   1.95264717770422     -0.06280282093498     -1.65169807790034
  H   0.41914634098190     -0.80684605938859     -2.12545560235170
  H   1.29339291845676     -1.39191165725138     -0.68669673412296
  N   1.17219174566508      0.86989279290180      0.73975971791387
  O   1.64742232127840      2.00067542443945      0.74591273066538
  O   1.36639070114930      0.00242490432186      1.59242356769158
