16
Coordinates from ORCA-job run
  C   -0.96384107037178     -0.11690252465845      0.24050278512185
  C   0.49800850348291      0.00698710881291     -0.29223547239092
  Br  -1.19107782207436      1.18674645980442      1.71298159219257
  H   0.51979026002313     -0.57887070220087     -1.21713894320997
  N   -2.02487136076812      0.07855847720857     -0.69917490839433
  H   -1.83988312206102      0.88370173677714     -1.28501243589125
  H   -2.15568772157948     -0.74582707671649     -1.27366831270962
  C   -1.10486015604068     -1.45128416235443      0.82716596393445
  N   -1.20435792257214     -2.54678131426622      1.24123545433747
  C   1.58438844518790     -0.42936507102812      0.66437963708680
  H   2.56208049965713     -0.28454469258318      0.20365948033630
  H   1.55270486993833      0.14812158241796      1.58664175079881
  H   1.46518856368600     -1.48868525500196      0.89565959749641
  N   0.72087036575345      1.42558658708019     -0.74927266762483
  O   1.52896942528343      2.11522561551565     -0.13938546404099
  O   0.05257824245528      1.79633323119291     -1.71633805704275
