16
Coordinates from ORCA-job run
  C   -0.97207886623055      0.03019296283430      0.00702604443826
  C   0.47583259482770      0.27458302098815     -0.44567402944540
  Br  -2.04551746016086      1.68229122544953     -0.43486938350218
  H   0.47377138757294      0.35990736530684     -1.53454154582115
  N   -1.45277715807514     -1.12907935562512     -0.65948764169613
  H   -2.36525791012817     -1.40597928298430     -0.31853351324274
  H   -1.50038509147855     -0.98032727386811     -1.66102700202657
  C   -1.10342371061204     -0.15960824193429      1.45049559300062
  N   -1.25197189132214     -0.39545622455791      2.59222061243841
  C   1.42197791810704     -0.80980186741562      0.04141476308620
  H   2.42706250711121     -0.61393814587560     -0.33843834033003
  H   1.08471510635297     -1.78026401226728     -0.31970507119554
  H   1.45409600534841     -0.82298872887454      1.13187419798472
  N   0.98083648246861      1.59635553208768      0.04144044890650
  O   0.95005119453982      1.78497090414189      1.25400905654048
  O   1.42306889167875      2.36814212259439     -0.80520418913546
