16
Coordinates from ORCA-job run
  C   -1.07122490450016     -0.03001244151080      0.00640730948934
  C   0.33730537233904      0.43341331529383     -0.45965199843612
  Br  -2.10703615030745     -0.30672507149656     -1.64860008102595
  H   0.22653481090815      1.25992276260186     -1.16205093231181
  N   -1.17837885751908     -1.22958688088226      0.78553480607142
  H   -0.85665669059292     -2.03148182849939      0.25749679771041
  H   -0.62604224833576     -1.13000068780400      1.63082359746757
  C   -1.71121498942624      1.07366590311683      0.72985892706903
  N   -2.20475443489761      1.95267215256041      1.33439787803296
  C   1.20364039182559     -0.67737360333608     -1.01997561514434
  H   2.15683301310893     -0.26365062085180     -1.35479528380459
  H   1.40321222096458     -1.43036939876732     -0.25689141754668
  H   0.71296974857775     -1.14359327288299     -1.87478775643243
  N   1.05312239098291      1.03170713765867      0.72013730747802
  O   1.11655704546326      0.34562413080544      1.74094073713371
  O   1.54413328140900      2.14578840399415      0.57215572424943
