16
Coordinates from ORCA-job run
  C   -0.97196713431337      0.10303210896424     -0.11242324636855
  C   0.52562643490391      0.36873431525355     -0.35637043176406
  Br  -1.76234731642195     -0.20773431924003     -1.98385900905396
  H   0.60920616849135      1.21490680710426     -1.03824148093091
  N   -1.18607087624351     -0.95084610503486      0.78461593618228
  H   -2.16055003878751     -1.08363877848211      1.02032049232494
  H   -0.76564392453333     -1.82093768472365      0.48906879277172
  C   -1.67261766113093      1.30078274824663      0.34952899194537
  N   -2.26510163919706      2.23824986198649      0.73928327698982
  C   1.32260909155746     -0.82666589179542     -0.83489758417974
  H   0.91814260067184     -1.19812230471393     -1.77552508750163
  H   2.35781541817194     -0.52276192087656     -0.99986697752771
  H   1.33469526041298     -1.62047181487652     -0.08916607331076
  N   1.10222164384508      0.87236133293594      0.94991244814700
  O   1.57254724270054      0.04696072426396      1.72602055800159
  O   1.04243472987252      2.08715092098801      1.13059939427459
