16
Coordinates from ORCA-job run
  C   -0.98386544159054     -0.01075776880983     -0.00315883302785
  C   0.43717119260210      0.38518242749873     -0.44687315529472
  Br  -1.93384727910105     -0.58388737514897     -1.73266428251387
  H   0.34728597778755      1.16597847965052     -1.20198943330892
  N   -0.97548770436758     -0.98836176799203      0.99971734965873
  H   -1.89629541249606     -1.19700863860485      1.36215480061420
  H   -0.49431921676621     -1.83526431462093      0.73018723545958
  C   -1.76236784688186      1.14670341939296      0.43634680917661
  N   -2.41259610554763      2.04992907475067      0.81473484802660
  C   1.30920465214959     -0.76034816781255     -0.91616415983178
  H   2.28039528668967     -0.36725927558310     -1.22158392173714
  H   0.85295348350700     -1.25589861008554     -1.77199702660951
  H   1.48908491672992     -1.47765537694848     -0.11650163327972
  N   1.09212421704728      1.06954338519335      0.73419641525156
  O   0.91682460848818      2.28384758998860      0.81680617102231
  O   1.73373467174965      0.37525691913145      1.51578881639393
