16
Coordinates from ORCA-job run
  C   -0.87361639540450     -0.03119413349029      0.37194760824139
  C   0.49573584753542     -0.07396127909028     -0.33658257053244
  Br  -0.81128854058992      0.94285960866246      2.07495773283261
  H   0.36733614972738     -0.73579493437077     -1.19854257786064
  N   -1.83094889745758      0.63394899128140     -0.46613349422532
  H   -1.84552597024456      0.22884442747200     -1.39665004249392
  H   -2.75809847854244      0.60122440127375     -0.06030326564282
  C   -1.21522594161398     -1.42159611878790      0.72005236041156
  N   -1.50898940016963     -2.54244300937343      0.92419186555980
  C   1.66261867497778     -0.51635632939234      0.51717138414280
  H   1.45236802907107     -1.49054283927825      0.96302486430242
  H   1.85727304035094      0.20774575685724      1.30538314339751
  H   2.55503861865211     -0.60853178060478     -0.10487374509361
  N   0.75687139160438      1.27161845837718     -0.94941447206644
  O   0.46415778731889      1.39470431233614     -2.13723006488614
  O   1.23129408478463      2.14047446812788     -0.22599872608676
