16
Coordinates from ORCA-job run
  C   -0.89737065624014     -0.12891396172981      0.28932896635750
  C   0.52477661551082     -0.00823737933278     -0.29537184189261
  Br  -1.05772586478671      0.70617989825330      2.05921523643561
  H   0.52445653206220     -0.60611009927961     -1.21189060374283
  N   -1.83435942027934      0.52612061078347     -0.57907162988034
  H   -2.78662683840775      0.38250858537555     -0.26613414736672
  H   -1.73166120910936      0.20519472029072     -1.53639435727821
  C   -1.14857060846883     -1.56464019865990      0.50284239593652
  N   -1.34713294207788     -2.72023033427883      0.60089336785181
  C   1.65047013346111     -0.42647122460640      0.62332754771174
  H   1.48908487028041     -1.44831220424258      0.97231068234019
  H   1.71602014514961      0.24215477284597      1.47898287659636
  H   2.59584519121995     -0.39456369839922      0.07818952677527
  N   0.72169313447859      1.39930890017531     -0.78099869281286
  O   1.06344887449937      2.23934872391233      0.04401819103738
  O   0.51665204270795      1.59566288889247     -1.97724751806880
