16
Coordinates from ORCA-job run
  C   -1.00393738114048     -0.09496855704307     -0.09978187747034
  C   0.40326243970958      0.42099463543193     -0.46192526397541
  Br  -1.93492065749713     -0.42758150320930     -1.80525359113853
  H   0.30019772191428      1.23824521162978     -1.17617925505230
  N   -0.96090717190200     -1.33505598499051      0.62125371298692
  H   -1.89923691186143     -1.65839611772256      0.82557019729196
  H   -0.45643146302127     -1.18753600862173      1.48980433034091
  C   -1.76475315297491      0.98083194788495      0.55875971992596
  N   -2.35831222893212      1.81603149778332      1.13703025360960
  C   1.35068827554326     -0.65337785617852     -0.96272310009557
  H   2.30488983776179     -0.19340234478165     -1.22774519337612
  H   0.93212699441757     -1.13055863355212     -1.84827884129756
  H   1.50864797906825     -1.41377023339597     -0.19986878069376
  N   1.02481871091658      1.06126759098626      0.75128698966931
  O   0.96314455821109      0.43956201215120      1.81264081159712
  O   1.58872244978694      2.13671434362800      0.58340988767782
