16
Coordinates from ORCA-job run
  C   -0.98140293701155      0.13462628576875     -0.10343241250169
  C   0.49963065044785      0.31729890953586     -0.46563859615870
  Br  -1.97516672617100      1.71510422604752     -0.68928378088123
  H   0.54196907977317      0.44223443088386     -1.54749815118548
  N   -1.47777458969820     -0.99750876654175     -0.86961203603978
  H   -2.49192442443403     -0.99590626592273     -0.85643906195687
  H   -1.16930936679403     -1.85831929949233     -0.42697563785813
  C   -1.20812190816137     -0.01710957030381      1.34029140911794
  N   -1.43990673508445     -0.27480252644125      2.46452752659554
  C   1.37112037338634     -0.83033890786312      0.01584672024304
  H   2.41496216540384     -0.61950101429750     -0.22581594212679
  H   1.28375073970999     -0.96099176746763      1.09572626458369
  H   1.09534078396178     -1.75350392399324     -0.49570334233051
  N   1.03682348340804      1.58991014678152      0.11095705285161
  O   0.99746976717282      1.70417557425372      1.33368874192625
  O   1.50353964409081      2.40563246905216     -0.67963875427889
