16
Coordinates from ORCA-job run
  C   -1.05133722209890      0.11486898064452      0.01981705119184
  C   0.40739863762825      0.31461811148075     -0.44729184097634
  Br  -2.05531235432524      1.74704879235059     -0.44427340911813
  H   0.38693577299791      0.42776604194230     -1.53336723830225
  N   -1.70990522007922     -0.99045707937984     -0.62347473761646
  H   -1.40036146508644     -1.87985264060379     -0.25189942594948
  H   -1.59861899979088     -0.95752147908139     -1.62965966518295
  C   -1.14560903748766     -0.08609556065497      1.46661574423544
  N   -1.23122309946441     -0.34331348926558      2.61008199222742
  C   1.32432606883518     -0.81414235846000     -0.00774158149027
  H   1.35671212629746     -0.88089882090511      1.08073715601062
  H   0.98548169439143     -1.76524311147150     -0.42044936720790
  H   2.33477926137755     -0.62944976369764     -0.37832827228393
  N   0.98131588661893      1.60183564697464      0.06028438036969
  O   1.41296472440740      2.38856864593793     -0.77800379472845
  O   1.00245322577865      1.75226808418908      1.27895300882116
