16
Coordinates from ORCA-job run
  C   -0.97996006534345      0.15338376738004     -0.09427583024236
  C   0.50106908040231      0.31210481185051     -0.46726151661344
  Br  -1.94937038148780      1.75713549806887     -0.65657698596883
  H   0.53746028546449      0.44496989720989     -1.54839959437281
  N   -1.50375327603280     -0.96195892418987     -0.86656348859990
  H   -2.51754005304688     -0.94279749027977     -0.84308891276288
  H   -1.20624285608712     -1.83262527453143     -0.43590519503698
  C   -1.19675785553069     -0.00798522832987      1.35003657723569
  N   -1.42356776117950     -0.27347631328415      2.47344874776965
  C   1.35598970764055     -0.85456522440406     -0.00201000889408
  H   1.05799432593819     -1.76983630575616     -0.51531342569899
  H   2.40075275545539     -0.66175132396870     -0.25455446558934
  H   1.27801270954502     -0.98981332528498      1.07799533331266
  N   1.06596437578997      1.57013814059420      0.11513935615262
  O   1.03659406380093      1.67603014313574      1.33888814364386
  O   1.54235494467137      2.38304715178972     -0.67255873433487
