16
Coordinates from ORCA-job run
  C   -0.90583720274784     -0.14084787241817      0.23716321501120
  C   0.49781738584306     -0.02525109941196     -0.40228527608982
  Br  -0.96677688909175      1.16879869017860      1.80081222484147
  H   0.41983314451951     -0.53710179022183     -1.36700546140383
  N   -1.93935474487821      0.03709732746569     -0.70089608982118
  H   -2.85754256153172     -0.03820230871208     -0.28259058065463
  H   -1.83516053262807      0.90288057848793     -1.21521784618416
  C   -1.04677612977702     -1.45203020250352      0.87085078808883
  N   -1.17058140931044     -2.51958424950572      1.34688387002243
  C   1.63292733809745     -0.57674291142125      0.42957168596678
  H   1.48467959395890     -1.64595909650234      0.58496771881598
  H   1.69700019080571     -0.07583127236781      1.39443336047532
  H   2.57669943382392     -0.43194419689054     -0.09539769584447
  N   0.74804075186826      1.42044346077731     -0.76738851598611
  O   -0.04698286078461      1.92639162588329     -1.56048594935641
  O   1.71201449183283      1.98888331716240     -0.27241544788140
