16
Coordinates from ORCA-job run
  C   -1.04397703094646      0.09574432596097      0.14335485473538
  C   0.35186999044170      0.35428000564650     -0.46542565952728
  Br  -2.10814182330238      1.74030453808211     -0.08506796345309
  H   0.21033878718294      0.54632997242990     -1.53125425913360
  N   -1.75839920960796     -0.97169308184241     -0.50323973724296
  H   -1.75308075597879     -0.86988756057942     -1.51085508441332
  H   -1.40943224801375     -1.88060847928442     -0.22628054914635
  C   -0.97419109915674     -0.21064999254652      1.57294607643462
  N   -0.92767104303109     -0.55207327361178      2.69640143716408
  C   1.32144150966969     -0.78863368047488     -0.21605173677525
  H   0.94945944237948     -1.71025533086275     -0.66520027407557
  H   2.28455920731120     -0.55729356634889     -0.67544229698702
  H   1.47106001896142     -0.93959288240728      0.85394938469773
  N   0.96750758233445      1.60988405617930      0.07111960594018
  O   1.12145970772393      1.67089799968495      1.28810318224634
  O   1.29719696403236      2.46324694997463     -0.74805698046390
