16
Coordinates from ORCA-job run
  C   -0.98825894594251      0.12155195556473      0.02622607098874
  C   0.43513664327888      0.36025150878573     -0.49766638922054
  Br  -2.06371823204904      1.72026961802422     -0.31425461145864
  H   0.34485730375559      0.56530448929357     -1.56423795719951
  N   -1.56167807608572     -0.96118132320464     -0.75721910244563
  H   -2.56693639361443     -0.97948029987189     -0.62398548457815
  H   -1.19415173104363     -1.84601526737056     -0.41956047659860
  C   -1.03460754497967     -0.14022038515951      1.47127261593163
  N   -1.12463575239354     -0.48432401074938      2.59264402786143
  C   1.37236219777821     -0.80102039070057     -0.21164979719029
  H   2.37505803027055     -0.55328757891565     -0.56614023406716
  H   1.42234434761258     -1.00719832652172      0.85876843397197
  H   1.04488331147105     -1.69226392722940     -0.74866684273467
  N   1.02488507376192      1.59825397092807      0.10337829759350
  O   1.13193325404363      1.62348523893991      1.32708598879514
  O   1.38352651413612      2.47787472818709     -0.67499453964924
