16
Coordinates from ORCA-job run
  C   -0.89517689137961     -0.09440162543160      0.30372622548047
  C   0.52724609321055     -0.04603620577582     -0.29009210215368
  Br  -1.07189810439847      0.99764574514225      1.92585992630001
  H   0.53689800509809     -0.77501285820955     -1.10616221255051
  N   -1.83696901620230      0.40898301563560     -0.65555006617853
  H   -2.78847851764675      0.30337400523195     -0.32566338004153
  H   -1.72744740987002     -0.05273241255413     -1.55264962605502
  C   -1.13119257298609     -1.48416505191859      0.73242117137616
  N   -1.33822747023528     -2.61062925496559      1.00202304826035
  C   1.65433588034501     -0.30756640826998      0.68325538971532
  H   1.50293377965269     -1.26674244339639      1.18239258926171
  H   1.70928762999559      0.48328647902375      1.42825520273650
  H   2.60132302753507     -0.34765670285789      0.14150326611123
  N   0.70988567227100      1.27415336879835     -0.98212874791654
  O   1.04030044449947      2.23318106711970     -0.29336217335564
  O   0.50717945011105      1.28531928242795     -2.19482851099028
