16
Coordinates from ORCA-job run
  C   -1.05664255158037     -0.04388668629251     -0.18292778425917
  C   0.42797306895635      0.30937255040245     -0.48149749509198
  Br  -1.78444376371630     -0.73787834211402     -1.87822418038461
  H   0.47253562786462      0.93779659250742     -1.37129231023212
  N   -1.34051345685133     -1.01356252922188      0.83577308865926
  H   -0.94032246154947     -0.70192350316937      1.71481415222087
  H   -0.95688696675526     -1.91729287287698      0.58755061146958
  C   -1.77872353472424      1.19735785947555      0.11528952800515
  N   -2.31111813431881      2.21414080053569      0.36912307104441
  C   1.34411122522175     -0.89361900147999     -0.58540524135464
  H   1.37322827070174     -1.43683085694660      0.35946508634588
  H   2.35657544002462     -0.56218798114198     -0.82410122175945
  H   1.00484793948234     -1.55847606917006     -1.38016420147207
  N   0.93255497754872      1.18844037150755      0.62960347630312
  O   1.43309027521489      2.26277266854865      0.31390834684033
  O   0.82173404448074      0.75477699943608      1.77708507366545
