16
Coordinates from ORCA-job run
  C   -1.04660688167400      0.07360491356813      0.13606612113448
  C   0.34678553207187      0.35704834483998     -0.46675867164719
  Br  -2.14539445816318      1.69217413112534     -0.11599268384635
  H   0.20759550753890      0.53521570153383     -1.53523764488390
  N   -1.73317746249111     -1.01576831852241     -0.50408189743065
  H   -1.72072816981663     -0.92565192448707     -1.51277996241198
  H   -1.36743881506396     -1.91392207790931     -0.21377512234133
  C   -0.98011975110774     -0.21626991490991      1.56919493860059
  N   -0.93573809460613     -0.54395378327436      2.69686516365359
  C   1.34024434072650     -0.76104951157416     -0.19950728002646
  H   2.29933246158567     -0.51530175845975     -0.66013301154748
  H   0.98885663307316     -1.69683691617362     -0.63597956524058
  H   1.49020494752174     -0.89386662140776      0.87297847503214
  N   0.93139906512638      1.63152356979855      0.06007772628546
  O   1.07684988321187      1.70955388179778      1.27698605015184
  O   1.24793526206665      2.48250028405475     -0.76692263548219
