16
Coordinates from ORCA-job run
  C   -0.95181928349583     -0.09332080158636      0.29710634229187
  C   0.48251084443262     -0.02155590640911     -0.31446951408209
  Br  -1.10736778155961      1.32298438348580      1.66805754386600
  H   0.45834508834903     -0.68161201722729     -1.18792349591503
  N   -2.05891038526938      0.03417427228347     -0.60221317070640
  H   -2.19381286708415     -0.82255771666044     -1.12728767226228
  H   -1.91023086236885      0.80624882278761     -1.24121685948936
  C   -1.06630771965106     -1.37758679855303      0.99185861038904
  N   -1.14526467880648     -2.43670556403813      1.49546027900512
  C   1.61394509943468     -0.38312437807143      0.62077018047656
  H   2.56793863021913     -0.28263601683521      0.10213434852959
  H   1.62865129944932      0.26930055649644      1.49199062477979
  H   1.50506370449739     -1.41882358452990      0.94517278564204
  N   0.68440546203924      1.35328635673915     -0.89716360596477
  O   1.51404272424181      2.09091460753388     -0.37932151485394
  O   -0.02218927442787      1.64201378458458     -1.86495488170613
