16
Coordinates from ORCA-job run
  C   -0.99127126522917      0.09972662526253      0.03033886968003
  C   0.42461884766579      0.37212496710997     -0.49658448085228
  Br  -2.10154247891539      1.67783780713202     -0.29639009860033
  H   0.32670628668735      0.58046739133493     -1.56185276360174
  N   -1.54457119520495     -0.98916091072136     -0.75869869826639
  H   -1.15264089398708     -1.86790681498782     -0.43274719393609
  H   -2.54795182761771     -1.03335573251329     -0.61744092059667
  C   -1.02798217696916     -0.17237110884857      1.47371274158244
  N   -1.10574178935143     -0.52704309687578      2.59271817677059
  C   1.38875501297154     -0.76919466032305     -0.21934143092385
  H   2.38456198389361     -0.49663937052261     -0.57507164144154
  H   1.08078999330506     -1.66506615274652     -0.76023963199606
  H   1.44622143111312     -0.98011296037218      0.84983088488393
  N   0.99003875326360      1.61960404357954      0.10837309497381
  O   1.33956276007671      2.50444115194816     -0.66820114937270
  O   1.08944655829813      1.64664882154401      1.33259424169684
