14

C	0.0	0.0	0.0
C	-0.364635	-0.12108	-1.505335
Br	1.985196	0.0	0.0
H	-1.414369	-0.40959	-1.479351
H	0.265263	-0.910642	-1.926877
C	-0.453982	1.238494	0.622565
N	-0.576249	2.298675	1.118516
C	-0.424095	-1.182244	0.746228
N	-0.543216	-2.195415	1.331887
C	-0.19064	1.186978	-2.259042
H	-0.431585	1.034752	-3.315932
H	-0.881842	1.932743	-1.860889
H	0.829204	1.577781	-2.197146
F	-2.384757	0.0	0.0
