14

C	0.0	0.0	0.0
C	-0.379742	-0.077561	-1.50514
Br	1.971159	0.0	0.0
H	0.302111	0.585356	-2.047953
H	-1.405283	0.287226	-1.525471
C	-0.428065	1.272799	0.580289
N	-0.545392	2.364604	1.001217
C	-0.460789	-1.137766	0.7906
N	-0.593312	-2.10571	1.446184
C	-0.325684	-1.498487	-2.040251
H	0.637862	-1.982912	-1.859745
H	-1.114562	-2.08241	-1.563426
H	-0.505963	-1.496106	-3.119219
F	-2.391606	0.0	0.0
