14

C	0.0	0.0	0.0
C	-0.372189	0.054637	-1.510023
Br	1.970067	0.0	0.0
H	-1.378958	-0.352943	-1.546198
H	0.34347	-0.57275	-2.048495
C	-0.460977	1.149607	0.771627
N	-0.585059	2.13707	1.399611
C	-0.422301	-1.26079	0.608145
N	-0.54741	-2.32519	1.092849
C	-0.381264	1.478706	-2.039642
H	-0.521769	1.474699	-3.125023
H	0.543244	2.018368	-1.817851
H	-1.221195	2.006088	-1.586193
F	-2.37035	0.0	0.0
