15

C	-0.498733	0.034335	-1.44392
C	0.0	0.0	0.0
Cl	0.12363	-1.529016	-2.207052
H	1.092267	0.0	0.0
H	-0.333228	-0.919433	0.492041
N	-1.926496	0.093803	-1.49384
H	-2.325125	-0.702929	-1.00999
H	-2.241696	0.068498	-2.456561
C	0.123863	1.180188	-2.214994
H	-0.231513	2.121222	-1.788181
H	1.210947	1.128248	-2.131646
H	-0.165111	1.134072	-3.268618
C	-0.500073	1.15027	0.747983
N	-0.903645	2.074116	1.349819
Cl	3.39215	0.0	0.0
