15

C	-0.305637	0.02885	-1.495496
C	0.0	0.0	0.0
Cl	-2.093742	0.288679	-1.767796
H	1.096005	0.0	0.0
H	-0.346842	0.929071	0.456522
N	0.39026	1.181532	-2.01565
H	0.397621	1.147084	-3.029271
H	1.355343	1.136608	-1.686169
C	0.066206	-1.286884	-2.161848
H	-0.514528	-2.121578	-1.764511
H	1.13044	-1.464308	-1.976704
H	-0.108839	-1.219824	-3.23931
C	-0.551129	-1.148213	0.696315
N	-1.017232	-2.071314	1.252045
Cl	3.338668	0.0	0.0
