18

C	-0.473988	0.027124	-1.423235
C	0.0	0.0	0.0
Cl	0.546676	0.974158	-2.493164
H	1.089547	0.0	0.0
N	-0.480141	-1.38144	-2.025668
O	0.535315	-2.038452	-1.854341
O	-1.466159	-1.714258	-2.677611
N	-1.949431	0.485114	-1.562437
O	-2.689025	0.01894	-0.704647
O	-2.273822	1.193359	-2.497455
C	-0.349609	-1.182482	0.884408
H	-0.287727	-2.120663	0.336083
H	0.405102	-1.215421	1.672756
H	-1.340173	-1.078606	1.326092
N	-0.355577	1.237717	0.64512
O	-0.189193	1.293174	1.874069
O	-0.67486	2.216766	-0.058606
H	2.381601	0.0	0.0
