18

C	-0.585756	-0.015826	-1.387611
C	0.0	0.0	0.0
Cl	-2.353504	0.045242	-1.443794
H	1.090824	0.0	0.0
N	0.006125	1.087455	-2.304187
O	1.213718	1.21265	-2.172026
O	-0.720428	1.653386	-3.102708
N	-0.131947	-1.269146	-2.17797
O	0.940575	-1.753898	-1.84113
O	-0.81729	-1.598839	-3.139707
C	-0.382561	-1.207398	0.835827
H	-0.075877	-2.113281	0.309413
H	-1.453146	-1.24652	1.067145
H	0.192487	-1.162377	1.762832
N	-0.369418	1.241136	0.629405
O	-0.227011	1.308308	1.865402
O	-0.644238	2.223008	-0.093719
H	2.389019	0.0	0.0
