18

C	-0.543489	-0.022967	-1.400266
C	0.0	0.0	0.0
Cl	-2.304649	0.026262	-1.494183
H	1.090833	0.0	0.0
N	0.053903	1.08234	-2.323952
O	1.260067	1.224042	-2.195939
O	-0.681143	1.627428	-3.129626
N	-0.059187	-1.279929	-2.1566
O	-0.687397	-1.599912	-3.160671
O	0.97176	-1.797405	-1.743683
C	-0.419163	-1.191632	0.833627
H	-1.49622	-1.195241	1.018408
H	-0.123688	-2.117126	0.340968
H	0.107322	-1.134178	1.784896
N	-0.372952	1.238501	0.624126
O	-0.549482	2.241828	-0.100439
O	-0.336814	1.28431	1.868575
H	2.374723	0.0	0.0
