18

C	-0.512377	-0.032784	-1.40399
C	0.0	0.0	0.0
Cl	-2.222426	-0.484463	-1.587983
H	1.088627	0.0	0.0
N	-0.227965	1.27601	-2.174365
O	0.934616	1.637227	-2.06305
O	-1.102348	1.775339	-2.856208
N	0.291516	-1.045765	-2.244035
O	0.956893	-1.884832	-1.652862
O	0.211546	-0.901587	-3.460253
C	-0.368882	-1.200557	0.85693
H	-1.40997	-1.146982	1.186649
H	-0.202961	-2.124721	0.30954
H	0.290413	-1.191935	1.725342
N	-0.419183	1.20872	0.679505
O	-0.120498	1.281246	1.881707
O	-0.966536	2.131678	0.04624
H	2.40561	0.0	0.0
