18

C	-0.467332	-0.018636	-1.429285
C	0.0	0.0	0.0
Cl	-2.223626	0.145833	-1.607813
H	1.091396	0.0	0.0
N	0.236691	1.037974	-2.326561
O	1.426086	0.795178	-2.483452
O	-0.408862	1.961408	-2.787678
N	-0.041112	-1.310114	-2.14738
O	0.811497	-2.001922	-1.607945
O	-0.535737	-1.491836	-3.254617
C	-0.524971	-1.141712	0.840268
H	-0.123999	-1.025362	1.847009
H	-0.172632	-2.090236	0.44204
H	-1.615052	-1.136113	0.902395
N	-0.352375	1.284476	0.575833
O	-0.888097	1.323642	1.697611
O	0.042723	2.288233	-0.042399
H	2.427881	0.0	0.0
