16
Coordinates from ORCA-job run
  C   0.68497751703331      0.36843417679387     -0.18233295317121
  C   -0.70492548104998     -0.16725046278283      0.23883660262368
  Br  0.51933197139038      1.44963988550895     -1.81372943100989
  H   -0.48725818466589     -0.82246593043359      1.09972998034625
  C   1.66304990447105     -0.76905241248232     -0.44815454644000
  H   1.25096532546354     -1.40851885735515     -1.22678244371398
  H   1.79556775617708     -1.35394492924610      0.46695403909565
  H   2.63164810157769     -0.37652036066944     -0.75833853112179
  C   1.19318942229584      1.24685332661519      0.86783192047029
  N   1.59579749016710      1.90211775890274      1.75734780555330
  N   -1.23421395742673     -1.00982417543349     -0.80564078995311
  H   -1.92166467327410     -1.64975764177531     -0.42920854765108
  H   -1.68260596940811     -0.42263504062671     -1.50033905853379
  N   -1.59475138489012      0.93706220507191      0.55908509114381
  H   -1.22374330117597      1.51061329299358      1.30939102035148
  H   -2.48536453668509      0.56424916491871      0.86634984201040
