16
Coordinates from ORCA-job run
  C   0.68415347253923      0.49126179564773     -0.33759028716228
  C   -0.83935060111351      0.25835954490340     -0.12739127681676
  Br  0.94194602868697      1.26067375709003     -2.12215756348554
  H   -1.34337023692478      1.18706692483126     -0.42882238131564
  C   1.49001688902308     -0.79457898031405     -0.22334127087634
  H   1.31524562466771     -1.23520832764437      0.76024145131612
  H   1.16526469778870     -1.48419618603944     -1.00233260847688
  H   2.55393790554255     -0.59179132422389     -0.34877056750606
  C   1.15110280561134      1.48965432877837      0.62060140453787
  N   1.48297039074754      2.26929470832423      1.43600117378765
  N   -1.03772677212162     -0.09593734132307      1.27620360840318
  H   -2.02095985782868     -0.29386476048994      1.42333151701136
  H   -0.78517402507954      0.67224460865297      1.88919578764609
  N   -1.28759214553945     -0.80130188382412     -0.99542882003246
  H   -2.23322163512551     -0.64627035412911     -1.31387818356169
  H   -1.23724254087402     -1.68640651023999     -0.50586198346864
