16
Coordinates from ORCA-job run
  C   0.70539646830811      0.19546379284656     -0.46079942222730
  C   -0.74042818902456     -0.31597739711332     -0.24429028306498
  Br  1.03251176910856      0.43134382919494     -2.37933215075442
  H   -0.81314296215037     -1.25974268690011     -0.79457084943694
  C   1.75369693003901     -0.76815806241947      0.08566977654008
  H   1.61731535924941     -0.88517974095965      1.15963021842285
  H   2.75646770085522     -0.39766259395148     -0.12935578009417
  H   1.62759129648806     -1.74090582223823     -0.39434315110740
  C   0.81893999873147      1.50615903157262      0.17566666929261
  N   0.84160186382068      2.53222360267454      0.74987888960376
  N   -1.68750394256913      0.60870731931587     -0.83300176982351
  H   -1.73341024881471      1.46627805196564     -0.29251636410678
  H   -2.61216304703891      0.19698374555370     -0.85082981255190
  N   -0.87596539083111     -0.62867295506663      1.17668484455824
  H   -0.97397977232383      0.23130730034949      1.70833636889917
  H   -1.71792783384789     -1.17316741482448      1.32317281585069
