16
Coordinates from ORCA-job run
  C   0.69368278132989      0.35153301720580     -0.18649875573628
  C   -0.70763765225689     -0.14998774899168      0.23921643472465
  Br  0.55524690748857      1.40618029726038     -1.83750710158421
  H   -0.50537691264210     -0.79285284776749      1.11303346862934
  C   1.65060503026486     -0.80914171519330     -0.42795220638919
  H   1.23112734567470     -1.45341963888308     -1.19859556946558
  H   1.76586975635411     -1.38211614366387      0.49702889637917
  H   2.62863999737043     -0.44059757748173     -0.73808115189521
  C   1.21403042626896      1.24013827769721      0.84944455654717
  N   1.60800625337269      1.91160034092971      1.73076653860188
  N   -1.24847150034715     -1.00151220498978     -0.79193290453502
  H   -1.95003822900100     -1.62075267028485     -0.40690847060205
  H   -1.68239448756716     -0.41880076237641     -1.49951272945909
  N   -1.57775194031871      0.97654935213033      0.53540452196646
  H   -2.47666121968976      0.62656430136992      0.84538282455315
  H   -1.19887655630143      1.55661572303885      1.27671164826481
