16
Coordinates from ORCA-job run
  C   0.69243990646415      0.36348469941624     -0.10531225764436
  C   -0.67935887768520     -0.17579855488468      0.34704476149748
  Br  0.42563505225585      1.58045282025149     -1.64490831403990
  H   -0.45190921677270     -0.82805353850422      1.19972249889400
  C   1.64469535138806     -0.74466859584272     -0.53326228169501
  H   1.20424465712744     -1.30759853651413     -1.35328728742571
  H   2.60688516598246     -0.32805252269018     -0.83269832636993
  H   1.80072624644785     -1.41901063385827      0.31423480608099
  C   1.28460848945459      1.16090089049660      0.96494301947203
  N   1.82947641465897      1.74008599327208      1.83018280644195
  N   -1.22511575110248     -1.02834502659698     -0.69746979842570
  H   -1.56596095461471     -0.45846379746581     -1.46395624147906
  H   -2.00670519820413     -1.55764372499117     -0.33037343758090
  N   -1.47834632813166      0.91885969946275      0.86215995415782
  H   -2.29911823086687      0.56249941007829      1.33593241127394
  H   -1.78119672640162      1.52335141837072      0.10704768684236
