16

C	0.0	0.0	0.0
C	-0.555032	0.074201	-1.415959
Cl	1.793498	0.0	0.0
H	-1.644976	0.172664	-1.307094
H	-0.301221	-0.988933	0.346209
C	-0.501737	1.06426	0.953901
H	-1.593778	1.068846	0.915904
H	-0.11857	2.049024	0.688263
H	-0.174929	0.820682	1.96776
N	-0.219289	-1.076142	-2.179961
H	0.752393	-1.040801	-2.458784
H	-0.795493	-1.120816	-3.009081
N	-0.086256	1.372022	-2.082337
O	0.74498	1.286061	-2.988199
O	-0.565328	2.425309	-1.670941
Br	-3.903419	0.0	0.0
