16

C	0.0	0.0	0.0
C	-0.550261	0.120542	-1.414719
Cl	1.793485	0.0	0.0
H	-1.638347	0.234255	-1.311227
H	-0.300763	-0.996814	0.317756
C	-0.49738	1.041989	0.977385
H	-0.087174	2.024498	0.751718
H	-0.195042	0.756905	1.987615
H	-1.587234	1.07543	0.923997
N	-0.226226	-1.010257	-2.208711
H	-0.767835	-1.001516	-3.064961
H	0.759076	-0.998136	-2.448518
N	-0.058273	1.431636	-2.045631
O	0.762354	1.356436	-2.962649
O	-0.518112	2.481342	-1.599324
Br	-3.896792	0.0	0.0
