16

C	0.0	0.0	0.0
C	-0.436047	0.286093	-1.445871
Cl	1.785944	0.0	0.0
H	0.361492	0.814014	-1.975084
H	-0.301295	-1.008086	0.278057
C	-0.527064	1.017453	0.990216
H	-0.129226	0.800593	1.98447
H	-0.243005	2.029519	0.699891
H	-1.617176	0.952213	1.019444
N	-1.632754	1.012856	-1.567385
H	-2.441322	0.592234	-1.095467
H	-1.855485	1.171313	-2.540886
N	-0.449742	-1.06157	-2.246371
O	-0.828424	-0.953086	-3.411575
O	-0.060711	-2.102889	-1.726209
Br	-4.388664	0.0	0.0
