16

C	0.0	0.0	0.0
C	-0.420155	0.290492	-1.442452
Cl	1.792301	0.0	0.0
H	0.024992	1.230295	-1.775294
H	-0.300216	-1.020971	0.248489
C	-0.570874	1.000596	0.978565
H	-1.663108	0.939376	0.956558
H	-0.258979	2.015743	0.721099
H	-0.229678	0.774854	1.989572
N	-1.79636	0.219252	-1.723316
H	-2.399921	-0.23861	-1.043068
H	-2.223845	1.097804	-1.962286
N	0.266933	-0.741335	-2.348978
O	0.148305	-1.922208	-2.04509
O	0.814805	-0.317916	-3.363938
Br	-4.564677	0.0	0.0
