16

C	0.0	0.0	0.0
C	-0.443085	0.253994	-1.448068
Cl	1.786024	0.0	0.0
H	0.352589	0.767919	-1.992884
H	-0.305335	-0.999536	0.302
C	-0.519935	1.043254	0.967633
H	-1.61047	1.001096	0.989898
H	-0.13381	0.83664	1.969688
H	-0.212929	2.044591	0.663692
N	-1.636909	0.982661	-1.576539
H	-2.451684	0.571074	-1.106497
H	-1.856284	1.155267	-2.546788
N	-0.470562	-1.113165	-2.216852
O	-0.085306	-2.146489	-1.6777
O	-0.872986	-1.02999	-3.375794
Br	-4.398605	0.0	0.0
