16

C	0.0	0.0	0.0
C	-0.554812	0.051534	-1.416858
Cl	1.79346	0.0	0.0
H	-1.644039	0.15342	-1.307998
H	-0.30027	-0.984069	0.360379
C	-0.502472	1.075733	0.939466
H	-0.130644	2.059133	0.654755
H	-1.594495	1.069704	0.907067
H	-0.168056	0.850344	1.954601
N	-0.222424	-1.112314	-2.16097
H	0.749659	-1.084818	-2.44157
H	-0.799707	-1.170985	-2.989055
N	-0.084229	1.336861	-2.105323
O	0.74229	1.233555	-3.013339
O	-0.556559	2.398421	-1.70805
Br	-3.905331	0.0	0.0
