16

C	0.0	0.0	0.0
C	-0.582819	0.015506	-1.418534
Cl	1.789937	0.0	0.0
H	-1.634686	0.299329	-1.303167
H	-0.315037	-0.951329	0.431459
C	-0.470623	1.146567	0.877111
H	-0.117115	2.099512	0.484166
H	-0.087957	1.015371	1.89138
H	-1.562168	1.139015	0.893247
N	-0.503334	-1.204943	-2.155459
H	-1.283761	-1.786963	-1.878344
H	0.372738	-1.685268	-1.994112
N	0.074541	1.117376	-2.210522
O	0.95781	0.813637	-3.007865
O	-0.295402	2.267623	-1.969874
Br	-3.839153	0.0	0.0
