12

C	-0.535199	-0.009945	-1.425167
C	0.0	0.0	0.0
Cl	-0.044488	1.446883	-2.330641
H	1.094008	0.0	0.0
H	-1.627034	-0.036911	-1.442043
H	-0.128515	-0.871929	-1.957237
C	-0.43362	-1.242996	0.638305
N	-0.810297	-2.226188	1.163907
N	-0.418835	1.18064	0.755671
H	0.411798	1.530187	1.224639
H	-1.108803	0.948882	1.457511
H	2.744645	0.0	0.0
