12

C	-0.463175	-0.066057	-1.459246
C	0.0	0.0	0.0
Cl	-0.138834	1.465286	-2.328913
H	1.095207	0.0	0.0
H	-1.536376	-0.249424	-1.542996
H	0.095693	-0.847494	-1.972864
C	-0.468686	-1.237671	0.628586
N	-0.877559	-2.238517	1.091512
N	-0.439061	1.146429	0.777999
H	-1.368226	1.445791	0.501146
H	0.216434	1.899242	0.588848
H	2.768812	0.0	0.0
