12

C	-0.397106	-0.099412	-1.447037
C	0.0	0.0	0.0
Cl	-2.184822	-0.026361	-1.701324
H	1.103856	0.0	0.0
H	0.032012	0.753316	-1.971717
H	-0.048576	-1.035349	-1.886373
C	-0.466353	-1.1487	0.77731
N	-0.830593	-2.068081	1.415643
N	-0.36843	1.288092	0.577825
H	0.37631	1.550476	1.218994
H	-1.245537	1.244506	1.080777
H	2.715276	0.0	0.0
