14

C	0.0	0.0	0.0
C	-0.299235	0.134432	-1.598098
F	1.381282	0.0	0.0
H	0.222668	-0.772208	-1.961035
H	-0.368652	0.847105	0.564132
C	-0.436932	-1.283458	0.572909
N	-0.444474	-2.375705	1.027463
C	0.453309	1.37804	-2.141735
H	0.287089	1.41688	-3.214193
H	1.529597	1.355523	-1.954085
H	0.01554	2.279125	-1.723033
C	-1.571728	0.156978	-2.331876
N	-2.524877	0.234082	-2.980098
Cl	-2.950535	0.0	0.0
