14

C	0.0	0.0	0.0
C	-0.509401	-0.093675	-1.438077
F	1.378928	0.0	0.0
H	-1.602032	0.027704	-1.356971
H	-0.361693	0.917158	0.468435
C	-0.410018	-1.158762	0.813489
N	-0.57229	-2.078062	1.525068
C	-0.168012	-1.432858	-2.092666
H	0.906366	-1.628013	-2.055436
H	-0.698991	-2.231721	-1.572063
H	-0.488402	-1.433127	-3.135984
C	0.053159	1.018735	-2.202315
N	0.510601	1.891903	-2.841035
Cl	-3.39641	0.0	0.0
