14

C	0.0	0.0	0.0
C	-0.366712	0.399958	-1.460767
F	1.381349	0.0	0.0
H	0.606952	0.354482	-1.964349
H	-0.37761	0.722556	0.720933
C	-0.400044	-1.363338	0.379183
N	-0.478304	-2.49039	0.699331
C	-0.873873	1.838537	-1.566835
H	-1.849675	1.903979	-1.090765
H	-0.953711	2.131627	-2.616631
H	-0.162424	2.509737	-1.075068
C	-1.196109	-0.547698	-2.207591
N	-1.679293	-1.274242	-2.994972
Cl	-3.100963	0.0	0.0
