14

C	0.0	0.0	0.0
C	-0.370229	-0.265981	-1.49103
F	1.377936	0.0	0.0
H	0.600174	-0.531742	-1.928672
H	-0.377829	0.963399	0.33738
C	-0.405182	-1.064142	0.93029
N	-0.496647	-1.9385	1.709175
C	-0.868348	0.9979	-2.189157
H	-0.129954	1.796361	-2.059515
H	-1.008596	0.830209	-3.259133
H	-1.818426	1.289272	-1.744041
C	-1.20286	-1.440735	-1.754225
N	-1.662243	-2.467991	-2.093571
Cl	-3.117825	0.0	0.0
