14

C	0.0	0.0	0.0
C	-0.510523	0.07628	-1.4397
F	1.378024	0.0	0.0
H	-0.177507	1.046413	-1.828715
H	-0.354579	0.8693	0.560555
C	-0.434784	-1.231249	0.680794
N	-0.701395	-2.208045	1.27415
C	-2.036212	-0.029138	-1.505233
H	-2.534127	0.709116	-0.876526
H	-2.378827	0.111513	-2.531007
H	-2.392605	-0.998017	-1.157955
C	0.14592	-0.960253	-2.243542
N	0.657195	-1.801963	-2.882512
Cl	-5.009735	0.0	0.0
