14

C	0.0	0.0	0.0
C	-0.512523	0.164699	-1.42948
F	1.378917	0.0	0.0
H	-1.602461	0.280922	-1.322531
H	-0.358345	0.824466	0.618404
C	-0.420172	-1.272339	0.609262
N	-0.58531	-2.312071	1.129927
C	-0.191007	-1.040266	-2.31359
H	0.879453	-1.258238	-2.313084
H	-0.737881	-1.907704	-1.940528
H	-0.509362	-0.847944	-3.339267
C	0.060507	1.390348	-1.986184
N	0.523269	2.360411	-2.461834
Cl	-3.390863	0.0	0.0
