14

C	0.0	0.0	0.0
C	-0.509545	0.154802	-1.432576
F	1.378963	0.0	0.0
H	-1.600564	0.275899	-1.3278
H	-0.356506	0.832694	0.609558
C	-0.421106	-1.266884	0.622379
N	-0.578998	-2.298757	1.158557
C	-0.192145	-1.055641	-2.30852
H	-0.506946	-0.866789	-3.336498
H	0.876997	-1.27885	-2.305683
H	-0.744832	-1.91979	-1.937026
C	0.066821	1.375324	-1.995817
N	0.529407	2.342378	-2.476345
Cl	-3.37634	0.0	0.0
