14

C	0.0	0.0	0.0
C	-0.483708	0.050328	-1.450963
F	1.377989	0.0	0.0
H	0.096244	0.858393	-1.913817
H	-0.348467	0.892918	0.527345
C	-0.448106	-1.201736	0.718501
N	-0.726665	-2.173319	1.314716
C	-1.983552	0.346559	-1.561909
H	-2.343468	0.090891	-2.558964
H	-2.606156	-0.196435	-0.847588
H	-2.173373	1.408348	-1.387833
C	-0.100095	-1.187302	-2.137311
N	0.201387	-2.159771	-2.721875
Cl	-4.944392	0.0	0.0
