14

C	0.0	0.0	0.0
C	-0.412858	-0.073438	-1.489315
F	1.378002	0.0	0.0
H	0.428197	0.415242	-1.995754
H	-0.344414	0.942842	0.433426
C	-0.454288	-1.127263	0.823765
N	-0.712279	-2.049766	1.50182
C	-1.699002	0.664938	-1.854848
H	-1.585907	1.724157	-1.607562
H	-1.860292	0.587346	-2.933437
H	-2.582022	0.283857	-1.332045
C	-0.422159	-1.457521	-1.969775
N	-0.442079	-2.55207	-2.392299
Cl	-4.508997	0.0	0.0
