14

C	0.0	0.0	0.0
C	-0.511522	-0.362456	-1.386035
Br	1.915676	0.0	0.0
H	-1.610111	-0.302414	-1.255037
H	-0.342933	-0.760693	0.717176
N	-0.61681	1.247525	0.494938
O	-0.386374	1.493191	1.704035
O	-1.7586	1.449533	-0.09161
C	-0.19778	-1.767531	-1.700026
N	0.002025	-2.885481	-2.004604
N	-0.065893	0.574448	-2.403349
H	-0.744494	0.600888	-3.152485
H	0.830718	0.292775	-2.779854
H	-2.826037	0.0	0.0
