14

C	0.0	0.0	0.0
C	-0.251617	0.017428	-1.580883
Br	1.925572	0.0	0.0
H	0.199071	-0.935098	-1.889618
H	-0.335758	-0.88731	0.512795
N	-0.493722	1.182401	0.727917
O	-0.559692	2.239937	0.085702
O	-0.551712	1.096356	1.959367
C	0.542578	1.069003	-2.243211
N	1.122426	1.861322	-2.88621
N	-1.559094	0.100734	-2.205868
H	-2.155943	-0.511557	-1.656866
H	-1.932976	1.010805	-1.957677
H	-2.233062	0.0	0.0
