14

C	0.0	0.0	0.0
C	-0.428351	0.023253	-1.509311
Br	1.918676	0.0	0.0
H	0.155284	0.816624	-1.987897
H	-0.26406	-0.914714	0.513261
N	-0.627873	1.095384	0.722138
O	-0.513001	1.07621	1.964238
O	-0.675245	2.183584	0.046225
C	-1.903588	0.306866	-1.637015
N	-3.02793	0.389129	-2.002511
N	-0.092768	-1.256371	-2.121977
H	-0.742772	-1.958527	-1.764839
H	-0.265877	-1.190068	-3.126605
H	-1.971877	0.0	0.0
