14

C	0.0	0.0	0.0
C	-0.388762	-0.055638	-1.501379
Br	1.919201	0.0	0.0
H	-1.481467	0.068731	-1.45802
H	-0.322495	-0.881963	0.539376
N	-0.651881	1.149305	0.681386
O	-0.702382	2.221356	0.026976
O	-0.644159	1.110635	1.92662
C	-0.125759	-1.400433	-2.017693
N	0.023977	-2.480189	-2.457164
N	0.306456	0.935551	-2.336392
H	-0.190634	0.964757	-3.220184
H	0.132189	1.822322	-1.870438
H	-2.294903	0.0	0.0
