15

C	0.0	0.0	0.0
C	-0.509533	-0.005095	-1.42668
Cl	1.851444	0.0	0.0
H	-1.601476	0.105574	-1.323036
H	-0.265705	0.934933	0.483667
N	-0.532954	-1.090269	0.662515
H	-0.44626	-1.10905	1.660574
H	-0.427715	-1.971871	0.191451
N	-0.158227	-1.198211	-2.109613
H	0.819634	-1.179296	-2.366647
H	-0.714459	-1.306567	-2.944347
N	-0.010815	1.261139	-2.123636
O	0.526128	1.142801	-3.22519
O	-0.194819	2.323837	-1.539938
Cl	-3.754701	0.0	0.0
