15

C	0.0	0.0	0.0
C	-0.321673	-0.116752	-1.516178
Cl	1.7808	0.0	0.0
H	0.188915	0.696401	-2.037589
H	-0.313594	1.001545	0.298958
N	-0.576434	-0.949056	0.886785
H	-1.544622	-0.687963	1.064219
H	-0.557396	-1.867526	0.463132
N	-1.675486	-0.234534	-1.870401
H	-1.975213	0.475348	-2.52048
H	-2.362735	-0.304974	-1.116191
N	0.407653	-1.350054	-2.082215
O	1.068726	-1.193203	-3.106795
O	0.225113	-2.43068	-1.525767
Cl	-4.132791	0.0	0.0
