15

C	0.0	0.0	0.0
C	-0.408494	0.40234	-1.461648
Cl	1.78496	0.0	0.0
H	0.481392	0.674416	-2.034826
H	-0.295021	0.86395	0.595767
N	-0.539478	-1.165139	0.611717
H	-1.538433	-0.996903	0.741975
H	-0.422084	-1.959697	-0.002529
N	-1.33011	1.47148	-1.454685
H	-1.59634	1.701333	-2.404042
H	-2.177362	1.179869	-0.954135
N	-0.879848	-0.828204	-2.277656
O	-1.753516	-0.643356	-3.116859
O	-0.264771	-1.885169	-2.124415
Cl	-3.71493	0.0	0.0
