15

C	0.0	0.0	0.0
C	-0.524802	0.146607	-1.426105
Cl	1.778478	0.0	0.0
H	-1.593353	0.379955	-1.321251
H	-0.28726	0.893332	0.555127
N	-0.509889	-1.240095	0.531245
H	-1.532215	-1.142599	0.498019
H	-0.244087	-1.30899	1.507033
N	-0.225055	-0.997859	-2.221425
H	-0.130478	-1.78427	-1.587679
H	-0.987201	-1.185737	-2.85748
N	0.057884	1.404088	-2.047805
O	0.405198	1.372258	-3.222784
O	0.062312	2.40912	-1.337364
Cl	-3.556038	0.0	0.0
