15

C	0.0	0.0	0.0
C	-0.517188	0.15287	-1.424828
Cl	1.805905	0.0	0.0
H	-1.590684	0.368415	-1.323661
H	-0.273076	0.893878	0.560703
N	-0.50312	-1.241528	0.525931
H	-1.526273	-1.150746	0.490361
H	-0.240024	-1.312706	1.502331
N	-0.196211	-0.980424	-2.229866
H	-0.942877	-1.162724	-2.885243
H	-0.108723	-1.773886	-1.605036
N	0.044643	1.421486	-2.039352
O	0.090204	2.412208	-1.311785
O	0.328469	1.411507	-3.232111
Cl	-3.54956	0.0	0.0
