15

C	0.0	0.0	0.0
C	-0.350023	0.201346	-1.526253
Cl	1.87371	0.0	0.0
H	0.540792	0.590156	-2.023306
H	-0.268484	0.93743	0.487566
N	-0.5501	-1.07448	0.730341
H	-0.437716	-1.943933	0.225083
H	-1.545438	-0.883605	0.862686
N	-1.459376	1.02135	-1.853515
H	-2.299113	0.748337	-1.331939
H	-1.23784	1.987155	-1.652621
N	-0.535203	-1.16929	-2.16314
O	-1.497283	-1.368902	-2.889501
O	0.338829	-1.999619	-1.902468
Cl	-3.794501	0.0	0.0
