15

C	0.0	0.0	0.0
C	-0.383455	0.403801	-1.460987
Cl	1.820061	0.0	0.0
H	0.492251	0.806966	-1.974593
H	-0.281908	0.863605	0.600573
N	-0.551177	-1.163636	0.595381
H	-0.441919	-1.958912	-0.019096
H	-1.545458	-0.991364	0.751538
N	-1.425558	1.349725	-1.481076
H	-2.265755	0.987848	-1.013346
H	-1.668987	1.587616	-2.433539
N	-0.651224	-0.858977	-2.325052
O	0.03272	-1.862289	-2.116923
O	-1.456691	-0.741681	-3.242317
Cl	-3.853484	0.0	0.0
