14

C	-0.504068	0.21781	-1.425246
C	0.0	0.0	0.0
F	-0.628208	-1.064881	-1.99562
H	1.088344	0.0	0.0
H	-1.516162	0.641885	-1.420073
H	-0.367618	-0.943989	0.397359
C	0.427825	1.032965	-2.294163
H	0.089716	1.001072	-3.334403
H	1.443062	0.640588	-2.209904
H	0.43405	2.066674	-1.945346
N	-0.452578	1.049828	0.900027
O	-0.513119	2.207514	0.461192
O	-0.685617	0.751652	2.076478
H	2.758109	0.0	0.0
