14

C	-0.426692	-0.008959	-1.435743
C	0.0	0.0	0.0
F	-1.832594	-0.100631	-1.544246
H	1.091576	0.0	0.0
H	-0.147813	0.939398	-1.896937
H	-0.371735	-0.863533	0.550802
C	0.203317	-1.176564	-2.157203
H	1.288729	-1.117845	-2.034421
H	-0.148438	-2.116855	-1.724884
H	-0.059956	-1.160929	-3.217425
N	-0.461599	1.191504	0.718502
O	-0.785219	1.059839	1.903603
O	-0.431818	2.276205	0.129866
H	2.745432	0.0	0.0
