14

C	-0.477208	-0.005876	-1.438188
C	0.0	0.0	0.0
F	-0.173053	1.263892	-1.948105
H	1.089778	0.0	0.0
H	0.1091	-0.725998	-2.009943
H	-0.369862	0.869792	0.542522
C	-1.96217	-0.218596	-1.639595
H	-2.25158	-1.21283	-1.308385
H	-2.52254	0.529747	-1.075286
H	-2.210056	-0.113681	-2.699095
N	-0.427624	-1.186203	0.715522
O	-0.420004	-2.262891	0.095916
O	-0.668472	-1.094525	1.92972
H	2.659376	0.0	0.0
