14

C	-0.53241	0.227961	-1.408662
C	0.0	0.0	0.0
F	-0.673827	-1.046977	-1.992743
H	1.088332	0.0	0.0
H	-1.539931	0.658764	-1.382527
H	-0.353278	-0.947966	0.40245
C	0.390629	1.046276	-2.278262
H	0.020967	1.062193	-3.307696
H	1.39513	0.622417	-2.234582
H	0.43874	2.064609	-1.891224
N	-0.429878	1.044647	0.92148
O	-0.619862	2.18346	0.467325
O	-0.505904	0.764034	2.122542
H	2.748028	0.0	0.0
