14

C	-0.394639	0.024162	-1.451758
C	0.0	0.0	0.0
F	-1.797757	0.121946	-1.594111
H	1.090028	0.0	0.0
H	0.013604	0.967882	-1.831506
H	-0.377631	0.879241	0.519765
C	0.111041	-1.112656	-2.306039
H	-0.393072	-2.040506	-2.0481
H	1.182065	-1.228619	-2.124031
H	-0.063875	-0.884106	-3.360693
N	-0.479535	-1.155149	0.759768
O	-1.015905	-0.942887	1.855346
O	-0.26047	-2.286635	0.31423
H	2.741175	0.0	0.0
