13
Coordinates from ORCA-job run
  C   -0.30621241377777      0.04192084109791     -0.18133168190027
  C   1.03613161601462      0.06056894374344      0.11608309627024
  N   -0.78123430624450      0.53260364479114     -1.35121206904946
  H   -0.17418961197485      1.08500199263438     -1.93855897597670
  H   -1.76645461248617      0.71789737126201     -1.42946167371753
  C   -1.31733731687936     -0.59137983534176      0.72309116563661
  H   -0.85785676433734     -0.97952584093189      1.62981531135618
  H   -1.81589185682629     -1.41283875350872      0.20187526991508
  H   -2.07891680283601      0.14117994620850      1.00622912173989
  C   1.93791986652905      0.68820762203081     -0.79229419879256
  N   2.60340720416836      1.23064587384873     -1.59791972307939
  C   1.55056668754825     -0.51760649582731      1.31115418026841
  N   1.96806831110200     -0.99667531000725      2.30153017732949
