13
Coordinates from ORCA-job run
  C   -0.31404517605091     -0.12630923701637     -0.11711044225587
  C   1.04212907411764     -0.00320163845479      0.07288488347023
  N   -0.83274969124386     -1.06252712091823     -0.94778334621727
  H   -0.21981100649336     -1.55472015490371     -1.58078899106146
  H   -1.79095695947615     -0.96911253785014     -1.23778316092179
  C   -1.30625767867381      0.70622067669445      0.63393644317990
  H   -0.81562804800593      1.41809929362784      1.29468685686000
  H   -1.93591676897878      1.26136350074165     -0.06779219312833
  H   -1.95410621036735      0.06034217982602      1.23224329395326
  C   1.92560579372400     -0.82583501237685     -0.68541483022118
  N   2.57567126533359     -1.54377081873570     -1.35487870448821
  C   1.59025477616437      0.93138281610789      0.99694190871502
  N   2.03481062995057      1.70806805325796      1.76085828211568
