13
Coordinates from ORCA-job run
  C   -0.29300924631625      0.02660560509585     -0.20408025772964
  C   1.02834169875825      0.05967436480121      0.17415269684138
  N   -0.68735924278218      0.40423744159701     -1.44409311754424
  H   -0.03658609933520      0.89337776795829     -2.04061696842759
  H   -1.66236741088870      0.59579023023105     -1.59813990699038
  C   -1.36872590978567     -0.50296927674731      0.69274827476067
  H   -1.84015249209603     -1.37340691737750      0.22863975953650
  H   -0.97540670020602     -0.79419292648851      1.66466602131793
  H   -2.13967872853305      0.25850408838522      0.84432524292799
  C   1.99526796053548      0.58277586559742     -0.73328398569618
  N   2.71911693506776      1.03553513233631     -1.54401182530596
  C   1.45758289750346     -0.40244833584081      1.45068870856128
  N   1.80397633807813     -0.78248303954823      2.50900535774825
