13
Coordinates from ORCA-job run
  C   -0.29902971818946      0.08909415206278     -0.17412984848567
  C   1.03778551780507     -0.04933602918848      0.11647710624232
  N   -0.72080311334892      0.74656879499248     -1.28095157765945
  H   -0.06288582273019      1.30169797317721     -1.80759232557328
  H   -1.68506215212460      1.02659270058733     -1.33553120306573
  C   -1.36994612200939     -0.53870134296687      0.66279477305666
  H   -2.05327164081313      0.23080119264548      1.03453796877791
  H   -0.95425423756313     -1.07215826543698      1.51526073426055
  H   -1.94911716262538     -1.24013320876759      0.05654769839237
  C   1.48968857982425     -0.80092359195731      1.23833703825806
  N   1.85415572550393     -1.42173548657659      2.16901834710468
  C   1.99816889089692      0.58456133154202     -0.72488221901588
  N   2.71457125537402      1.14567177988653     -1.47188649229254
