13
Coordinates from ORCA-job run
  C   -0.31474808130806     -0.11554782153328     -0.12455173186007
  C   1.04328405538983      0.06120533904740     -0.00135212753519
  N   -0.84058773842256     -0.95456706751593     -1.04895006572748
  H   -1.80262042389757     -1.23178766829132     -0.95545176837419
  H   -0.23419498692859     -1.59850827053011     -1.53458962586510
  C   -1.30039639636258      0.65987146401124      0.69334185486009
  H   -0.80410580549513      1.32539071332740      1.39676903543663
  H   -1.93844339628950      1.25547612414119      0.03511137404330
  H   -1.94106902850539     -0.02502729875703      1.25675571149693
  C   1.91906912122842     -0.72035239906503     -0.81027168422557
  N   2.56056709323314     -1.41152250095727     -1.51515957982574
  C   1.60003297118663      0.99327779580386      0.92000823813624
  N   2.05221261617136      1.76309159031887      1.68634036944016
