13
Coordinates from ORCA-job run
  C   -0.30417824383343      0.06319334092174     -0.17837402291568
  C   1.03181557607078      0.06506038851621      0.14776939668227
  N   -0.75988279490311      0.65318961626027     -1.30901965046896
  H   -0.10025216225911      0.94287915932159     -2.01532446484557
  H   -1.68744089912125      0.43197181647847     -1.62804500963692
  C   -1.34697343119226     -0.51761871329472      0.72563333899314
  H   -2.06304362352696      0.25824054347535      1.00925324760501
  H   -0.90794701885457     -0.93625408388332      1.62932015972582
  H   -1.89475860522737     -1.31022682773557      0.20668437201080
  C   1.96492771030993      0.63763782548609     -0.76534189741728
  N   2.65668663289451      1.12923281629203     -1.58144175592734
  C   1.50948992060453     -0.48127006670325      1.37261544558054
  N   1.90055693903832     -0.93503581513490      2.38527084061416
