13
Coordinates from ORCA-job run
  C   -0.31400189731049     -0.11987000161093     -0.12122524725477
  C   1.04231876832751     -0.01394792114631      0.07919184839750
  N   -0.83666771649397     -1.03817217987099     -0.96836075948428
  H   -1.79397714952318     -0.93792041420431     -1.25848725048262
  H   -0.22557201330978     -1.53557195824415     -1.59871244085003
  C   -1.30239496653206      0.71288974438983      0.63458470343559
  H   -1.92088865305131      1.28565946567474     -0.06286825466852
  H   -1.96211240886272      0.06470577067649      1.21755179380996
  H   -0.80924084789694      1.40888327540089      1.31026164867441
  C   1.92061454172058     -0.83725535197292     -0.68412317292935
  N   2.56304815504001     -1.55388228694655     -1.36222599147206
  C   1.59472632696638      0.90153363701918      1.01952916896831
  N   2.04414786092599      1.66294822083503      1.79588395385588
