13
Coordinates from ORCA-job run
  C   -0.30002246694498     -0.06222223907043     -0.18484591143518
  C   1.02253545190038     -0.10134359927933      0.18941983961283
  N   -0.76319053893735     -0.78567434297434     -1.23208290462454
  H   -0.17840332930883     -1.50230972660241     -1.63552233387586
  H   -1.75590570501649     -0.91239035857049     -1.32890840525840
  C   -1.29513915432576      0.83401943877503      0.48475113534649
  H   -0.84407678608697      1.39935224732989      1.29777437819602
  H   -2.12017970959886      0.24099424452042      0.89040594138048
  H   -1.70917518333067      1.53561953838863     -0.24420456735378
  C   1.53099109792447      0.71016092953670      1.24324297503026
  N   1.94286470363093      1.38181265768525      2.11716864642992
  C   1.90838128081180     -0.98726109241959     -0.49064815357516
  N   2.56032033928234     -1.75075769731933     -1.10555063987308
