13
Coordinates from ORCA-job run
  C   -0.30132885755341     -0.06708805985673     -0.17997430492604
  C   1.02527435445257     -0.09542340143220      0.18055461663638
  N   -0.77312846361566     -0.80772218659335     -1.21155599688324
  H   -0.19082086544153     -1.53009287262025     -1.60838542877521
  H   -1.76644757740627     -0.94158614775349     -1.29216737382590
  C   -1.29255102803875      0.83643421883565      0.48555410630249
  H   -2.10817906744258      0.24664866214509      0.91434287396497
  H   -0.83391436259212      1.42057344579763      1.28075058548626
  H   -1.72130367065661      1.52059295824785     -0.25138847871131
  C   1.54184255091200      0.73711780616525      1.21385853703534
  N   1.96059043192138      1.42817566681062      2.06921898529033
  C   1.90687809286727     -0.98918588929600     -0.49470080794408
  N   2.55408846259371     -1.75944420045006     -1.10610731364997
