13
Coordinates from ORCA-job run
  C   -0.31332082482649     -0.10920085987029     -0.13021461886650
  C   1.04500492018589      0.05149543604524      0.01070130200286
  N   -0.83746979513296     -0.93168779155329     -1.07029763786012
  H   -0.23315150512222     -1.57827773394185     -1.55502504392150
  H   -1.80403481392495     -1.19709259443208     -0.99185053588610
  C   -1.30069474635762      0.66551172054849      0.68625687169525
  H   -0.80615885706565      1.32875879507842      1.39314244324736
  H   -1.93725548988778      1.26249672525668      0.02802029086715
  H   -1.94299660219825     -0.02085296979774      1.24630030592474
  C   1.92027653366991     -0.73220252130547     -0.79667622571816
  N   2.55774970698134     -1.42399348763390     -1.50449851250636
  C   1.60123909288952      0.96489606219279      0.95075352169081
  N   2.05181238078926      1.72014921941301      1.73238783933056
