13
Coordinates from ORCA-job run
  C   -0.30272313230140      0.11063913745381     -0.15137988320991
  C   1.03717545537096     -0.13694291352360      0.03361653838554
  N   -0.75616446858093      0.79703689491356     -1.22751062721476
  H   -0.09998752805326      1.29553872620884     -1.80982464780079
  H   -1.69667281677335      1.15203161257458     -1.21014147836353
  C   -1.35141304291317     -0.42163526551943      0.77539032019842
  H   -0.91453612989069     -0.99309801786981      1.59181860313142
  H   -1.92831849977837      0.40531535606713      1.20046404928570
  H   -2.04067033518681     -1.06548007293641      0.22296623503969
  C   1.51401915834348     -0.91653509174840      1.12552832253414
  N   1.89823337816067     -1.55983402257083      2.03266421251315
  C   1.97458911810782      0.41665803000311     -0.88663130280545
  N   2.66646884349504      0.91730562694745     -1.69696034169363
