13
Coordinates from ORCA-job run
  C   -0.30977235500698     -0.09881405568120     -0.14862254166896
  C   1.03839810437714     -0.03617242230014      0.11422646852083
  N   -0.80693900201534     -0.89545502952144     -1.12487873780439
  H   -1.74972867268387     -0.74106688399948     -1.43824482182954
  H   -0.17625515433478     -1.31492576630991     -1.79129965398543
  C   -1.32050536728980      0.64189090970278      0.67105499976341
  H   -2.00357001117656     -0.06879222308372      1.14404804140146
  H   -1.91106038779032      1.30347569972084      0.03020220368492
  H   -0.84858235765195      1.24297737880082      1.44569809988974
  C   1.56006440494989      0.74287800956088      1.18601392156096
  N   1.98211206065169      1.39279176499553      2.07135541076144
  C   1.94034398280391     -0.76753739696173     -0.71246739050198
  N   2.60749475516696     -1.40124998492325     -1.44708599979246
