13
Coordinates from ORCA-job run
  C   -0.31285798857406     -0.11375941429672     -0.13517162259915
  C   1.04313913759288      0.02101614507519      0.05266599619582
  N   -0.82297963387820     -1.02553981753445     -0.99464241253435
  H   -1.80454959913440     -1.23816022571004     -0.95532772308617
  H   -0.22170842017418     -1.73275303347562     -1.38927557870486
  C   -1.30544392078556      0.75949671764316      0.56813635999954
  H   -1.82501574633886      0.18358892997303      1.33999776328782
  H   -0.82188122245873      1.61021460153023      1.04392029315144
  H   -2.05006588480932      1.12991063457119     -0.14061345928677
  C   1.58841186765311      1.02577347080795      0.90148271187887
  N   2.03310754997107      1.86176225305563      1.59987005939769
  C   1.92786470147585     -0.85743103350779     -0.63697927252559
  N   2.57197915946042     -1.62511922813175     -1.25506311517430
