13
Coordinates from ORCA-job run
  C   -0.32194201932821     -0.09669382797654     -0.12208460747303
  C   1.04490002298595      0.00222273960549     -0.00971610454509
  N   -0.90212023484192     -0.89664200837658     -1.04865283029333
  H   -0.33674303407850     -1.56962469322230     -1.54446293452659
  H   -1.87711743404197     -1.12094640844780     -0.94800735831853
  C   -1.25537269573403      0.72456720442785      0.71212658343787
  H   -1.87044033184532      1.35573912200770      0.06527050519333
  H   -1.92316256637605      0.07075532064192      1.28094404425076
  H   -0.71628067652110      1.36025093549576      1.41160559253968
  C   1.86810438364111     -0.81842093209052     -0.83488221407595
  N   2.46303552893284     -1.53771295709720     -1.55236437313617
  C   1.66184399614607      0.89458789923066      0.91257214023880
  N   2.16429506106113      1.63291760580156      1.67865155670825
