13
Coordinates from ORCA-job run
  C   -0.30972518692341     -0.09164566253913     -0.15366038823486
  C   1.04297172166911      0.03069980567045      0.06048411701742
  N   -0.80246326571577     -0.80919720830988     -1.19150652421467
  H   -1.77467275073402     -1.06548001251869     -1.18125641967104
  H   -0.18507999123004     -1.41324916596270     -1.71331112019091
  C   -1.32141350699136      0.61802740780465      0.69178129742838
  H   -2.00696426696403     -0.10603116605275      1.14215298278056
  H   -0.85014584900071      1.18926491667583      1.48898819379106
  H   -1.90919750380890      1.29902254168802      0.07072527647799
  C   1.56860901881167      0.83958193087708      1.10794966649048
  N   1.99411877930034      1.50717005025355      1.97835390474819
  C   1.94487410494416     -0.68345779994290     -0.78123645986694
  N   2.61008869664296     -1.31370563764352     -1.52046452655566
