13
Coordinates from ORCA-job run
  C   -0.32078622061500     -0.10899739753976     -0.11657370587358
  C   1.04254854773388     -0.03586374324423      0.04506286253184
  N   -0.88717114501022     -0.98135172663923     -0.98477854856421
  H   -0.30459059911394     -1.45884876902439     -1.65625011813661
  H   -1.84781885061896     -0.84262108317913     -1.24720025998253
  C   -1.26941527528884      0.70603476967943      0.70648542864135
  H   -0.74225572438485      1.37301440779925      1.38573039316505
  H   -1.90832344267677      1.30937238202652      0.05460149103564
  H   -1.91284917373071      0.04365540913260      1.29169394745222
  C   1.64160399890144      0.82349973891716      1.00954044616952
  N   2.13060946170274      1.53633824501306      1.80784476161429
  C   1.88248187907271     -0.83707088195945     -0.78252971999371
  N   2.49496654402851     -1.52716135098182     -1.51362697805927
