13
Coordinates from ORCA-job run
  C   -0.30956024050444     -0.10789232840696     -0.14229665669116
  C   1.04004265352045     -0.01430235906018      0.10328793865767
  N   -0.80319065096440     -0.94471765072152     -1.08653559799368
  H   -0.17114758257147     -1.37100337221547     -1.74780428265746
  H   -1.75111922472036     -0.81469592263739     -1.39586962856741
  C   -1.32406827848340      0.64153009041766      0.66443484039170
  H   -1.92939090146462      1.27548962595411      0.00961718079631
  H   -0.85439239406890      1.27178403069737      1.41704145265061
  H   -1.99275754139849     -0.06446260153706      1.16413173150110
  C   1.55947923114704      0.80306485036744      1.14723361640275
  N   1.97886108354018      1.48004011990025      2.01327928225527
  C   1.94514156171838     -0.75501076716828     -0.71170548428525
  N   2.61410228425005     -1.39982371558999     -1.43481439246045
