13
Coordinates from ORCA-job run
  C   -0.30028826943590      0.10239066357541     -0.16468617867911
  C   1.03744859811841     -0.03468889922374      0.12194725930861
  N   -0.72738959198528      0.80273801989830     -1.24293961258911
  H   -1.67836042572758      0.68390482091170     -1.54739665089761
  H   -0.06142452584195      1.07417601635271     -1.95095869375023
  C   -1.37069394742697     -0.43927863683578      0.73113641229604
  H   -2.00924312027078     -1.13235329611591      0.17525890923649
  H   -1.99687647628934      0.37977693431076      1.09487513882690
  H   -0.95176807379500     -0.96624940560126      1.58614586375797
  C   1.49049099821991     -0.70118711340181      1.29593675688981
  N   1.85489903287296     -1.25234769576910      2.26940706140564
  C   1.99820620101275      0.50397036681243     -0.78295835396396
  N   2.71599960054877      0.97814822508629     -1.58676791184143
