13
Coordinates from ORCA-job run
  C   -0.30426772584707      0.01171384931149     -0.18728351958392
  C   1.03534597831721      0.08626391510858      0.11346006066637
  N   -0.77272818118126      0.31267059043609     -1.42232629279874
  H   -0.16462124253106      0.77343518955530     -2.08284801271740
  H   -1.75864710264590      0.47427578563866     -1.53605533224106
  C   -1.31951007268110     -0.48045607746685      0.79693856893873
  H   -1.80721540788991     -1.37774001347861      0.40690198474223
  H   -2.08878198371982      0.28146822923269      0.95428819860056
  H   -0.86684054643824     -0.71732174829394      1.75771073122699
  C   1.54353811416899     -0.29921639029432      1.38657320740376
  N   1.95535298455958     -0.61793617899867      2.44175561474689
  C   1.94090806848004      0.57010079568989     -0.87551950111495
  N   2.60846711740854      0.98374205355969     -1.75259570786944
