13
Coordinates from ORCA-job run
  C   -0.30692639270081     -0.07606982396724     -0.16585002202360
  C   1.04013941305457     -0.01946331052766      0.10424947198165
  N   -0.78940110522559     -0.75966179275037     -1.23103018445711
  H   -0.17990709183969     -1.38723397122189     -1.73408820926525
  H   -1.77208690140319     -0.96993333530864     -1.26337288420267
  C   -1.31870910064061      0.67122903065376      0.64624871403307
  H   -2.05109204509773     -0.02552285846426      1.06496143899404
  H   -1.85312761381545      1.38023854081988      0.00841668830835
  H   -0.85413597562164      1.21757866670954      1.46461072842319
  C   1.55994627073070      0.75522083765950      1.17995846011854
  N   1.98104347515520      1.39632270632943      2.07215462491889
  C   1.94084668797481     -0.76484622636258     -0.71144065052062
  N   2.60341037942941     -1.41585846356948     -1.43481817630849
