13
Coordinates from ORCA-job run
  C   -0.31969127116628     -0.11301696547780     -0.11331461175515
  C   1.04162578341001     -0.04788248583799      0.06896127527769
  N   -0.88355003485864     -1.03903988344799     -0.92562367557791
  H   -1.83832457629326     -0.90910332740105     -1.21291750463774
  H   -0.29614387097807     -1.57055634276883     -1.55092934400798
  C   -1.27018980641163      0.77401241724913      0.62922674240033
  H   -0.74486497456774      1.48134291428617      1.26778078045865
  H   -1.88764748988503      1.33681091711817     -0.07725278170048
  H   -1.93463128966691      0.16648406840248      1.24930177872718
  C   1.88183201286612     -0.92249038862102     -0.68036043322720
  N   2.49048880450233     -1.67725206762642     -1.34816651038710
  C   1.63707244256623      0.87604743143325      0.97413212997167
  N   2.12402427048288      1.64464371269190      1.72016215445805
