13
Coordinates from ORCA-job run
  C   -0.30570526267238      0.04137235828074     -0.18107200028057
  C   1.02230396173650      0.14569276700132      0.15943059143142
  N   -0.78943187442195      0.57830544535617     -1.32677820009050
  H   -1.69457039350129      0.28394617473290     -1.65091056536141
  H   -0.14439931046289      0.90065892054199     -2.03278113289766
  C   -1.31519534139907     -0.59987026109063      0.71970140058539
  H   -2.08926539469463      0.12581098216120      0.98273469949513
  H   -1.79670136222041     -1.43740810491337      0.20601034087064
  H   -0.85885815773331     -0.97308849384368      1.63435578312461
  C   1.52342838453184     -0.35095895589106      1.39630888944221
  N   1.93120900991351     -0.76471809846948      2.41944400843160
  C   1.92457718047417      0.76430263258775     -0.75451062423517
  N   2.59160856044990      1.28695463354617     -1.57193319051568
