13
Coordinates from ORCA-job run
  C   -0.30137264070575      0.00710210056091     -0.19188876462682
  C   1.02814087838006      0.13064542982683      0.13614351669611
  N   -0.76354084539026      0.34017773842655     -1.42082813464061
  H   -0.16777038570518      0.85814931759513     -2.04939898790912
  H   -1.75417726545223      0.45651448045321     -1.54738484541015
  C   -1.30756961706374     -0.57581986221280      0.75129665128598
  H   -1.74778611087634     -1.47477779877671      0.31172566526645
  H   -0.85873918823491     -0.83730061812277      1.70743095923194
  H   -2.11320080213601      0.14231614118804      0.93089715571223
  C   1.53194692074409     -0.28505123844991      1.40151759320837
  N   1.93745630338777     -0.63159748957452      2.45027966644845
  C   1.92618871049746      0.69637782796876     -0.81540443768765
  N   2.58842404255504      1.17426397111727     -1.66338603757518
