13
Coordinates from ORCA-job run
  C   -0.30787447336113      0.08625497393101     -0.16049665513851
  C   1.04190175831736     -0.03019962014817      0.07516358130123
  N   -0.78523259387574      0.74874095493312     -1.24045395919900
  H   -1.75780497812973      1.00216734017437     -1.26238211398960
  H   -0.15949355289006      1.31682793762689     -1.79163426697318
  C   -1.33187690725215     -0.56945343540208      0.71315158063120
  H   -1.91774751046856     -1.28175709750122      0.12616630025281
  H   -2.01741382944104      0.18180693507616      1.11641865203821
  H   -0.87111745206711     -1.09772792822834      1.54542031194451
  C   1.55250232743035     -0.78396129833384      1.17002804199021
  N   1.96772006575078     -1.40803732866106      2.07704187521639
  C   1.95622331459734      0.62743017884799     -0.79855652158559
  N   2.63021383138967      1.20790838768518     -1.56986682648869
