13
Coordinates from ORCA-job run
  C   1.14648238893100     -0.18667450450743      0.22257852305785
  C   -0.05698598048114      0.55889678424618     -0.32989524495026
  Br  2.06827696642331      0.95242684704515      1.50001085908544
  H   0.24762283327164      1.46092780156180     -0.85968442819487
  H   1.84001858761118     -0.33163795862886     -0.60760424730661
  C   0.82264460554875     -1.48426605262626      0.79679615512796
  N   0.58413812502254     -2.56490733427566      1.19138290993061
  N   -1.05334328871529      0.96752384019751      0.70552699588922
  O   -1.22231257569086      0.20898305767290      1.65158078609132
  O   -1.63218253358039      2.02579777498516      0.48089445573964
  N   -0.76188797240463     -0.32768880350932     -1.33665953107477
  O   -1.94881352851538     -0.56329235141103     -1.17199043981365
  O   -0.03565762742075     -0.71708910075016     -2.24293679358188
