13
Coordinates from ORCA-job run
  C   1.02212407431998     -0.15895678002131      0.42985087820761
  C   -0.46438907457858     -0.05252895730013      0.15740603724981
  Br  1.32118826889978      0.09561057150868      2.33515672814140
  H   -1.06960184045090     -0.78198896791401      0.69152531021200
  H   1.54450013093871      0.64177587332932     -0.09373679252863
  C   1.51359629304200     -1.46319281426142      0.01410461107777
  N   1.88814350409408     -2.52561294348720     -0.32003875076648
  N   -0.75038774790817     -0.20596886741630     -1.31642940658904
  O   -1.88047792031315     -0.59026172805071     -1.59508428417315
  O   0.14965616200129      0.10114403391360     -2.09123603419222
  N   -0.96870545163929      1.31845058935402      0.51763269011418
  O   -0.29661038906395      2.25931659051399      0.10901728051100
  O   -2.00903600934182      1.36321339983148      1.16283173273576
