13
Coordinates from ORCA-job run
  C   1.17634529406475     -0.07827541013387     -0.04196820349849
  C   -0.19209799987009      0.46832513886058     -0.41168996851587
  Br  2.24981967271724      1.35836953060937      0.70761888346726
  H   -0.11417007890460      1.24588182622350     -1.17108423262047
  H   1.66584975942486     -0.36943325068824     -0.97297879157260
  C   1.13423884901048     -1.23241429810461      0.84417307098548
  N   1.14134373176131     -2.20740894609292      1.49972716034076
  N   -0.94897085343453      1.04634749621646      0.73953296779225
  O   -1.64349081251375      2.02161775757435      0.47155278145427
  O   -0.83326438197444      0.48506162100925      1.82154199545834
  N   -1.02471592958063     -0.64951278278356     -1.00810557889466
  O   -2.12463751662891     -0.87376282353913     -0.52729955850816
  O   -0.48624973407168     -1.21479585915119     -1.95202052588811
