15
Coordinates from ORCA-job run
  C   0.82252777289887      0.26337118412202      0.21565495852917
  C   -0.69872324491690      0.21708542107298      0.24129760218971
  Cl  1.37271133411043      0.88722372389852      1.80468881584629
  H   -1.04151947524736     -0.48503972807525      1.00752541524452
  H   1.12999072326343      0.99661029700565     -0.53173849164208
  C   1.45891708059956     -1.08697510258336     -0.04942295114563
  H   1.20279691158775     -1.43418822540988     -1.05164589250622
  H   2.54440927641515     -1.00730747628102      0.01444826591123
  H   1.12455405939115     -1.82455049434242      0.68331602778242
  N   -1.14207883846462     -0.42779886439361     -1.06591038916225
  O   -1.95268435273657     -1.34791021333262     -0.97976960701353
  O   -0.67617612034232      0.03381455555591     -2.10143987953943
  N   -1.30355563672518      1.50970516612290      0.29908162740855
  H   -0.67977407477992      2.20550004916642      0.68024342660275
  H   -2.16039541505349      1.50045970747376      0.83267107149451
