15
Coordinates from ORCA-job run
  C   0.68743523614625     -0.03505919312063      0.71024426045831
  C   -0.75504868079548      0.31184833330824      0.34705621999966
  Cl  0.68084186576992     -1.31568150654459      1.95700021948125
  H   -1.32699583935764      0.47608424311724      1.26513052764578
  H   1.08466588069784      0.85337382053142      1.21137382993278
  C   1.58816575948250     -0.42859327442133     -0.44505472167500
  H   2.61731343563164     -0.50092454548109     -0.08993963566768
  H   1.53234492342355      0.31501030305004     -1.24169325395444
  H   1.29146637058443     -1.38928548724390     -0.86060157883496
  N   -1.45244040003330     -0.89589717486007     -0.26016637119772
  O   -2.34370497352745     -1.40086673601538      0.42072863299813
  O   -1.08774564519135     -1.27423855418628     -1.36699176297531
  N   -0.78558371559318      1.37798718565624     -0.60985410628967
  H   -1.67775473841605      1.85435534505051     -0.60008032172075
  H   -0.05295947882170      2.05288724115958     -0.43815193820038
