15
Coordinates from ORCA-job run
  C   0.77940697387946     -0.07965312463987      0.70625038892360
  C   -0.65918747051035      0.39299945481257      0.49389704335739
  Cl  0.79768899139510     -1.44874318209874      1.85690672878380
  H   -1.12047028771265      0.59544508655652      1.46068557363845
  H   1.27075657921139      0.75146889263524      1.21516229877365
  C   1.54520217228796     -0.44531814291711     -0.55025449081914
  H   2.57027506899696     -0.70481515846206     -0.28321268875748
  H   1.09371860353483     -1.29377490892549     -1.06248174229832
  H   1.58295675999922      0.40727970783363     -1.23195710795542
  N   -1.49917217172837     -0.74308420541735     -0.08405513760704
  O   -1.37080048231601     -0.95713493293447     -1.28995427936164
  O   -2.24267075570032     -1.35018654585245      0.67995453111719
  N   -0.67894418214463      1.55560330775443     -0.33025160327984
  H   -1.58082044306581      2.01247787508461     -0.28737268654112
  H   -0.48793935612680      1.30843587657054     -1.29331682797405
