15
Coordinates from ORCA-job run
  C   0.53962175887909     -0.65135801610162      0.16496710214998
  C   -0.67962502676737      0.27763897540147      0.21831007611474
  Cl  0.47872492101103     -1.62920558086323     -1.33351078566135
  H   -0.63680679911342      0.81495775132110      1.16941699672770
  H   0.46909061823536     -1.35909397571489      0.99217080473260
  C   1.83760310527974      0.12796016645532      0.22105734578281
  H   2.68962009386020     -0.55241315554358      0.21312160622275
  H   1.92801460946964      0.79442242964490     -0.63810882153768
  H   1.87809861125453      0.72125636289475      1.13931569714505
  N   -1.90001726823295     -0.61645333438578      0.35623811160031
  O   -1.98791303114587     -1.22129548223288      1.42294289042769
  O   -2.66471065821297     -0.70548048322673     -0.59390381698682
  N   -0.88441503053180      1.19989234760285     -0.84159650400412
  H   -0.75566118876733      0.77865267358446     -1.75110006158331
  H   -0.30962471521786      2.02251932116386     -0.73932064113036
