15
Coordinates from ORCA-job run
  C   0.68392803022450     -0.02782842509128      0.70709111195330
  C   -0.78343444457031      0.32814817902101      0.42424685775762
  Cl  0.75476481544929     -1.29425265058950      1.97140623271714
  H   -1.29504331599563      0.49291073525774      1.37253927062513
  H   1.11013733190080      0.86916850327443      1.16576764402280
  C   1.52180470265757     -0.44609191662736     -0.48586844932974
  H   2.56029374765955     -0.56253620883622     -0.17327795380254
  H   1.48802483694938      0.31421300029355     -1.26943436827021
  H   1.17596020172081     -1.39028291600759     -0.90325495320444
  N   -1.48215982699402     -0.84858321756971     -0.19773039005010
  O   -1.24548896926822     -1.04544479466386     -1.38858417048781
  O   -2.21999134545620     -1.52114279671363      0.51438457921098
  N   -1.00415834906794      1.44952011405936     -0.44365896786786
  H   -0.77206234848719      2.31805348748647      0.01760744820424
  H   -0.49357506672237      1.36214890670660     -1.31123389147852
