15
Coordinates from ORCA-job run
  C   0.55906639102697     -0.70776950246473      0.00486323143061
  C   -0.54385182521676      0.29899583243551      0.30402482459210
  Cl  0.31983857823653     -1.36547942464544     -1.64759930872763
  H   -0.42748830472901      0.62924749284515      1.34065510757959
  H   0.43717150579481     -1.55422191493047      0.68002596676926
  C   1.93559570062543     -0.08922419019995      0.12986222568778
  H   2.70439909802324     -0.83535264089513     -0.07451969710004
  H   2.04566308850284      0.74227648957774     -0.56457183379670
  H   2.07728553115399      0.28502783955995      1.14783405015033
  N   -1.87613983461988     -0.48109077423728      0.34237206273669
  O   -2.75860121737568     -0.14385264928878     -0.43879040243695
  O   -1.94720304821681     -1.38200849337749      1.17235492210097
  N   -0.54804986439307      1.40422610062701     -0.57253038381143
  H   -1.24107637139159      2.08842589783674     -0.30295712960132
  H   -0.73460942742101      1.11179993715718     -1.52302363557324
