15
Coordinates from ORCA-job run
  C   0.75367475471523     -0.06572004308892      0.73508371356531
  C   -0.67906814188764      0.39500529681427      0.46443954326450
  Cl  0.73761087309663     -1.42072382539695      1.90224119534773
  H   -1.17658387855862      0.60656610101178      1.41104832319140
  H   1.22102895853885      0.77476713001698      1.25123562145943
  C   1.56742226488531     -0.44113165382420     -0.48802696629865
  H   1.62739579151135      0.40501087327498     -1.17615168744567
  H   1.13852388954408     -1.29660097295327     -1.00796886849680
  H   2.58274282826486     -0.69363947122326     -0.18016971042479
  N   -1.49092166388955     -0.75394431945805     -0.12792337039580
  O   -2.25778628564493     -1.35539308865174      0.61733593465937
  O   -1.31820362283173     -0.98364012418120     -1.32534480495337
  N   -0.67575191828786      1.54610668841651     -0.37595949703620
  H   -1.58148672916838      1.99734522167355     -0.37310003438480
  H   -0.44759712028762      1.28699218756955     -1.32773939205168
