15
Coordinates from ORCA-job run
  C   0.76942506711953      0.24528668621243      0.30135529213481
  C   -0.76058225426268      0.17769661321437      0.23421369039955
  Cl  1.19148762449877      0.81522867537731      1.94706168897589
  H   -1.13284648229092     -0.53770893168273      0.96832501025431
  H   1.11010580003668      1.02152597669309     -0.38815975389667
  C   1.45389253757618     -1.07680565076296      0.01606867238870
  H   1.28512864924942     -1.37454758703298     -1.02106573039076
  H   1.07307541439410     -1.86147136430443      0.67291456300267
  H   2.52927676265226     -0.98542157893956      0.17173114692162
  N   -1.08277658060341     -0.41253740927769     -1.11208167823829
  O   -0.84800933802020      0.31130781380791     -2.07751277108835
  O   -1.50956893173808     -1.56208511405769     -1.15409555517063
  N   -1.48704539559644      1.40601325905070      0.34114404996580
  H   -1.04818184499906      2.13546455836637     -0.20655193036047
  H   -1.54338102801616      1.69805405333587      1.30665330510181
