15
Coordinates from ORCA-job run
  C   0.77382487028142     -0.08677690623081      0.71112161845722
  C   -0.65939333493050      0.39837927623368      0.48899250706854
  Cl  0.77235015063795     -1.45740297070878      1.85978254188375
  H   -1.12509673565148      0.60463342940457      1.45280181325737
  H   1.26834220402243      0.73961684628805      1.22472013403789
  C   1.54594835191275     -0.45704941438813     -0.54028369122783
  H   2.56796035403271     -0.72132828690308     -0.26615995389982
  H   1.59247696419487      0.39508623450585     -1.22199167299655
  H   1.09345239643813     -1.30365920650887     -1.05466328803287
  N   -1.50489793342568     -0.73085567537172     -0.09386278548102
  O   -2.25977938841611     -1.32961921661966      0.66564802337974
  O   -1.36909834793112     -0.94839265084226     -1.29830004904478
  N   -0.66378440866422      1.56096632191403     -0.33573540283721
  H   -1.56109578641770      2.02710187918090     -0.29740820672230
  H   -0.47020935608347      1.31130034004623     -1.29766158784214
