10
Coordinates from ORCA-job run
  C   0.97271917087747      0.10419505183092      0.28364145272680
  C   -0.20754351129745     -0.32961391195365     -0.19270838134295
  H   1.06878380979945      1.09011101291861      0.73084809751848
  H   -0.25773219997511     -1.32441324836387     -0.63233965823420
  C   2.15672627646584     -0.69657908884731      0.23061218918311
  N   3.13563875652849     -1.34678754962667      0.19184068382751
  C   -1.46622514067561      0.47468855045185     -0.15623822701325
  H   -1.85533895065949      0.62714162974720     -1.16699781447722
  H   -2.24240448428843     -0.05010354302239      0.40813808148350
  H   -1.30462372677516      1.45136109686530      0.30320357632823
