10
Coordinates from ORCA-job run
  C   0.99250025881198      0.23158380575279      0.02093737072821
  C   -0.20420503101165     -0.38161902529287      0.01875570293340
  H   1.06877272687136      1.31325030141740     -0.05216879775930
  H   -0.23263363081047     -1.46743658082989      0.09382004017474
  C   2.21983960287516     -0.49660991457027      0.11881605001555
  N   3.23251971773574     -1.08850237331905      0.19940078907338
  C   -1.50929132780274      0.33880726711184     -0.08077732698441
  H   -2.06564691845754      0.00791257134109     -0.96251681934507
  H   -2.13487369105918      0.12360655551642      0.79017753457716
  H   -1.36698170715267      1.41900739287254     -0.14644454341367
