10
Coordinates from ORCA-job run
  C   1.08821318281477     -0.16542587850631     -0.57411824590936
  C   -0.22789248094658      0.03856542158856     -0.77017710676613
  H   1.76822287028811     -0.26664429937086     -1.41375244560821
  H   -0.57204274182156      0.09621208990224     -1.80098783206337
  C   1.66348664029149     -0.26014334838687      0.73300614492242
  N   2.13812633169386     -0.33835116559247      1.80621315778813
  C   -1.25584411937011      0.19240946340175      0.30275531857584
  H   -2.02611549681535     -0.57800886578097      0.20498010291417
  H   -1.75881698687104      1.15944261812281      0.21216259422839
  H   -0.81733719926359      0.12094396462211      1.29891831191811
