10
Coordinates from ORCA-job run
  C   1.09555395755854     -0.06476148728374     -0.58022484761562
  C   -0.22801077639447      0.09753179511780     -0.76462831749637
  H   1.78053146276968     -0.05945252936334     -1.42186068807060
  H   -0.57285611673083      0.23212828905776     -1.78799631200480
  C   1.67203420315610     -0.25102198884504      0.71642234145189
  N   2.14765030064167     -0.40483516504128      1.78094128847955
  C   -1.26371226622399      0.10859468054356      0.31186544824617
  H   -1.99893302230613     -0.68300106631999      0.14090104040768
  H   -1.80899199378726      1.05672577697467      0.30550746663180
  H   -0.82426574868330     -0.03290830484041      1.30007257997030
