10
Coordinates from ORCA-job run
  C   1.00792455388370      0.13623729322606     -0.05176541455785
  C   -0.23632583556848     -0.35704106960721      0.07788183596108
  H   1.17373123049548      1.18814809092322     -0.26914669666225
  H   -0.35644427789703     -1.41708369737184      0.29533214416111
  C   2.17204470654566     -0.68335512943538      0.08632206282659
  N   3.13603208054631     -1.34725491238829      0.19807731747647
  C   -1.47608287901174      0.46585885791948     -0.05860662685179
  H   -2.10763086487529      0.08008649017386     -0.86399409612281
  H   -1.24215215866462      1.51019980964529     -0.27262159110722
  H   -2.06909655545398      0.42420426691481      0.85952106487667
