10
Coordinates from ORCA-job run
  C   0.89458442014898     -0.39245096932592     -0.28760365786458
  C   -0.10452778813052      0.25841220639706      0.33405441047455
  H   0.70797920541567     -0.98406346298758     -1.18003652741608
  H   0.12735846328300      0.83981376520581      1.22488571337528
  C   2.24479150923277     -0.34526189005937      0.18225522363888
  N   3.35800135798346     -0.31384053506720      0.55947361310391
  C   -1.52632657653633      0.23334904464018     -0.12485801097275
  H   -2.17687973119840     -0.16609944273353      0.65845037439262
  H   -1.64739110425647     -0.37817298526212     -1.02071148990903
  H   -1.87758975594215      1.24531426919267     -0.34590964882279
