10
Coordinates from ORCA-job run
  C   1.08934935311984     -0.20897417807903     -0.55722183053337
  C   -0.24157587278136     -0.37948485357925     -0.66623352665669
  H   1.76283558637883     -0.56812333425018     -1.32866326691317
  H   -0.60434209025584     -0.88932884071510     -1.55656943511155
  C   1.68935592943022      0.44634474822378      0.56489667370417
  N   2.18434325739756      0.98457387293387      1.48598513337974
  C   -1.26261703314181      0.07033878308094      0.32703484143950
  H   -1.84204695048439     -0.78338125863692      0.69014923312553
  H   -0.80546821349920      0.56896516791380      1.18264354422231
  H   -1.97083396616386      0.76006989310809     -0.14102136665647
