10
Coordinates from ORCA-job run
  C   1.07060571484812     -0.48198275323362     -0.40293199847351
  C   -0.26942835393696     -0.58546851932051     -0.48003381183037
  H   1.71464021172222     -1.15461331497222     -0.96030627909189
  H   -0.66956428367163     -1.36814280598733     -1.12161979106777
  C   1.71872374153497      0.50496112215699      0.40594148282248
  N   2.25332608263354      1.31503775471308      1.07000941124787
  C   -1.25389881206385      0.27946927025481      0.23709807715028
  H   -1.89802059031850     -0.32841549768073      0.87892725368366
  H   -0.76048311814355      1.03239787674720      0.85294548809729
  H   -1.90590059260434      0.78775686732234     -0.47902983253803
