10
Coordinates from ORCA-job run
  C   1.09319178871629     -0.13997588883247     -0.57128797997599
  C   -0.22904998045848      0.01633952429671     -0.77024650376533
  H   1.77573768260913     -0.23450895163372     -1.40978239686497
  H   -0.57489512710438      0.04286644385625     -1.80175408388737
  C   1.67170209164811     -0.18992558210134      0.73684704811880
  N   2.14916161741816     -0.23111060897300      1.81078685543981
  C   -1.26178506622219      0.15604085475956      0.30004424117089
  H   -1.79634415772374      1.10413443299104      0.19175622536583
  H   -2.00618048285096     -0.64094694581226      0.21645074262319
  H   -0.82153836603193      0.11708672144922      1.29718585177513
