11
Coordinates from ORCA-job run
  C   -0.57497108821881     -0.10325477816923     -0.27321422104772
  C   0.88117467714324     -0.36619258229375      0.14051858691272
  F   -0.63352003604171     -0.01955275754898     -1.64511510508397
  H   0.93737155057304     -0.48970205966805      1.22569470570967
  H   1.19689869570317     -1.30159968803932     -0.33000160082405
  C   -1.07236182269550      1.15554739604817      0.30639119477201
  N   -1.45195206780090      2.15901400284304      0.78440459986901
  C   -1.42004287665476     -1.22446074504477      0.17416750978874
  N   -2.05938018995869     -2.13894994710176      0.54045560426709
  C   1.74968564233255      0.72536723323353     -0.29005226514015
  N   2.44709751561837      1.60378392574112     -0.63424900922335
