11
Coordinates from ORCA-job run
  C   -0.54017921356938     -0.18499542764414      0.29984861713775
  C   0.85180376765547     -0.29752230852525     -0.34078699039426
  F   -0.43381731792527     -0.48791437976601      1.63755032595758
  H   0.77654954142584     -0.11268565725874     -1.41604641332704
  H   1.20528492764529     -1.32151169293361     -0.19061438132552
  C   -1.45136979926688     -1.15125045685284     -0.33850121610890
  N   -2.14523719813872     -1.93827452002044     -0.86607934316176
  C   -1.08141408506010      1.17688982253092      0.15740129754269
  N   -1.49806292152967      2.26723817925655      0.02684298181663
  C   1.78368016688644      0.64535622356483      0.27059230962031
  N   2.53176213187696      1.40467021764873      0.76079281224253
