11
Coordinates from ORCA-job run
  C   -0.66477744455131     -0.08982517673364     -0.33969283991889
  C   0.84615961645775     -0.05314685978833     -0.61904503271141
  F   -1.29407610906361     -0.31461606771163     -1.54541811789896
  H   1.03166210011012      0.74072640068482     -1.34787473151831
  H   1.12654323979069     -1.00970495628608     -1.06861462342370
  C   -1.12991219375067      1.19515411685962      0.20796856512119
  N   -1.48203754746398      2.23494558318362      0.62575089419931
  C   -1.00329214121250     -1.18380256921831      0.58547960514148
  N   -1.25286616368960     -2.07319772896639      1.31099372128006
  C   1.60929483813038      0.18282493550208      0.60118089679067
  N   2.21330180524274      0.37164232247426      1.58927166293856
