11
Coordinates from ORCA-job run
  C   -0.59942400385077     -0.02757668336182     -0.23697002076590
  C   0.85972980542763     -0.43650992865216      0.01579555203030
  F   -0.75143459009619      0.25205358530235     -1.57540321561440
  H   0.98568753307804     -0.71577776482154      1.06553222455918
  H   1.07081406925227     -1.31360719928978     -0.60241984963872
  C   -0.96002721486801      1.16495378622614      0.54781221523887
  N   -1.22598617914649      2.11143780554963      1.19044310825575
  C   -1.48974625827642     -1.14558961303514      0.12243046121146
  N   -2.16726434817721     -2.05847478019882      0.41733823323743
  C   1.77222461919526      0.64838748147395     -0.33247311822765
  N   2.50442656746190      1.52170331080718     -0.61108559028631
