17

C	0.0	0.0	0.0
C	-0.579248	-0.013673	-1.421666
Br	1.9662	0.0	0.0
H	-1.667846	0.091627	-1.270797
C	-0.472678	1.155968	0.874862
H	-1.566513	1.14842	0.865749
H	-0.100679	2.104939	0.493533
H	-0.106581	1.005009	1.891634
C	-0.356783	-1.275582	0.629558
N	-0.546809	-2.275881	1.216776
N	-0.261973	-1.200893	-2.121299
H	0.672848	-1.159681	-2.505901
H	-0.930567	-1.364587	-2.860415
N	-0.120761	1.247301	-2.161144
O	0.6952	1.105415	-3.072602
O	-0.598538	2.321522	-1.806798
Cl	-3.644578	0.0	0.0
