17

C	0.0	0.0	0.0
C	-0.430822	-0.142152	-1.491703
Br	1.959249	0.0	0.0
H	-0.069643	0.748788	-2.00999
C	-0.5888	1.279054	0.573868
H	-0.287535	2.135208	-0.034919
H	-1.680939	1.179054	0.572214
H	-0.247168	1.428607	1.59918
C	-0.392126	-1.145527	0.820339
N	-0.684851	-2.022065	1.546979
N	-1.799604	-0.362531	-1.761156
H	-2.248959	-1.008407	-1.118536
H	-2.357989	0.479922	-1.703401
N	0.322577	-1.2846	-2.141066
O	0.124948	-2.403215	-1.67711
O	1.028835	-1.022453	-3.111714
Cl	-4.311588	0.0	0.0
