17

C	0.0	0.0	0.0
C	-0.610536	0.405064	-1.376854
Br	1.968921	0.0	0.0
H	-1.623363	0.751881	-1.138552
C	-0.460995	0.901539	1.141659
H	-1.553318	0.857073	1.16817
H	-0.132438	1.92328	0.955348
H	-0.045288	0.546612	2.086363
C	-0.366733	-1.391402	0.261324
N	-0.58981	-2.524816	0.479511
N	-0.698216	-0.594896	-2.379626
H	-1.526736	-1.148556	-2.195527
H	0.124114	-1.18374	-2.418039
N	0.157063	1.592749	-1.901931
O	0.948021	1.411183	-2.821624
O	-0.045698	2.670568	-1.341985
Cl	-3.604494	0.0	0.0
