17

C	0.0	0.0	0.0
C	-0.454854	-0.166962	-1.495758
Br	1.950847	0.0	0.0
H	-1.55343	-0.216977	-1.460499
C	-0.392838	1.336202	0.63827
H	-1.481598	1.41283	0.686798
H	0.047761	1.396045	1.636214
H	0.033874	2.146027	0.04296
C	-0.41011	-1.156305	0.77923
N	-0.603065	-2.104188	1.453333
N	0.109782	-1.258812	-2.219894
H	-0.445733	-2.090581	-2.094161
H	1.073558	-1.42492	-1.961372
N	-0.145303	1.093095	-2.275594
O	-1.107156	1.75036	-2.677098
O	1.035319	1.352865	-2.508892
Cl	-3.491142	0.0	0.0
