17

C	0.0	0.0	0.0
C	-0.29448	0.257909	-1.550367
Br	1.963549	0.0	0.0
H	0.491463	-0.273605	-2.098117
C	-0.317016	1.152409	0.993064
H	0.18875	2.0519	0.624043
H	-1.390649	1.310037	1.085913
H	0.087545	0.87881	1.974346
C	-0.369478	-1.344388	0.449194
N	-0.629849	-2.446288	0.772167
N	-0.23035	1.652972	-1.800081
H	-0.195708	1.807244	-2.799578
H	-1.089329	2.087091	-1.461111
N	-1.524122	-0.383112	-2.317159
O	-2.179304	0.392123	-3.021093
O	-1.571126	-1.60683	-2.348843
Cl	-3.109992	0.0	0.0
