13

C	-0.466726	-0.100295	-1.424838
C	0.0	0.0	0.0
Cl	-2.241082	-0.123627	-1.573662
H	1.091164	0.0	0.0
H	-0.074346	-0.978544	-1.926286
H	-0.401351	0.872886	0.50603
N	0.02426	1.094996	-2.197567
O	-0.109581	2.193558	-1.669441
O	0.482869	0.871979	-3.313786
N	-0.433344	-1.201679	0.750778
O	-0.762209	-1.041984	1.924167
O	-0.39766	-2.282989	0.16462
Cl	3.233237	0.0	0.0
