13

C	-0.581995	-0.038363	-1.3953
C	0.0	0.0	0.0
Cl	0.074956	1.2166	-2.421699
H	1.088548	0.0	0.0
H	-1.665143	0.057429	-1.376953
H	-0.375069	-0.854744	0.566562
N	-0.327861	-1.426093	-1.967589
O	0.390755	-1.572387	-2.939343
O	-0.931726	-2.313663	-1.367995
N	-0.522394	1.205073	0.71121
O	-1.681889	1.548972	0.469942
O	0.209116	1.738214	1.533002
Cl	3.347396	0.0	0.0
