15

C	-0.433393	0.017451	-1.457742
C	0.0	0.0	0.0
Br	0.051648	-1.68765	-2.271243
H	1.093065	0.0	0.0
H	-0.364149	-0.893795	0.506303
N	-1.960341	0.062859	-1.547594
O	-2.588372	-0.506768	-0.661168
O	-2.455937	0.641923	-2.510054
C	0.187845	1.155596	-2.230924
H	-0.16756	2.104216	-1.819501
H	1.271141	1.090987	-2.098191
H	-0.074594	1.105636	-3.285987
C	-0.501038	1.188996	0.681941
N	-0.903064	2.157889	1.210192
Cl	3.311045	0.0	0.0
