15

C	-0.374634	-0.04247	-1.472771
C	0.0	0.0	0.0
Br	-2.32733	-0.072353	-1.728635
H	1.095793	0.0	0.0
H	-0.36352	0.913442	0.469768
N	0.060007	1.285666	-2.09952
O	0.45609	1.254232	-3.258571
O	-0.061471	2.292549	-1.413801
C	0.271687	-1.197153	-2.195434
H	0.034423	-1.183593	-3.25694
H	1.353461	-1.114809	-2.046754
H	-0.07889	-2.130555	-1.752172
C	-0.497603	-1.170041	0.705406
N	-0.904117	-2.114492	1.272707
Cl	3.280575	0.0	0.0
