15

C	-0.370458	-0.043075	-1.473884
C	0.0	0.0	0.0
Br	-2.322384	-0.067579	-1.738474
H	1.095328	0.0	0.0
H	-0.363993	0.914024	0.468512
N	0.0671	1.283981	-2.0999
O	0.469321	1.25138	-3.257281
O	-0.061662	2.292046	-1.416154
C	0.274786	-1.200632	-2.192855
H	0.038099	-1.188425	-3.254838
H	1.356541	-1.120928	-2.043182
H	-0.077805	-2.132401	-1.748484
C	-0.497672	-1.16964	0.706298
N	-0.90514	-2.113117	1.274555
Cl	3.282483	0.0	0.0
