15

C	-0.444986	0.001047	-1.455296
C	0.0	0.0	0.0
Br	0.068483	-1.687976	-2.279413
H	1.093029	0.0	0.0
H	-0.357131	-0.891151	0.516793
N	-1.974346	0.024081	-1.539764
O	-2.479403	0.585368	-2.509434
O	-2.593867	-0.551715	-0.64935
C	0.141372	1.152826	-2.235739
H	-0.135722	1.101277	-3.286842
H	-0.229261	2.091197	-1.814027
H	1.22791	1.110708	-2.118147
C	-0.506008	1.190613	0.676748
N	-0.911812	2.160241	1.201278
Cl	3.318256	0.0	0.0
