15

C	-0.395692	0.079287	-1.46223
C	0.0	0.0	0.0
Br	-2.34418	-0.07272	-1.685453
H	1.092018	0.0	0.0
H	-0.299272	-0.993741	0.348617
N	-0.032782	1.436803	-2.064048
O	-0.087268	1.524689	-3.286884
O	0.275139	2.336206	-1.292295
C	0.313654	-0.994015	-2.258282
H	0.061325	-0.92097	-3.313906
H	1.390548	-0.861219	-2.107882
H	0.023688	-1.975042	-1.878807
C	-0.594035	0.982861	0.891977
N	-1.106223	1.708756	1.659257
Cl	3.299037	0.0	0.0
