15

C	-0.379896	-0.043325	-1.470509
C	0.0	0.0	0.0
Br	-2.33437	-0.041185	-1.718122
H	1.095644	0.0	0.0
H	-0.360303	0.915517	0.468337
N	0.072652	1.274192	-2.106683
O	-0.050425	2.290032	-1.4328
O	0.483196	1.226421	-3.260051
C	0.241342	-1.213118	-2.190418
H	-0.1246	-2.137561	-1.740921
H	-0.002744	-1.199478	-3.250334
H	1.325147	-1.151045	-2.049925
C	-0.500018	-1.166591	0.709464
N	-0.912449	-2.108204	1.277235
Cl	3.27965	0.0	0.0
