15

C	-0.587031	0.0057	-1.405719
C	0.0	0.0	0.0
Br	0.132459	1.546141	-2.353429
H	1.089676	0.0	0.0
H	-0.299377	0.945265	0.466591
N	-0.148689	-1.235009	-2.182459
O	-0.596107	-1.35005	-3.319992
O	0.574504	-2.037131	-1.606714
C	-2.101997	0.046455	-1.450312
H	-2.45471	0.919725	-0.899187
H	-2.502897	-0.856079	-0.980213
H	-2.449446	0.102522	-2.480332
C	-0.551271	-1.091889	0.797769
N	-1.041975	-1.969058	1.405485
Cl	3.320851	0.0	0.0
