15
Coordinates from ORCA-job run
  C   0.56882612889450      0.04391849834661     -0.46131012912264
  C   -0.90982435417124      0.14201917076880     -0.07926048037951
  H   0.63348328944594     -0.11247633711496     -1.53899306400507
  H   -1.39273107223676      0.93459424042720     -0.65450028044375
  N   1.21567649585463     -0.98040277493170      0.24967883793986
  H   1.29267910614678     -0.77905828986854      1.23912576511309
  H   2.13165946331697     -1.18628899024678     -0.12295519625626
  N   1.13923785489891      1.46423451114997     -0.24737532597703
  O   2.05483075695741      1.59031236309182      0.55641198020848
  O   0.61861067086043      2.35229305589563     -0.91545822687172
  C   -1.07087217007627      0.35475112152917      1.35222283009455
  N   -1.13112583939874      0.56198245494505      2.50682863904206
  N   -1.56449561042072     -1.15562777747969     -0.51179753717095
  O   -2.08567047517737     -1.85638977503819      0.34253736807192
  O   -1.50228424489444     -1.37386147147438     -1.71515518024304
