15
Coordinates from ORCA-job run
  C   0.56757119298060      0.12163439830471     -0.44156705725719
  C   -0.92810985591665      0.11037809583434     -0.09305250985767
  H   0.67473240915774      0.05467528409436     -1.52582697897268
  H   -1.47865712956547      0.85111123532426     -0.67863464525996
  N   1.25696052906094     -0.90104067741478      0.26881245890402
  H   1.90949179188820     -0.50363999288710      0.93307399164827
  H   1.74446385091511     -1.51855199027604     -0.36378747065987
  N   1.06426459248505      1.51917990320950     -0.08816460856406
  O   0.40567986782320      2.44459436732561     -0.55129445884556
  O   2.06776501401716      1.62161695983691      0.60704003686339
  C   -1.13387374284120      0.31968379139725      1.33252717546838
  N   -1.29230801250076      0.55234720802453      2.47258110166322
  N   -1.47719934552149     -1.24133216473292     -0.50526421547127
  O   -2.36213349172249     -1.72935492870101      0.18036411943729
  O   -1.01964767025994     -1.70130148933962     -1.54680693909632
