15
Coordinates from ORCA-job run
  C   0.62194974845379      0.18478174785170     -0.48577025852020
  C   -0.85814123162857      0.10141210065778     -0.05309547768299
  H   0.65898466382538      0.10149435432515     -1.57059250781617
  H   -1.44913091477443      0.86253046129862     -0.57238521391028
  N   1.53052444624233     -0.71513455237298      0.10888004136907
  H   1.51258113675800     -1.62387643085641     -0.32841863979513
  H   1.46446675230058     -0.77238918570099      1.11550402274890
  N   1.01181374724607      1.62113140404586     -0.17344476200080
  O   1.77437017382524      1.81773475838171      0.76230697454362
  O   0.47314233209792      2.47156502294674     -0.87841999161922
  C   -0.99283148623834      0.23174990066717      1.39002732997035
  N   -1.01780243093755      0.35951266273683      2.55760535747456
  N   -1.43029718143454     -1.23396261016550     -0.50275887416459
  O   -0.99705791559961     -1.67156112515695     -1.56289192650707
  O   -2.30157184013629     -1.73398850865872      0.19445392590996
