15
Coordinates from ORCA-job run
  C   0.51678823234726      0.31557775811557     -0.29241407656303
  C   -0.61748877146983     -0.55596982220637      0.22946827281354
  H   0.12124020572262      1.11034390341149     -0.93435572665996
  H   -0.26717513880342     -1.18696715904206      1.04668398149395
  N   1.55001138030347     -0.52029564903477     -0.85355913456718
  H   2.34612814227400      0.06165291257718     -1.08889897262703
  H   1.21853381931185     -0.95594746275948     -1.70681708555286
  N   1.14821767367914      1.04442915708675      0.87155610752333
  O   2.11806150086125      1.73514203941691      0.58148074655227
  O   0.66047294418817      0.90330184475634      1.98814744523614
  C   -1.15873287614622     -1.36453489352139     -0.85716856495362
  N   -1.55481788243437     -1.99696462136308     -1.76442233971120
  N   -1.74951565920324      0.27799823196211      0.79653177788050
  O   -2.42164952713694     -0.26314090104289      1.66166987231574
  O   -1.91007404349375      1.39537466164368      0.32109769681942
