15
Coordinates from ORCA-job run
  C   0.73512268873807      0.36400979305111     -0.29336238938100
  C   -0.71884163447622     -0.10438042303711     -0.58789601827262
  H   0.94926663229948      1.19406843838756     -0.96775595413369
  H   -0.71212943376752     -0.60796880804882     -1.55789452995675
  N   1.76460671043874     -0.60773273977543     -0.35536464596099
  H   1.49339386510132     -1.49590012942619      0.04349187025480
  H   2.11488487434492     -0.72694830389242     -1.29442228652565
  N   0.71801906784398      0.97070766414217      1.09288936992898
  O   0.75421016615392      0.16940737896023      2.02103129129293
  O   0.65121653339891      2.19308364789433      1.17094165816264
  C   -1.66475562930378      1.00194466066729     -0.58744277554198
  N   -2.38995174635463      1.92556387631080     -0.61780913015354
  N   -1.14277084802172     -1.16399679592996      0.40770981977259
  O   -1.94143192649791     -0.85307178861524      1.27898928875046
  O   -0.60983931989757     -2.25878647068830      0.24789443176381
