15
Coordinates from ORCA-job run
  C   0.58024839529606      0.05240988389745     -0.44688166113319
  C   -0.90348445309538      0.13799700665648     -0.08806361119181
  H   0.66412451782784     -0.07924597056755     -1.52683512884908
  H   -1.37252412800220      0.95622461944575     -0.63880917222510
  N   1.21843558960140     -0.98624823177408      0.25246778660050
  H   2.14674167113845     -1.17024540208847     -0.10197299365548
  H   1.27362997232947     -0.80283487815531      1.24727114151420
  N   1.14316968648473      1.46864732084989     -0.18946600532057
  O   0.61967525149707      2.37403794106502     -0.82985834985199
  O   2.05791929784142      1.57619472165822      0.61701031513674
  C   -1.08912422558717      0.29670983139917      1.34713778965623
  N   -1.16520356332879      0.46845588681383      2.50663885373884
  N   -1.56529598156786     -1.13239959187837     -0.58419682374877
  O   -1.44801320443797     -1.32836630995023     -1.78755158428087
  O   -2.16029882599707     -1.83133682737179      0.22310944361036
