18

C	-0.370777	0.035962	-1.491535
C	0.0	0.0	0.0
F	-1.733771	0.375562	-1.616507
H	1.091169	0.0	0.0
N	0.387209	1.127504	-2.042382
H	0.378249	1.072209	-3.054149
H	1.354017	1.056279	-1.728328
C	-0.195011	-1.28628	-2.210192
H	0.832479	-1.633114	-2.089281
H	-0.409756	-1.136566	-3.272661
H	-0.878051	-2.044909	-1.825168
N	-0.524259	-1.2783	0.584101
O	-1.685122	-1.271008	0.993426
O	0.207477	-2.26621	0.558114
N	-0.493005	1.103984	0.762451
H	0.20694	1.832702	0.75204
H	-1.348548	1.454465	0.352866
Cl	3.343298	0.0	0.0
