18

C	-0.417343	0.016252	-1.475032
C	0.0	0.0	0.0
F	-0.07507	1.346128	-1.907884
H	1.096571	0.0	0.0
N	0.342848	-0.957375	-2.149516
H	0.225394	-0.883405	-3.151287
H	1.32687	-0.887828	-1.898521
C	-1.900656	-0.10264	-1.743518
H	-2.081986	0.089065	-2.805021
H	-2.258521	-1.097839	-1.488115
H	-2.444173	0.6314	-1.149396
N	-0.458986	-1.305769	0.598389
O	0.36389	-2.216665	0.642083
O	-1.624349	-1.388644	0.989635
N	-0.591037	1.098057	0.726019
H	-0.027684	1.249503	1.556171
H	-0.463025	1.917775	0.143956
Cl	3.407731	0.0	0.0
