18

C	-0.542652	0.008869	-1.43255
C	0.0	0.0	0.0
F	-0.319862	-1.213623	-2.048991
H	1.09136	0.0	0.0
N	-1.98577	0.157068	-1.386536
H	-2.335574	0.094476	-2.336701
H	-2.192813	1.085767	-1.037417
C	0.206197	1.053961	-2.239306
H	0.019159	2.043698	-1.822398
H	-0.143536	1.019442	-3.275793
H	1.279345	0.852155	-2.200885
N	-0.453126	-1.27122	0.697005
O	-1.341584	-1.177751	1.548661
O	0.083091	-2.319467	0.362298
N	-0.469901	1.176538	0.682966
H	0.239623	1.462318	1.346848
H	-1.307681	0.932006	1.199355
Cl	3.389919	0.0	0.0
