18

C	-0.504773	-0.119547	-1.446748
C	0.0	0.0	0.0
F	-1.882656	-0.541843	-1.359322
H	1.09297	0.0	0.0
N	-0.413559	1.158354	-2.028382
H	-0.814258	1.851363	-1.411439
H	-0.826277	1.169596	-2.947689
C	0.227021	-1.144812	-2.282491
H	0.011761	-2.153328	-1.938472
H	-0.090462	-1.047963	-3.325883
H	1.299913	-0.959553	-2.202874
N	-0.428539	-1.257871	0.741651
O	0.094785	-2.315228	0.40501
O	-1.291606	-1.154341	1.614888
N	-0.500915	1.179715	0.643206
H	-1.316309	0.943479	1.194355
H	0.223403	1.540703	1.253688
Cl	3.335587	0.0	0.0
