15

C	0.0	0.0	0.0
C	-0.405925	-0.107485	-1.48508
Cl	1.761172	0.0	0.0
H	-1.49385	-0.006824	-1.438051
H	0.03965	0.784677	-1.940113
C	-0.479621	1.259675	0.566939
N	-0.619648	2.361644	0.952693
N	-0.455116	-1.13592	0.896209
O	-0.540511	-2.248061	0.396246
O	-0.5661	-0.874919	2.085883
C	0.035867	-1.343078	-2.260238
H	1.087998	-1.596658	-2.108774
H	-0.568017	-2.205922	-1.990634
H	-0.106269	-1.144078	-3.327728
F	-2.449362	0.0	0.0
