15

C	0.0	0.0	0.0
C	-0.21545	0.132448	-1.550573
Cl	1.770297	0.0	0.0
H	0.226401	1.111345	-1.774713
H	0.473668	-0.602278	-1.973324
C	-0.531055	1.085151	0.807324
N	-0.631311	2.067197	1.450031
N	-0.427275	-1.340255	0.548066
O	-0.481315	-2.267916	-0.248849
O	-0.550084	-1.42655	1.761585
C	-1.533759	-0.000662	-2.293205
H	-1.289091	0.086358	-3.364072
H	-2.246859	0.757756	-1.99648
H	-1.991423	-0.966195	-2.10154
F	-2.296778	0.0	0.0
