15
Coordinates from ORCA-job run
  C   0.59724199461665     -0.19369935982089     -0.00331473193693
  C   -0.75729404418568     -0.08531647608892      0.14524824877842
  C   1.38312658526507      0.96359899519715     -0.55493676543654
  H   1.55103582275963      1.70331274264994      0.22909824397142
  H   0.85801184887656      1.45872950375640     -1.37077769413826
  H   2.34866643068693      0.61788586699072     -0.92820472459235
  N   1.31318118957535     -1.26513872354181      0.38571063803895
  H   2.26927212454414     -1.33949170854506      0.08639659376518
  H   0.81731657672542     -2.09971847188394      0.65948007149602
  N   -1.44433159870911      1.12120464430762     -0.28671373217601
  O   -1.11528295435201      2.18218154579280      0.24770837576155
  O   -2.28767995882716      0.99485996920920     -1.17278412733478
  N   -1.62127516505478     -1.08478963030863      0.69793233448210
  O   -2.78857407263063     -0.77965128480215      0.92222007738206
  O   -1.12341477929037     -2.19296761291242      0.94393719193917
