15
Coordinates from ORCA-job run
  C   0.60010579909979     -0.18004949106985     -0.00973837323617
  C   -0.76369148537670     -0.12714010578688      0.07598290034880
  C   1.37313615528094      1.03038083992417     -0.45666444285518
  H   0.86654936018007      1.55857556950287     -1.26339242912407
  H   2.35952206321329      0.73072172774694     -0.81392109422176
  H   1.48512612281733      1.72928634699794      0.37370678266325
  N   1.32837124955981     -1.27979003405848      0.25255708772222
  H   0.86598432115027     -2.08884889138823      0.63815329085843
  H   2.32674337165371     -1.19652696845834      0.32717825122237
  N   -1.47467685633139      1.08021279461968     -0.31338836800585
  O   -2.29031017372960      0.97400124714803     -1.22750659154576
  O   -1.19406362914450      2.12179635479747      0.28299886667598
  N   -1.60916276322249     -1.17070363887395      0.57001853560423
  O   -2.78815711401590     -0.90663510042000      0.78586392814778
  O   -1.08447642113463     -2.27428065068137      0.78015165574573
