15
Coordinates from ORCA-job run
  C   0.61860391020406     -0.00715911636526      0.09496197505756
  C   -0.74001039012568      0.09275614005529      0.22476640773953
  C   1.21721102579304     -0.46811047066105     -1.20583877327517
  H   0.64002735074574     -1.27708420880116     -1.65174099995365
  H   2.23466557080543     -0.82672980770269     -1.04199911867209
  H   1.23572549193149      0.35601948863521     -1.92040057170847
  N   1.48893353371971      0.27641862461133      1.07706259635257
  H   2.47494778344355      0.25952978150134      0.88863236212351
  H   1.14669075725855      0.62594210266805      1.95850176532675
  N   -1.60936236434604     -0.30063678876907     -0.87219193062489
  O   -1.46587489570879      0.28402483802856     -1.94802855882343
  O   -2.41077671658168     -1.20641623257199     -0.64934172109761
  N   -1.43273174146462      0.58790756044527      1.37435195330781
  O   -0.76045291273568      0.79751743398152      2.39524009780873
  O   -2.63659640293909      0.80602065494465      1.27602451643885
