15
Coordinates from ORCA-job run
  C   0.61842528468914      0.05967550639481      0.08974822094592
  C   -0.73676377755414     -0.03812987625243      0.24307841492921
  C   1.24036487473898     -0.17525761179116     -1.25947527232102
  H   1.11856368733213      0.70861503871449     -1.88735741441130
  H   0.77229030169782     -1.01137918950323     -1.77796810119180
  H   2.30244130848837     -0.39766042277594     -1.14673612903485
  N   1.47358237716464      0.31628266688426      1.09710165009694
  H   2.42071586793628      0.56668278211276      0.87275132341879
  H   1.09444616224268      0.57982226157954      1.99406193022212
  N   -1.46367409969193      0.24440087236657      1.44304377065714
  O   -0.80367887973044      0.43475045086863      2.47527196396199
  O   -2.68723012958872      0.31365555174700      1.37476953451816
  N   -1.57344819100048     -0.42870492344955     -0.88084906214178
  O   -1.53926095892265      0.28084272660277     -1.88811962121784
  O   -2.23677382780169     -1.45559583349852     -0.74832120843168
