15
Coordinates from ORCA-job run
  C   0.47671941019193     -0.36217347703970      0.02101481314282
  C   -0.89642925335134      0.14334883799080      0.31367884857173
  C   1.20317650073784      0.30759326376939     -1.11888253939120
  H   1.54094386163698      1.29387264171774     -0.79825040853221
  H   0.54186856703864      0.40809995815042     -1.97942817782953
  H   2.06843351259397     -0.29199100185531     -1.41355436490041
  N   1.29256791065388     -0.57486321492190      1.14105607483906
  H   0.81707387144799     -1.08248544365970      1.87518632197262
  H   2.16552232595230     -1.02663183786470      0.90269634260494
  N   -1.49620365709902      1.37750281143239      0.66898584419340
  O   -2.72286004201235      1.41042682603511      0.75514852696774
  O   -0.71140861117688      2.30790706441326      0.85947363815904
  N   -1.48616023149121     -0.92915903337023     -0.22055484453143
  O   -2.55882696770143     -1.38209030368003     -0.50031186156475
  O   -0.23341719742131     -1.60035709111757     -0.50525821370182
