15
Coordinates from ORCA-job run
  C   0.58341925632039     -0.22652366519228     -0.04123126117522
  C   -0.76279421664169     -0.06441691299530      0.13556686021915
  C   1.40836905039018      0.90143594645255     -0.59787899825648
  H   2.34400897949833      0.51382847432953     -1.00379181219170
  H   1.62733050616621      1.62673512184779      0.18728982400813
  H   0.88564889557896      1.42841271011119     -1.39511392251604
  N   1.24562473047375     -1.36677318915704      0.22328921146675
  H   0.75399720497030     -2.12009220523734      0.67931810596474
  H   2.25023765850092     -1.35639988014318      0.22659032784026
  N   -1.40928611370410      1.17485799619596     -0.26572297496162
  O   -2.28904625539152      1.09074735289253     -1.12075434853886
  O   -1.01571641189851      2.21711199395732      0.26172935295619
  N   -1.64615448560833     -1.01750600963999      0.73446350200961
  O   -2.78494824856654     -0.65463657467980      1.01377632578377
  O   -1.19069055008835     -2.14778115874194      0.96346980739131
