15
Coordinates from ORCA-job run
  C   0.59221264360561     -0.13897877650798      0.10456613767907
  C   -0.76962780587594     -0.12651329387552      0.00829822563450
  C   1.42547561869097      0.95049123505790     -0.50970644954928
  H   2.17902731293742      0.49975555742315     -1.15944302753595
  H   0.84471141549836      1.66495959070323     -1.08440232751222
  H   1.93787725191667      1.50144642953407      0.28392196160416
  N   1.29862863834175     -1.13011332976570      0.68411310241237
  H   0.80347621586243     -1.84453446539651      1.19450970459191
  H   2.27266029768658     -0.97426170700067      0.87734269506696
  N   -1.65730784616909     -1.07967501806395      0.60561235474566
  O   -1.15031446864619     -2.07826229706402      1.13539292856760
  O   -2.86046721850499     -0.83606774951114      0.58165215796648
  N   -1.46322485728927      0.92795964733030     -0.71750012955314
  O   -2.06773261520854      0.59060690325022     -1.73387496954745
  O   -1.38639458284577      2.07318727388661     -0.26948236457066
