15
Coordinates from ORCA-job run
  C   0.63120632136090      0.02211983526909      0.09189260026609
  C   -0.72049067242407     -0.00584355514505      0.26313423411445
  C   1.20137366217350     -0.29570534492560     -1.26224451404458
  H   2.23522954130634     -0.63169670190138     -1.16978476819831
  H   0.63404136524582     -1.08300666828144     -1.75642747259090
  H   1.17400571990820      0.59542161275496     -1.89470871811757
  N   1.51403108332799      0.31664407176819      1.06567710613453
  H   2.47086574198239      0.49250290172517      0.81468095728642
  H   1.16234079355893      0.66870679804406      1.94286963869778
  N   -1.43225803525479      0.33171827728316      1.45109927521998
  O   -0.76623811269366      0.67054010540468      2.43959863516229
  O   -2.65896057991505      0.26054362068410      1.42036471377693
  N   -1.59323677723231     -0.35878632572738     -0.84993804229896
  O   -1.82992004112342     -1.55458957388827     -1.02309190546794
  O   -2.02199001022076      0.57043094693570     -1.53412173994023
