15
Coordinates from ORCA-job run
  C   0.59759504915512     -0.18810068697246      0.02641601207663
  C   -0.76641613226745     -0.10513179090271      0.06917787454463
  C   1.40704635533174      1.00536284538329     -0.39988874786982
  H   0.99925511414860      1.93527112848032     -0.00599857405519
  H   1.41066432407230      1.07914438962790     -1.48833439771850
  H   2.43530756075941      0.90584326848016     -0.04781800170989
  N   1.29046482171998     -1.31317104539202      0.28002646203092
  H   0.79981900632412     -2.10616375712243      0.66407748081923
  H   2.28777150380984     -1.25441255383882      0.38436853204864
  N   -1.65918316180095     -1.17280229579219      0.40605998948740
  O   -2.86144534247581     -0.99738380781791      0.23389798521475
  O   -1.15392020960130     -2.22444292490231      0.82485823678590
  N   -1.43103009873761      1.15091138096755     -0.23907531731402
  O   -2.10758594722002      1.65678777949240      0.65459093551116
  O   -1.24934284321797      1.62728807030925     -1.36135846985184
