15
Coordinates from ORCA-job run
  C   0.59271880126768     -0.18917918150569      0.07616028349710
  C   -0.77054173395023     -0.09217381297758      0.03604122176758
  C   1.43958215184656      0.95291241742867     -0.41349926730164
  H   1.02248303952899      1.91887087445390     -0.13230911229906
  H   1.50430938918289      0.92409910911348     -1.50216974377973
  H   2.44537496467227      0.87918764697631      0.00374291772010
  N   1.25642848966812     -1.29076397329118      0.47093372126608
  H   0.73606328435544     -2.04133350927365      0.89858450400513
  H   2.24772127074410     -1.23132021360717      0.62173428955009
  N   -1.69357735330174     -1.11673460950792      0.42161223152216
  O   -2.88253955405050     -0.94950679898421      0.16822883927058
  O   -1.22478056221822     -2.12849267816746      0.96322118405437
  N   -1.40143337385277      1.13519452415207     -0.42223262851175
  O   -2.12018389779476      1.72572101177612      0.38206756579634
  O   -1.15162491609785      1.50551919341431     -1.57111600655737
