15
Coordinates from ORCA-job run
  C   0.61682711685936     -0.01844162150755      0.11062631887986
  C   -0.73995483961610      0.12705769872626      0.20271627748263
  C   1.22566126533204     -0.61455843143442     -1.12906359453457
  H   0.63755897667440     -1.45134131561686     -1.50413077746795
  H   2.23202651066542     -0.97657379532504     -0.91336578257027
  H   1.27200812634452      0.13500715329490     -1.92040568985285
  N   1.47688503518449      0.31201221653865      1.08985885004303
  H   2.46139903016297      0.32536189057283      0.89049947386412
  H   1.12674804709305      0.79108114858685      1.90527652552523
  N   -1.59988949460750     -0.34482343893904     -0.87092229347407
  O   -1.42083693323818      0.13267879587718     -1.99316053703148
  O   -2.43042950047848     -1.20395000390520     -0.58083878046616
  N   -1.44017568249503      0.75164579941433      1.28319977221960
  O   -2.63454234117942      0.99291999436740      1.13608237429171
  O   -0.78228531670153      1.04092390934971      2.29362786309118
