15
Coordinates from ORCA-job run
  C   0.63374816033080      0.05931555941295      0.02743173267804
  C   -0.70174191093979      0.08266247305496      0.29001423421251
  C   1.10922022367696     -0.51317494615271     -1.27908615603212
  H   1.08196473916347      0.26156536207395     -2.04959629054132
  H   2.13719514458351     -0.86795619304169     -1.18513174943041
  H   0.48843645722216     -1.34458041159102     -1.60783181022130
  N   1.57452428287690      0.62284745314194      0.81137042532361
  H   1.30015279103998      0.94964840212584      1.72531895611006
  H   2.53700479691133      0.37988655136292      0.65541392395463
  N   -1.65237360032024     -0.47280536612799     -0.66587966357944
  O   -2.11526433109805      0.30217101191362     -1.50226704888767
  O   -1.92630679929766     -1.66802738703393     -0.55463125926369
  N   -1.32618192943165      0.60774900601683      1.45967340534359
  O   -2.54714326158822      0.49739983115340      1.55008081397602
  O   -0.59223476312950      1.10429865369093      2.32512048635749
