15
Coordinates from ORCA-job run
  C   0.59598179922544     -0.17296207711572      0.08626522023506
  C   -0.76868175461718     -0.10870577333332      0.03156690078678
  C   1.42170067786670      0.97925789058736     -0.41555442870241
  H   2.42279839789190      0.93867023742903      0.01729498027307
  H   1.50286204837545      0.92877713296889     -1.50236674685298
  H   0.97776062136802      1.94063244936908     -0.16131066231162
  N   1.28110531735782     -1.25166666930043      0.50697617917239
  H   0.77433730481821     -2.00700356691459      0.94243248706132
  H   2.26945619325819     -1.16701402362712      0.66479289954003
  N   -1.67101617573519     -1.14941299983228      0.42309737890127
  O   -1.18439199708111     -2.13910755709791      0.98911165784648
  O   -2.86016899508027     -1.01679514916757      0.15082752143682
  N   -1.42407671451087      1.09430052079650     -0.45567599598418
  O   -1.16954578403922      1.45141342414616     -1.60771500541618
  O   -2.16812093909789      1.67961616109191      0.32925761401415
