15
Coordinates from ORCA-job run
  C   0.59221458901024     -0.20816681906812      0.00189470320496
  C   -0.76028971980950     -0.06583548854236      0.14087610349259
  C   1.40782957019814      0.92092043395283     -0.56498751895115
  H   0.89915046943783      1.41225733709691     -1.39346854941011
  H   2.36769839577954      0.54686998512025     -0.92525115859101
  H   1.58693388334841      1.67121407481687      0.20637296398543
  N   1.28019082225114     -1.29051739532561      0.40927190255932
  H   0.76514923086193     -2.10812363725389      0.69809073348227
  H   2.23831050008745     -1.38902776862838      0.12403571432163
  N   -1.64937419698874     -1.03392890068900      0.70904931341488
  O   -2.80928203841272     -0.69675829544944      0.92551488641911
  O   -1.17937906651192     -2.14981867563724      0.97446821210664
  N   -1.41647996793647      1.15000683348254     -0.31256366278990
  O   -1.06387524339770      2.21112293089335      0.20619596651735
  O   -2.25979722791762      1.02978538523129     -1.19949960976201
