15
Coordinates from ORCA-job run
  C   0.59693015914988     -0.09851383718978      0.08197826148119
  C   -0.74642395400557     -0.12825727351908     -0.15652123747331
  C   1.51464156637837      0.93812149573155     -0.49829316460897
  H   1.30823873076012      1.10924147493213     -1.55113798560626
  H   2.55261492234330      0.62089982649585     -0.37932126316957
  H   1.37606206687824      1.89374113643105      0.01219518590788
  N   1.18707840372920     -1.09301419206306      0.79925780460105
  H   2.16216868451476     -0.98052060055206      1.01798338113101
  H   0.63458136514381     -1.57701452621344      1.49071051135566
  N   -1.55806523858517     -1.22375490453616      0.36884233677420
  O   -2.25686179510507     -1.82350965193580     -0.44293327668580
  O   -1.54475658020660     -1.41611581903476      1.58728770151849
  N   -1.53503533954890      0.96456995333454     -0.66989570052620
  O   -0.94395991158044      1.90985010216166     -1.19028141201230
  O   -2.74621307986594      0.90727681595736     -0.46787114268706
