15
Coordinates from ORCA-job run
  C   0.59673214935553     -0.19160986974918      0.01084647323697
  C   -0.76747507943860     -0.11035822574900      0.05832786545355
  C   1.40534950651295      0.99769669624330     -0.42986264438278
  H   2.39668254287584      0.67534804334401     -0.75196274767102
  H   0.93325548192958      1.52221430927932     -1.25962604327862
  H   1.50440073644650      1.70745678975326      0.39292362957371
  N   1.29554437137351     -1.30125580631877      0.30927988986699
  H   2.29281979750708     -1.23519755707109      0.41141260314616
  H   0.80722896624577     -2.09584967525270      0.69295137143286
  N   -1.64736268295000     -1.13163231527910      0.53886214278196
  O   -2.82727801863559     -0.84259087781354      0.71437185862759
  O   -1.15062782019032     -2.24182038165442      0.77979995755359
  N   -1.44383282881229      1.10275005781407     -0.37247124240096
  O   -1.16299335248154      2.14878310943533      0.21606557609220
  O   -2.23244376973842      0.99606570301851     -1.30991869003219
