15
Coordinates from ORCA-job run
  C   0.58065269147824     -0.23659942559405     -0.03885743473989
  C   -0.74101511065286     -0.01134947201429      0.22800526557855
  C   1.36927256504614      0.77973634666460     -0.81735071702167
  H   0.78920662540622      1.20309308104500     -1.63632057175722
  H   2.26650274540073      0.31968795418812     -1.23496424481931
  H   1.66391975378557      1.59965798633057     -0.16086861474218
  N   1.26829411380775     -1.30123290606467      0.41429278417344
  H   2.18059042859866     -1.48268774831738      0.03492532639714
  H   0.75658003272243     -2.05447118174506      0.84791263192412
  N   -1.59581003478099     -0.86326476557466      0.99898677116974
  O   -2.70961130725500     -0.44454799084107      1.29951360602675
  O   -1.14181556087524     -1.96486521162948      1.34052865862190
  N   -1.39773778151743      1.17986196918471     -0.28638206004946
  O   -0.94996230794759      2.27220803357544      0.06775654805927
  O   -2.34006685321663      1.00577333079222     -1.05717794882118
