15
Coordinates from ORCA-job run
  C   0.60027026972129     -0.16095062217377      0.08243217008872
  C   -0.76594379058799     -0.11206442170972      0.06404205993130
  C   1.39779344196095      0.94946985037288     -0.54376134246858
  H   1.44318795880953      0.80733973196464     -1.62448009986297
  H   0.95342038757062      1.92586556120742     -0.35598121561220
  H   2.41342950363775      0.95249314663808     -0.14411711553863
  N   1.30867071366094     -1.19352512305536      0.57466523685066
  H   0.82235669069549     -1.90993249478753      1.09171325395910
  H   2.29971725924888     -1.08584033087368      0.69804163691299
  N   -1.64601269315975     -1.11969789978457      0.57466817902377
  O   -1.13316492117734     -2.05250513789279      1.20985950872853
  O   -2.84440243886275     -1.01840783326084      0.33066628800594
  N   -1.44734817470058      1.03829290649285     -0.50757432862527
  O   -2.16969672419366      1.68860518913024      0.24581811156697
  O   -1.23327748262339      1.29085747773215     -1.69499234296032
