15
Coordinates from ORCA-job run
  C   0.59470049633527     -0.15212477853731      0.12734304788639
  C   -0.76211507522836     -0.14522263840288     -0.04218701224229
  C   1.40190445251426      1.05954079064485     -0.24888538373973
  H   2.36921702340783      1.03713736516806      0.25613126280010
  H   0.89568272981931      1.98473254182147      0.02319616976028
  H   1.56568922654081      1.07452848660558     -1.32730475746065
  N   1.29270085872941     -1.21905389450850      0.55627431788814
  H   0.78811355265837     -2.01754814689985      0.90959312613098
  H   2.25901110401776     -1.09975819351948      0.80316774775458
  N   -1.64420749256126     -1.23983285511546      0.22926948547423
  O   -2.81440398870365     -1.14179670611493     -0.12720865551438
  O   -1.15845243895968     -2.23666363603585      0.78350262248947
  N   -1.43005664286667      1.05212380672535     -0.52643251107037
  O   -2.25833237203281      1.56966596796071      0.22072082294521
  O   -1.10045143367059      1.47327189020824     -1.63718028310196
