12
Coordinates from ORCA-job run
  C   -1.02039593632811      0.12622410499349     -0.27817347283128
  C   0.38791618668910     -0.47466941953130     -0.14645295538946
  F   -1.76021705369621     -0.72161255863209     -1.06486874052109
  H   0.87119753024262     -0.52670590484388     -1.12369405391478
  H   -1.48573658028833      0.19601652670130      0.70694056328732
  C   -0.94428334038557      1.45291969426662     -0.90086989490691
  N   -0.86241742608313      2.51397080254730     -1.39658517156316
  C   0.32915122038354     -1.78662142073537      0.48421664935096
  N   0.27455620114986     -2.84608189851534      0.98739843367774
  N   1.21363541951280      0.46084119588921      0.70703983639260
  O   0.76575209303984      0.68938312482348      1.82557875632862
  O   2.23084168576359      0.91533575303657      0.20047005008945
