12
Coordinates from ORCA-job run
  C   -0.49451886877323      0.74125613325246     -0.50638547436065
  C   0.25210222267275     -0.48953816509727      0.00936616352762
  F   -0.32280515403220      1.76430944582880      0.39301434056469
  H   0.15158811545830     -1.30845986256409     -0.71007646200243
  H   -0.05928941956935      1.04323979484998     -1.46170274048974
  C   -1.91976025619827      0.43561875107247     -0.66674756632295
  N   -3.05358271850803      0.17189827618350     -0.81794364094365
  C   -0.20564379350246     -0.89730412877146      1.32921528256883
  N   -0.62319990727552     -1.23343716449298      2.37378326403811
  N   1.73920799601306     -0.15178620447459      0.02904200683768
  O   2.17605067705835      0.27183026492333     -1.03350110347069
  O   2.35985110665661     -0.34862714071015      1.06193593005318
