12
Coordinates from ORCA-job run
  C   -0.60496045053377      0.68243960115346     -0.46864936079557
  C   0.36499319191797     -0.40866647026571     -0.01376675196224
  F   -0.82442732783886      1.53812750635040      0.58171452189984
  H   0.56681452230972     -1.09122481628344     -0.84537064542343
  H   -0.14550505844432      1.24481664244688     -1.28485482668412
  C   -1.86634769772406      0.07977759481756     -0.91252947663206
  N   -2.85811638985511     -0.41616993795472     -1.29813034005161
  C   -0.12986835695590     -1.13422066872937      1.14656784447260
  N   -0.56953457208206     -1.73979876847407      2.05120686728130
  N   1.70230268710867      0.25871437136212      0.29094419092508
  O   2.22359446600485      0.03433247165014      1.37203119100268
  O   2.14105498609286      0.95187247392674     -0.61816321403247
