12
Coordinates from ORCA-job run
  C   -0.58133954009438      0.63058429902036     -0.56200843095208
  C   0.32242407375121     -0.44269043758634      0.04562114903544
  F   -0.60457663772010      1.71138382276191      0.28376998408604
  H   0.37550211131738     -1.30363132629333     -0.62846874323640
  H   -0.15927729570817      0.94734833956759     -1.51847141957898
  C   -1.93530330334301      0.09989708814726     -0.75160158467139
  N   -3.00887509745535     -0.34255022471292     -0.92389166313130
  C   -0.11956727083577     -0.84765041992613      1.37172011799018
  N   -0.52096086128817     -1.19157005760236      2.42014411437275
  N   1.73971836100288      0.11886208354515      0.09151832729427
  O   2.34212790331252      0.07341846793364      1.15256491733307
  O   2.14912755706096      0.54759836514518     -0.97989676854159
