16
Coordinates from ORCA-job run
  C   -0.63559817080414      0.18107216341814     -0.19834816455258
  C   0.70804758680436     -0.45298990199890     -0.59741445767441
  F   -1.13074556774960      0.77102957974669     -1.37979285385185
  H   0.48286638368914     -1.15988185467553     -1.41428226896700
  N   -1.49201236174937     -0.86937604525298      0.24228711629361
  H   -1.75584725971073     -1.45533612130240     -0.54204226923976
  H   -2.33427827347391     -0.49565779422220      0.66132040427414
  C   -0.50551398366716      1.26717303012885      0.84078686349989
  H   -1.49219048373197      1.68933212022160      1.04683767062848
  H   0.13432435692527      2.06503296711984      0.46352921837749
  H   -0.07484153141510      0.86476757845935      1.75561836398808
  N   1.31295825464459     -1.05898765451773      0.57983731142138
  H   0.65350458342204     -1.73070461431293      0.95480621036044
  H   2.17048926703815     -1.53620033360359      0.33143147502340
  C   1.60957602371583      0.56314179842730     -1.15224647959029
  N   2.35026117606260      1.35958508236449     -1.59232813999102
