16
Coordinates from ORCA-job run
  C   -0.57656912694504      0.29595350607160     -0.10053232181708
  C   0.74485089695552     -0.50821800953086     -0.06447727687982
  F   -0.36733821492502      1.24800617429028     -1.10788656291215
  H   0.67241762749527     -1.21347010738779      0.77041980831864
  N   -1.72971370958749     -0.45512280015254     -0.47478173843369
  H   -1.56095770313112     -1.06560699752396     -1.26429196629966
  H   -2.11494874565702     -0.97553960291068      0.29954574963424
  C   -0.81764038816367      1.03008380031315      1.19839961513631
  H   0.04286636780550      1.65151377503969      1.43626275751867
  H   -1.70681420894012      1.65008098914493      1.08186811069357
  H   -0.97734899109826      0.32558376280387      2.01883844840167
  N   1.87221118141208      0.37709785823069      0.17362391948555
  H   1.96181346308426      1.01220502754148     -0.61048083321284
  H   2.73077355392763     -0.15402103894387      0.25150406770926
  C   0.85828301775913     -1.30240376725441     -1.30683455357594
  N   0.96711498000834     -1.91714256973157     -2.30217722376673
