16
Coordinates from ORCA-job run
  C   -0.67520994662198      0.09678871212750     -0.12674117315809
  C   0.79356624096572     -0.21405293637991     -0.49552828595389
  F   -1.35929784140755     -0.23749646945761     -1.31751902530277
  H   1.06207846881124      0.41194093955220     -1.35921863609656
  N   -1.17231978624484     -0.72129191016891      0.91612701575345
  H   -1.16381788404799     -0.26028425195501      1.81290013389293
  H   -0.68235741573866     -1.60637271681556      0.95351770937469
  C   -0.92470837908507      1.56334633492145      0.13280193344042
  H   -0.36123299550381      1.91452171195349      0.99926629595607
  H   -1.99102198683007      1.70662421566820      0.31376795954684
  H   -0.63903698335636      2.15242560194703     -0.73967110997538
  N   0.90155303694451     -1.64850704737473     -0.74622182431144
  H   0.34255346220505     -1.86679876259251     -1.56272729938320
  H   1.86200307615472     -1.90522843645712     -0.93758149756580
  C   1.66055784120299      0.15421676413205      0.62694610017607
  N   2.34569109255211      0.45916825089943      1.52988170360664
