16
Coordinates from ORCA-job run
  C   -0.63994475104577      0.18618139492865     -0.17806935700274
  C   0.69168226267614     -0.44081829361551     -0.62541153408279
  F   -1.16416113861205      0.80279227752950     -1.33310949490390
  H   0.44428962419850     -1.12948104220655     -1.45134432926884
  N   -1.48694514577255     -0.87239778616150      0.26124630860817
  H   -2.31720012573404     -0.50655297600554      0.71014785321285
  H   -1.77246273997112     -1.44036218271453     -0.52875400266949
  C   -0.48158297501593      1.24900557482478      0.88093833705010
  H   -0.03235025505567      0.82532623206044      1.77697151499889
  H   -1.46168175045884      1.67018238943477      1.11801371132875
  H   0.15309694743355      2.05240119246487      0.50692925414324
  N   1.32550923061617     -1.07316020456642      0.52252840921028
  H   2.17499899780621     -1.54670748824924      0.24159232201145
  H   0.67439168527753     -1.75145340454049      0.90011981431044
  C   1.58104693592362      0.58577807019789     -1.18078321240222
  N   2.31231319773425      1.39026624661889     -1.62201559454418
