16
Coordinates from ORCA-job run
  C   -0.68209834593993      0.17845644473374     -0.17114346980470
  C   0.59253096268041     -0.54602918131862     -0.64858136382719
  F   -1.20598184498466      0.74434904281792     -1.36466192724829
  H   0.29467582802288     -1.09753545466438     -1.54735332465117
  N   -1.56773781266005     -0.75664063391711      0.40831037021591
  H   -1.64277687440032     -1.60664555577144     -0.13451511922407
  H   -2.48280488777920     -0.34619541645146      0.54266755135408
  C   -0.43923445284218      1.34077052745823      0.76769356125336
  H   -1.40018796215463      1.76920772979316      1.06120652301369
  H   0.14776119823639      2.11643820211391      0.27692641100014
  H   0.07327659274931      1.00863062539982      1.67203619812933
  N   1.07710369941765     -1.50705551883397      0.32913383710752
  H   1.96302306021164     -1.89208539898629      0.02367145489687
  H   1.22498307819352     -1.05714279431934      1.22419237349782
  C   1.59846598282012      0.44954021850938     -1.07095784766900
  N   2.45000177842905      1.20193716343647     -1.36862522804430
