16
Coordinates from ORCA-job run
  C   -0.52398991468708      0.26673483269266     -0.15178448057807
  C   0.81078004580139     -0.52805629129280     -0.14497141456581
  F   -0.27536042813270      1.35729128637403     -0.99366296621524
  H   0.68931917321717     -1.36200109119403      0.55623045755055
  N   -1.64351717023454     -0.43393913514731     -0.69422466267358
  H   -2.06091362788992     -1.06312707083873     -0.02361871485765
  H   -1.41155966465564     -0.93218100784970     -1.54478552484177
  C   -0.86478776433194      0.81009808535865      1.21879193386441
  H   -0.99307146281473      0.00274981075486      1.94474417332774
  H   -1.79454538747431      1.37454464223751      1.14469934182841
  H   -0.08035826567400      1.48039388339134      1.56864639409731
  N   2.00470715414777      0.21131665700314      0.22772463497815
  H   2.03159236094960      1.08332454928940     -0.28682694474951
  H   1.99687073926244      0.41799733947322      1.21752805138799
  C   1.00690455429170     -1.11392136058605     -1.48158930752022
  N   1.11092965822477     -1.57022512966619     -2.55790097103272
