16
Coordinates from ORCA-job run
  C   -0.67334039145416      0.15610593676373     -0.05973556848192
  C   0.72987069475441     -0.23602390483282     -0.57691671650063
  F   -1.47878612451372     -0.03853386516261     -1.20469532438650
  H   0.97463588043436      0.42891203407334     -1.41820985246143
  N   -1.14665201957845     -0.69622126187171      0.96665264188233
  H   -0.72990929787276     -1.61654165016854      0.90083018328069
  H   -1.02460018496390     -0.30441813075938      1.88777970875953
  C   -0.78117502029219      1.61443601281536      0.31721775470716
  H   -0.12325626129581      1.85801623287415      1.15356787588702
  H   -1.81439512328146      1.82381417155251      0.59826734570372
  H   -0.51978119349571      2.24249183263950     -0.53549395737131
  N   0.70047519790711     -1.65259914783214     -0.93008301078975
  H   0.06020823769294     -1.76835402840718     -1.70689910384923
  H   1.61793207396403     -1.96600110538359     -1.22172694720826
  C   1.71393711716965     -0.01576899618623      0.48615112199011
  N   2.49383641482567      0.17068586988561      1.34329384883847
