16
Coordinates from ORCA-job run
  C   -0.53236200786894      0.11857358345321     -0.04687051953726
  C   0.87509610699944     -0.50612784370450     -0.17309306945331
  F   -0.57851988352375      1.12580769896163     -1.05047644314131
  H   0.98037949950678     -1.23112590371365      0.63985813008457
  N   -1.52074260337181     -0.87147724792856     -0.24718281787728
  H   -1.45811344583159     -1.28123673698714     -1.17185885903807
  H   -2.45033548782041     -0.49440262589518     -0.11443651006228
  C   -0.73272669248755      0.82337136071881      1.27615068558704
  H   -0.65476251962047      0.11572899784968      2.10267479585162
  H   0.00020999798893      1.61989612205151      1.39935449422678
  H   -1.72400074831873      1.28161350954602      1.29656048579700
  N   1.98826438476220      0.42413283180377     -0.11839073135417
  H   1.79765565076513      1.21323556241135     -0.72349617413751
  H   2.12091224581152      0.76034969519650      0.82554510178585
  C   0.94281519186049     -1.25502442670953     -1.43923290202104
  N   0.94723031114876     -1.84231457705393     -2.45510566671061
