16
Coordinates from ORCA-job run
  C   -0.61929675713794      0.14970148708019     -0.21525627277188
  C   0.69382541655101     -0.51392350090299     -0.68428548031918
  F   -1.13107189161018      0.80563386631457     -1.35608684499784
  H   0.41802838446063     -1.18711051328539     -1.50683020459852
  N   -1.49511594379929     -0.88497973890530      0.21759667865511
  H   -2.32985161129320     -0.50030056827130      0.64229300264084
  H   -1.77149809791766     -1.46333831553681     -0.56802115556720
  C   -0.43117340040667      1.19650820135917      0.85703930150294
  H   -1.39365683128879      1.66400910095543      1.07689942691450
  H   -0.04292834216642      0.75005838555940      1.77244014678334
  H   0.24955666162324      1.97388503211795      0.50887230595859
  N   1.39329182335056     -1.28998129847227      0.32746463645442
  H   0.70763650734279     -1.85391505411465      0.81726067272397
  H   1.83602729322029     -0.67408514499489      0.99841083299858
  C   1.59479967293734      0.49952721268288     -1.24228788446211
  N   2.32142711613428      1.32831084841399     -1.64450916191558
