16
Coordinates from ORCA-job run
  C   -0.49557866165720      0.34718713997904     -0.10413637054039
  C   0.69541909139087     -0.61834382313628     -0.19285801084064
  F   -0.11439836425545      1.50347942933117     -0.78731401724630
  H   0.43167044408779     -1.52773866900561      0.35980300815841
  N   -1.59596679068961     -0.20819233352309     -0.84611840236800
  H   -1.90714523276211     -1.07637609940466     -0.42721857426235
  H   -2.37272596998004      0.44295148179696     -0.84170567412658
  C   -0.79661788372759      0.76035710538239      1.32343250614264
  H   0.08255077012565      1.19503059483119      1.79572041174603
  H   -1.11750420818934     -0.10637235655099      1.90654784611943
  H   -1.60638573295049      1.49373548800855      1.31341892424155
  N   1.85832162182972     -0.02041362623864      0.44710376359684
  H   2.63357499993557     -0.67192466369030      0.43186552164930
  H   2.13359322658976      0.79699782039424     -0.08589467275848
  C   0.93270991719346     -0.99897818813373     -1.60072857140361
  N   1.23748277305901     -1.31139930004021     -2.69091768810784
