16
Coordinates from ORCA-job run
  C   -0.61550119774074      0.15748662169674      0.00168743897319
  C   0.76834933382047     -0.26255683700471     -0.51809593903938
  F   -1.47980953364966     -0.18509724599281     -1.09103968306963
  H   0.95403746936442      0.32031299332320     -1.43206579112559
  N   -0.92000873457111     -0.57170584282400      1.16276850675937
  H   -1.86485648604814     -0.40476730742096      1.48005598873960
  H   -0.74799958081051     -1.55871043527653      1.02004222488574
  C   -0.75801495689189      1.64668462924755      0.20194710950941
  H   -0.09020780294301      1.98947371486918      0.99233177129461
  H   -1.78775656846892      1.87558523430189      0.48559552157372
  H   -0.53668112885127      2.17749330955798     -0.72544936480439
  N   0.75828568790631     -1.70798779566682     -0.73962953420794
  H   1.68981852487922     -2.03765095635859     -0.95985271692372
  H   0.15480215845151     -1.89892818951953     -1.53075518256050
  C   1.80627108946903      0.08679657322178      0.45463556300240
  N   2.66727172608428      0.37557153384563      1.19782408699312
