16
Coordinates from ORCA-job run
  C   -0.60012061856179      0.20857298623236     -0.08026764147566
  C   0.75899408242590     -0.51617995047959     -0.13793206491794
  F   -0.60747146380900      1.11763666972164     -1.15584993956234
  H   0.72654048885476     -1.29698535381288      0.63178605073534
  N   -1.64267924288561     -0.74970683959062     -0.20030430987668
  H   -2.54619803569718     -0.30296796414824     -0.10652313174816
  H   -1.60775749445111     -1.21095359979127     -1.10281444826112
  C   -0.73552079912423      1.01859623334487      1.18774939642747
  H   0.01784784271458      1.80406317562069      1.18977368864058
  H   -1.72485825688862      1.48078108748262      1.22367159492954
  H   -0.61591911616539      0.38238800908927      2.06707222914375
  N   1.86426347179541      0.41815173925948      0.06608364879023
  H   2.57381617875166      0.32433325740043     -0.64626818042230
  H   2.29288863198636      0.26046618825790      0.96681935155309
  C   0.87778532199842     -1.19755719999213     -1.43280121043305
  N   0.96738900905585     -1.74063843859452     -2.46919503352276
