16
Coordinates from ORCA-job run
  C   -0.53718304394992      0.25833594642803     -0.01431649400889
  C   0.73425535381828     -0.60229700483567     -0.08113045358935
  F   -0.32975537954923      1.28492815897251     -0.97982252721538
  H   0.66634039985020     -1.33713263567032      0.72623621798331
  N   -1.66894674654228     -0.52935457490425     -0.33009641385355
  H   -2.52289641689238     -0.00292693274916     -0.19822062526299
  H   -1.63302951211080     -0.86611907505191     -1.28502569835924
  C   -0.69436548434358      0.94105426183002      1.32395691678537
  H   -1.53510066831721      1.63679704656002      1.27308254237420
  H   -0.89127129753772      0.20144164929329      2.10125469510608
  H   0.21081304143126      1.49357464940308      1.56577406384348
  N   1.90775260076759      0.22808998453775      0.13222761806536
  H   1.98983623200673      0.88688311679288     -0.63280550921253
  H   2.74324188554023     -0.34318947720198      0.15146297752422
  C   0.75747940152157     -1.34306323870144     -1.36103069091420
  N   0.80382963430724     -1.90702187470285     -2.39054661926586
