16
Coordinates from ORCA-job run
  C   -0.64077752347837      0.19135417183066     -0.17039213634355
  C   0.68505014830296     -0.43346274691586     -0.63764866504514
  F   -1.17146359097951      0.82783272656227     -1.31143990505765
  H   0.42863388067876     -1.10787294679983     -1.47260670555123
  N   -1.48827793239497     -0.87088233876933      0.25882606970791
  H   -1.78249012425306     -1.42505990841898     -0.53777269696416
  H   -2.31327530402107     -0.50946126656039      0.72086511654566
  C   -0.47004669359421      1.23680732152906      0.90398371073212
  H   0.16452637068801      2.04379317738400      0.53742097465850
  H   -1.44664895109245      1.65761589257166      1.15577095180383
  H   -0.01513354354586      0.79754222759198      1.78966514934372
  N   1.32488909424190     -1.08654337051625      0.49507666243767
  H   2.17055222149193     -1.55863715989537      0.20016421314919
  H   0.67387383750910     -1.76860439070071      0.86639899304001
  C   1.57415211628372      0.59847274051794     -1.18334294521641
  N   2.30543599416311      1.40710587058914     -1.61696878724045
