16
Coordinates from ORCA-job run
  C   -0.67020877530333      0.09918347677638     -0.14980635845463
  C   0.80118782676424     -0.26044161040430     -0.45935520515768
  F   -1.33139772381305     -0.30368181837835     -1.33206214816751
  H   1.10161371449260      0.29990481777654     -1.35700890770670
  N   -1.20720944891135     -0.63773563010363      0.93302710645461
  H   -0.73545100782396     -1.52683577110851      1.04171539463565
  H   -1.21158492640229     -0.11768605677596      1.79691866128533
  C   -0.89860763709805      1.58398394367374      0.00387477455451
  H   -0.35084820441106      1.98378646517830      0.85924726545826
  H   -0.58031071584223      2.10756452174290     -0.89856926822146
  H   -1.96640439496776      1.75709626010491      0.14639610883462
  N   0.88894926925961     -1.71037361617117     -0.60965477512856
  H   0.34544330377341     -1.97459791471770     -1.42313065530218
  H   1.84885950616454     -1.99472105344863     -0.76008322013561
  C   1.64793097186760      0.16958002477102      0.65632758698502
  N   2.31703824225110      0.52397396108444      1.55316364006633
