16
Coordinates from ORCA-job run
  C   -0.54245929628106      0.24775291054390      0.00508504170614
  C   0.74122092550401     -0.59079780897683     -0.10081201706848
  F   -0.40424046761423      1.24817369374858     -0.99879410913753
  H   0.72709120324474     -1.30344395316645      0.72866850500492
  N   -1.67250848127276     -0.57015963724205     -0.22927475210136
  H   -1.67714626525491     -0.93762341969935     -1.17351369493295
  H   -2.52937393238252     -0.05567330277392     -0.07171680881098
  C   -0.64581195293688      0.96699468131615      1.32955792407667
  H   -1.50724109094677      1.63857774702355      1.30560847736851
  H   0.25540006425861      1.55028883986915      1.50434413509960
  H   -0.77870462467478      0.24687013814881      2.13794512849113
  N   1.90683452609494      0.26722421636455      0.03128674927444
  H   1.93736196574055      0.90526301695864     -0.75490733651859
  H   2.75340726460219     -0.28791616169372      0.02285739866940
  C   0.71556068519642     -1.36621404927538     -1.36009068227719
  N   0.72160947672246     -1.95731691114565     -2.37524395884374
