16
Coordinates from ORCA-job run
  C   -0.48319855310701      0.30254353380161     -0.12948950250129
  C   0.75842947212454     -0.60142251397569     -0.28783912062012
  F   -0.19204491667223      1.48471605167076     -0.82281522105795
  H   0.57705258530062     -1.52566818952541      0.27535354447399
  N   -1.59916308393964     -0.31132533971414     -0.77393614843058
  H   -1.62780441142254     -1.31340457873151     -0.64993842400452
  H   -2.47835048414036      0.09459098132131     -0.48297943189397
  C   -0.72038765233175      0.71712950025181      1.31175231417483
  H   0.12743782557266      1.27050809295116      1.71691949958583
  H   -1.59115855239134      1.37592100285651      1.34827773322551
  H   -0.91879550608136     -0.15703375566397      1.93644616259636
  N   2.01312337973812     -0.03539864529152      0.17569003692945
  H   2.15744937235330      0.86409055270438     -0.26784028603879
  H   1.99538506784823      0.09595423944424      1.17843508863935
  C   0.91294590267345     -0.97634868997151     -1.70320084257823
  N   1.06907955447531     -1.28585224212804     -2.82383540249987
