16
Coordinates from ORCA-job run
  C   -0.71202542061115      0.27059088586716     -0.24255580771200
  C   0.60958869956452     -0.42924089799240     -0.63751095046698
  F   -1.16180857826069      0.85226566694643     -1.42740929686452
  H   0.37462122848086     -1.04313521382801     -1.52147789170952
  N   -1.71894260423710     -0.65504105716344      0.17844693323638
  H   -1.58273772861312     -0.93984996179160      1.13807827174722
  H   -1.77516089103043     -1.46515848849943     -0.42672787647749
  C   -0.52032908889772      1.35134375022183      0.79320647707515
  H   0.08627552396865      2.15704450176405      0.37965226703042
  H   -0.01965529535261      0.94687708057816      1.67322716939933
  H   -1.49717093299514      1.74929532861755      1.06923460398524
  N   1.10709222067700     -1.20086799011454      0.50306663442515
  H   2.10179269533446     -1.36638255270884      0.41341774174496
  H   0.64764387728410     -2.10243271362086      0.52015280723831
  C   1.61801787383145      0.54896854083204     -1.05045085025825
  N   2.44079842085697      1.32572312089194     -1.36335023239330
