16
Coordinates from ORCA-job run
  C   -0.65732871540443      0.19170253706560     -0.08371576840137
  C   0.70822754886446     -0.25124585299347     -0.64394262356885
  F   -1.52154501607009      0.17564615245754     -1.20547253933662
  H   0.81402001110760      0.24455893502223     -1.61304906943185
  N   -1.07813505616987     -0.73923708600414      0.89758302084103
  H   -1.24667207925051     -1.63276123898397      0.44978377128226
  H   -1.92985283335459     -0.42808158793354      1.34755052617004
  C   -0.66208112566654      1.60950447285877      0.44107696846800
  H   -0.06931797473031      1.69265133337612      1.35122044830582
  H   -1.69286941549995      1.90266408050778      0.65252197649048
  H   -0.26689135645754      2.29362794261625     -0.31212508173575
  N   0.71951015421507     -1.69407440716881     -0.85581572862493
  H   0.99497467084764     -2.16216453353549     -0.00043070949179
  H   1.38866052487538     -1.93889963697765     -1.57386778295001
  C   1.80372374554121      0.20964418077390      0.22778370785425
  N   2.69657691715245      0.52946470891889      0.92089888412931
