16
Coordinates from ORCA-job run
  C   -0.63663689887541      0.19742155642823     -0.17845055023824
  C   0.69336617106738     -0.42919934478455     -0.63168223337200
  F   -1.14405550760949      0.85214459976563     -1.31991572124440
  H   0.44724185853750     -1.09014930522758     -1.48033014849718
  N   -1.49742967137746     -0.86527551693300      0.22214931077401
  H   -2.32819696559662     -0.50548989400988      0.67492373257661
  H   -1.78087861476884     -1.40745042671463     -0.58645460899703
  C   -0.47752182483321      1.22761832407639      0.91230041759482
  H   0.16231017751466      2.03850969059483      0.56385547368487
  H   -1.45630891437979      1.64658945801868      1.15862738531130
  H   -0.03326565015388      0.77541691799045      1.79692612846902
  N   1.30967585371193     -1.10202159892796      0.50249226661759
  H   2.15696339272550     -1.57593537414108      0.21548603693549
  H   0.64782892075833     -1.78419826252790      0.85367166092095
  C   1.59753145193993      0.60486270403858     -1.14764123624100
  N   2.34037622133948      1.41515647235379     -1.55795791429482
