16
Coordinates from ORCA-job run
  C   -0.65428458003394      0.19962410144537     -0.08882043607194
  C   0.72053031069806     -0.22782720741838     -0.63848048110599
  F   -1.49438513526202      0.23591336696202     -1.22842849589074
  H   0.85092877011456      0.30946012991347     -1.58209980251867
  N   -1.10047625798844     -0.76907222025249      0.84325231836349
  H   -1.96073058627201     -0.47267590940414      1.28681322915680
  H   -1.26211074778274     -1.64284736861193      0.35537136590547
  C   -0.66266123441090      1.59413006559707      0.49486673318286
  H   -1.69593500298054      1.88440838823598      0.69748766875112
  H   -0.24855893273381      2.30681355381039     -0.22054484613300
  H   -0.08852300390400      1.63541141159854      1.41951965845473
  N   0.72729237506504     -1.66015644394696     -0.91366263676470
  H   0.98644087894289     -2.16715426350782     -0.07581538785358
  H   1.40654406812868     -1.87731361714808     -1.63097418056106
  C   1.79906421935896      0.18501078500906      0.27764306644381
  N   2.67786485906019      0.46527522771792      1.00487222664141
