16
Coordinates from ORCA-job run
  C   -0.65849666128931      0.22854821756822     -0.28094193117400
  C   0.65146653733566     -0.48210335271040     -0.70937266093551
  F   -1.07227709238985      0.89622655104070     -1.43906661204516
  H   0.37699788825506     -1.11167138114323     -1.56586699750023
  N   -1.68461490071410     -0.69125612355437      0.07854190116046
  H   -1.76184874200604     -0.86473652553242      1.06753417816928
  H   -1.68328783682911     -1.54848152508131     -0.45593892274343
  C   -0.46563614879061      1.26374315206482      0.80355750999971
  H   -1.43077024987159      1.72164894925892      1.02445157595558
  H   -0.06850147177136      0.81738318514868      1.71780021288471
  H   0.21862062810489      2.03978714491893      0.46040093843400
  N   1.28125099910099     -1.32774926776651      0.29237866283040
  H   0.60385654012208     -1.98044949258198      0.66605537333525
  H   1.65253419081575     -0.77081563699196      1.05179075160135
  C   1.62955304476643      0.50028919999269     -1.18843428805762
  N   2.41115327516111      1.30963690536921     -1.52188969191477
