16
Coordinates from ORCA-job run
  C   -0.57339845118376      0.13941327822756     -0.00928859326606
  C   0.76438627845715     -0.23495294288549     -0.67843075123305
  F   -1.53816749328469     -0.17680811242564     -1.01194890309312
  H   0.80600499748043      0.33096907189692     -1.61584542939280
  N   -0.78039687782781     -0.63489851292707      1.15569025761681
  H   -1.61586979092356     -0.34395916122403      1.64658354103273
  H   -0.86306833183471     -1.61691500962424      0.92779748554144
  C   -0.70349337854042      1.61699871652512      0.27355584965016
  H   -0.00583823383466      1.92261382858373      1.05303401183783
  H   -1.72370615314719      1.83453062041656      0.59833629545703
  H   -0.50976894448737      2.19172509404348     -0.63354077834626
  N   0.92974082446681     -1.64136280185849     -1.00946019778520
  H   0.12148968153095     -1.96202096298444     -1.52824749231221
  H   1.04533820050512     -2.20171877277673     -0.17456511858418
  C   1.88054421097531      0.20740586213212      0.16352434397606
  N   2.76620346164840      0.56897980488062      0.84280547890082
