16
Coordinates from ORCA-job run
  C   -0.70962085307737      0.28202757135220     -0.24328295846474
  C   0.60979508377133     -0.42105220487045     -0.63995914727230
  F   -1.14301316696789      0.89358359356587     -1.41896260880063
  H   0.37913940159005     -1.01358521930042     -1.53910596724965
  N   -1.72867874795080     -0.64370550312193      0.14769716380222
  H   -1.79126854969213     -1.43366022209325     -0.48304054764029
  H   -1.58978444613907     -0.96276073136217      1.09617921797424
  C   -0.51914967423719      1.33778560868928      0.81812685332897
  H   0.10590297373925      2.14342492569357      0.43246974383761
  H   -1.49532258057801      1.74321018342434      1.08554805409992
  H   -0.04007930736033      0.90752843209702      1.69816159532041
  N   1.08605066806991     -1.22459932374926      0.48840029960329
  H   2.08767631334753     -1.35915045592581      0.43353084883942
  H   0.65273190012875     -2.13828962168539      0.45381405732600
  C   1.63143525467319      0.55617227909127     -1.02166657286566
  N   2.46518573068279      1.33207068819514     -1.30591003183880
