16
Coordinates from ORCA-job run
  C   -0.66051675664570      0.24564251227075     -0.26143621807332
  C   0.63871509937133     -0.45350869977863     -0.73902742449410
  F   -1.08520214120436      0.96692501192391     -1.38299183314277
  H   0.34945292229228     -1.03978386114905     -1.62099105549205
  N   -1.68886740203774     -0.68204149182173      0.07073837008258
  H   -1.70327829670873     -1.51260620964612     -0.50420214314946
  H   -1.74991027855869     -0.90257607836002      1.05153624037765
  C   -0.44564145672697      1.23010324094162      0.86534150265095
  H   0.23793868216781      2.01711977941838      0.54673974639769
  H   -0.03716857312373      0.74120794419497      1.75247119334067
  H   -1.40462259578387      1.68251955522594      1.12142388270154
  N   1.27376418239828     -1.34988252377727      0.21386629806707
  H   1.65797914316405     -0.83248547920896      0.99445863176973
  H   0.59647577952980     -2.01566833529776      0.56385264257311
  C   1.61851029737811      0.54345597267131     -1.18325129727369
  N   2.40237139448812      1.36157866239266     -1.48852853633560
