13

C	-0.419222	-0.036824	-1.468738
C	0.0	0.0	0.0
Br	-2.374841	0.130745	-1.673716
H	1.096767	0.0	0.0
H	0.003717	0.81626	-2.003371
C	-0.01664	-1.280928	-2.109481
N	0.299727	-2.283963	-2.631623
N	-0.452198	-1.183403	0.707295
H	0.25894	-1.453508	1.374389
H	-1.326726	-1.023925	1.188604
C	-0.43697	1.262829	0.610934
N	-0.790061	2.249054	1.144039
Cl	3.226837	0.0	0.0
