13

C	-0.419015	0.003147	-1.469246
C	0.0	0.0	0.0
Br	-2.373539	0.166842	-1.668624
H	1.096678	0.0	0.0
H	0.001855	0.87183	-1.979596
C	-0.007274	-1.220058	-2.146025
N	0.305999	-2.191972	-2.727525
N	-0.450439	-1.205388	0.671678
H	-1.316617	-1.057273	1.173174
H	0.269587	-1.502259	1.319574
C	-0.440895	1.242432	0.647007
N	-0.809592	2.212163	1.199467
Cl	3.226956	0.0	0.0
