13

C	-0.558739	-0.027741	-1.434725
C	0.0	0.0	0.0
Br	0.180433	-1.527575	-2.431286
H	1.094142	0.0	0.0
H	-1.634441	-0.21689	-1.385821
C	-0.323709	1.205388	-2.177627
N	-0.156149	2.186923	-2.801877
N	-0.440425	-1.201703	0.709513
H	0.37064	-1.606069	1.161459
H	-1.129734	-0.982312	1.417835
C	-0.483178	1.221272	0.653722
N	-0.925934	2.156979	1.211202
Cl	3.253164	0.0	0.0
