13

C	-0.40699	0.014408	-1.472117
C	0.0	0.0	0.0
Br	-2.360839	0.182936	-1.689779
H	1.096747	0.0	0.0
H	0.019179	0.887168	-1.970609
C	0.00814	-1.202979	-2.155178
N	0.338742	-2.185093	-2.708806
N	-0.457557	-1.204417	0.661935
H	-1.36177	-1.074434	1.096925
H	0.221554	-1.473525	1.36211
C	-0.437983	1.245337	0.649338
N	-0.790978	2.21331	1.215037
Cl	3.226404	0.0	0.0
