13

C	-0.551703	-0.02468	-1.437366
C	0.0	0.0	0.0
Br	0.184943	-1.517458	-2.445643
H	1.094099	0.0	0.0
H	-1.628486	-0.209831	-1.397322
C	-0.315413	1.212481	-2.17223
N	-0.142341	2.196099	-2.79042
N	-0.4333	-1.200995	0.703238
H	-1.265637	-1.030415	1.252618
H	0.314209	-1.496128	1.319026
C	-0.482169	1.226355	0.653768
N	-0.924265	2.152331	1.228139
Cl	3.28083	0.0	0.0
