13

C	-0.334968	0.042794	-1.504897
C	0.0	0.0	0.0
Br	-2.264322	0.274393	-1.836714
H	1.098205	0.0	0.0
H	0.156314	0.897916	-1.972896
C	0.069625	-1.193459	-2.160206
N	0.38748	-2.195963	-2.683704
N	-0.465551	-1.158384	0.724124
H	-1.407579	-1.416934	0.455041
H	0.169636	-1.929093	0.5601
C	-0.473121	1.235925	0.630005
N	-0.871436	2.225252	1.121427
Cl	3.225512	0.0	0.0
