13

C	-0.353472	0.00268	-1.501857
C	0.0	0.0	0.0
Br	-2.291183	0.194063	-1.805675
H	1.097719	0.0	0.0
H	0.117693	0.853555	-1.997998
C	0.059868	-1.243732	-2.132503
N	0.384541	-2.25185	-2.640966
N	-0.463564	-1.136738	0.759857
H	0.13236	-1.932518	0.565507
H	-1.428222	-1.362077	0.544526
C	-0.471474	1.250411	0.599667
N	-0.861102	2.25534	1.065793
Cl	3.250878	0.0	0.0
