13

C	-0.502878	0.01498	-1.465129
C	0.0	0.0	0.0
Br	0.135767	-1.554174	-2.434358
H	1.095192	0.0	0.0
H	-1.594589	-0.068255	-1.473828
C	-0.131004	1.217629	-2.198756
N	0.142229	2.173742	-2.824192
N	-0.415526	-1.163669	0.758979
H	0.273797	-1.892252	0.62564
H	-1.32609	-1.504103	0.472783
C	-0.526149	1.217852	0.6321
N	-1.01261	2.177126	1.104854
Cl	3.25285	0.0	0.0
