13

C	-0.506344	0.020102	-1.463941
C	0.0	0.0	0.0
Br	0.128055	-1.54869	-2.436527
H	1.095264	0.0	0.0
H	-1.597818	-0.06448	-1.469517
C	-0.137846	1.223447	-2.196906
N	0.130891	2.180878	-2.821168
N	-0.414822	-1.165301	0.757069
H	-1.334899	-1.491785	0.485016
H	0.263727	-1.901194	0.60807
C	-0.525163	1.215147	0.637305
N	-1.015007	2.170906	1.113621
Cl	3.253368	0.0	0.0
