16

C	-0.573354	-0.003091	-1.414092
C	0.0	0.0	0.0
F	0.032042	-0.862324	-2.267936
H	1.096813	0.0	0.0
C	-2.024409	-0.244112	-1.394416
N	-3.172921	-0.473333	-1.30412
N	-0.340232	1.380504	-2.038538
O	-1.14758	1.710947	-2.902259
O	0.671027	1.976448	-1.707221
N	-0.394871	-1.300016	0.664767
O	-0.757215	-1.254822	1.838259
O	-0.299097	-2.319405	-0.009987
N	-0.53091	1.135729	0.693198
H	-1.126989	0.827802	1.451478
H	0.244988	1.658389	1.083849
Br	3.350953	0.0	0.0
