16
Coordinates from ORCA-job run
  C   0.59974309994970      0.43899329491418     -0.02228862000097
  C   -0.77367568064324     -0.22446325029811      0.30510626257662
  Cl  0.38356458724415      1.72328979138088     -1.25403183150277
  H   -0.58717264660328     -0.95993020354090      1.09047250022082
  C   1.66220838139738     -0.54140916602530     -0.50296819929841
  H   2.61773120134019     -0.02554209171566     -0.60164120485392
  H   1.76611077366837     -1.36043495411316      0.21208445070017
  H   1.38386414236432     -0.95457423395836     -1.47186790937873
  C   1.01972751036931      1.08084414256339      1.22462161873308
  N   1.33117643924229      1.55052109327193      2.25604289445044
  N   -1.19021857775356     -1.03720175885027     -0.89439917736947
  O   -0.78046841293480     -2.19574118293337     -0.94048936906464
  O   -1.87648418188816     -0.47272314658985     -1.73815776966759
  N   -1.84898589704152      0.62268835788516      0.67904749492897
  H   -1.73913427345177      0.96318352921769      1.62419061945487
  H   -1.96898646525935      1.39149977879175      0.03327824007153
