15
Coordinates from ORCA-job run
  C   0.86727824464796     -0.32544220813854     -0.16888918054177
  C   -0.55799145869796      0.08636616333100     -0.55569758151692
  Br  1.86951377593733     -0.68755432656304     -1.78753393009477
  H   -0.98462159033400     -0.67299592398120     -1.20977765857656
  N   0.83817119520286     -1.64431584191674      0.61156656931208
  O   1.71108802878108     -1.80916353189162      1.44671788624824
  O   -0.03927954127545     -2.42660673175730      0.27632015350365
  C   1.54964484830008      0.69877195575916      0.60097837299869
  N   2.07049148679017      1.59742595099255      1.15239722377601
  N   -0.56861464079876      1.35579708197271     -1.17913857790665
  H   -0.31746951869901      2.10776090193637     -0.54857300436452
  H   -1.46022390392113      1.54552813661800     -1.61535653555191
  N   -1.44025791395364      0.04541104691358      0.69875627588179
  O   -2.64332717316571      0.11916690135374      0.47948980898436
  O   -0.89340183881383      0.00985042537134      1.79874017784828
