15
Coordinates from ORCA-job run
  C   0.76789799282264     -0.43326673232468     -0.30107223750202
  C   -0.54655590866524      0.38760276966783     -0.53576358902305
  Br  0.93125153443608     -1.83782327755984     -1.60358844732637
  H   -0.53932268506072      0.68463782031965     -1.58483884526864
  N   0.79308897567555     -1.01317352713419      1.13777776971921
  O   0.90790310015713     -0.15010810932184      2.00077339746311
  O   0.68177155914258     -2.21196362116442      1.29369486258937
  C   1.88844908710639      0.48433396300519     -0.41557285019677
  N   2.75596937169033      1.26803458851125     -0.54582627585857
  N   -0.78078709310852      1.50885955150904      0.29636551195589
  H   -0.59848403850457      1.31915128162295      1.27273892992711
  H   -0.26710369569924      2.32246034454217     -0.01110836021232
  N   -1.71180847893330     -0.55688545681822     -0.38239568634142
  O   -1.89618311473464     -0.97729708802324      0.75669388644810
  O   -2.38508660632446     -0.79556250683164     -1.37687806637360
