15
Coordinates from ORCA-job run
  C   0.87571395260708     -0.21934192423076     -0.00477801619011
  C   -0.51455761904188      0.14550899412323     -0.53616630763823
  Br  2.13586668244759     -0.10712628907328     -1.48604550688875
  H   -0.81366942892255     -0.61434390306874     -1.26805503815790
  N   0.91799114158309     -1.68791078962343      0.44829475090272
  O   1.64361837639683     -1.94919309966350      1.39171862830060
  O   0.24999082582244     -2.46181832874063     -0.22081591877469
  C   1.31261962215227      0.65329717998150      1.06718876331216
  N   1.67217678438073      1.38196479589074      1.91687711015871
  N   -0.54777461077796      1.51705293155261     -0.96154658657085
  H   -1.51542132776689      1.80405251304598     -1.05406424699991
  H   -0.09449207854327      1.61496159945944     -1.86080631895054
  N   -1.52107371116363      0.01413841512893      0.59191003009459
  O   -1.16965079942647     -0.57562931552395      1.60809194734610
  O   -2.62933780974737      0.48438722074186      0.36819671005611
