15
Coordinates from ORCA-job run
  C   0.89714450168936     -0.09600062615808     -0.05603886130779
  C   -0.53943774600977      0.23503858762594     -0.47600803989074
  Br  2.09984784602334      0.62247387413514     -1.40920049498503
  H   -0.75709692950805     -0.29927667906510     -1.40857185312872
  N   1.13429318921348     -1.61479619422006     -0.07199784361139
  O   0.55840367018496     -2.22484049400708     -0.96026362165903
  O   1.90343171687464     -2.05782133134550      0.76277764802183
  C   1.24236808609039      0.45661872548546      1.23900001245338
  N   1.52011202934152      0.93317099873032      2.27724362722948
  N   -0.75234492888830      1.65509903138968     -0.46719962321177
  H   -0.34803716305083      2.07578030545026     -1.29353787886989
  H   -1.74992581571729      1.83360035454760     -0.46676272007832
  N   -1.49669209994417     -0.35703272137957      0.54216883818970
  O   -1.05428296437547     -1.18654552417971      1.32969961399714
  O   -2.65778339192380      0.02353169299069      0.46069119685113
