16
Coordinates from ORCA-job run
  C   -0.78261862075099      0.20856394889879      0.42556210725964
  C   0.46220186454622     -0.09424140255250     -0.42245246969575
  F   -0.53473941254840     -0.06191514826910      1.74960335121175
  H   0.17263269941846     -0.06646285968010     -1.47483049310587
  C   -1.15119535539148      1.64566221993528      0.34129327407660
  N   -1.50478145740510      2.75992174201020      0.22127013997879
  N   -1.83390752644835     -0.67961945823337      0.01244593447073
  H   -2.13812278710679     -0.46438931405113     -0.92972474964344
  H   -2.62556831067724     -0.57655495746768      0.63795705327120
  C   1.10601124678487     -1.40944683341086     -0.03529526542394
  H   0.36821105397088     -2.20708588815591     -0.11478515910696
  H   1.47213004633459     -1.35698383669858      0.98812064238179
  H   1.94134092074595     -1.62389004549217     -0.70435703403775
  N   1.44412431699227      1.02855552520052     -0.27063307009234
  O   1.61383521446548      1.75656617146255     -1.24705060971460
  O   1.99144610706961      1.14132013650407      0.82287634817016
