16
Coordinates from ORCA-job run
  C   -0.96430390012563      0.01007681076324      0.13706215496182
  C   0.41251472119580     -0.37694276532422     -0.42103963061129
  F   -1.63190124745591     -1.22573558883870      0.29390760344450
  H   0.22854259202102     -0.92393514136856     -1.34823132317576
  C   -0.88392755194006      0.59718770076367      1.48680892695773
  N   -0.84461893556724      1.03560729116044      2.57493712381453
  N   -1.62564009330326      0.89697491103651     -0.72732334321485
  H   -1.67692670492095      0.54760420132635     -1.67568426440545
  H   -2.53930927165695      1.16582133524025     -0.38779985389459
  C   1.26126676734309     -1.17453162119358      0.54453077218957
  H   1.49036293659852     -0.58523195791241      1.43213384358780
  H   2.19782764997585     -1.46563406429082      0.06565023331188
  H   0.72396189958222     -2.07675536814439      0.83813406491388
  N   1.11396883247970      0.87917045201886     -0.83532532075317
  O   1.15301422801502      1.12176750071119     -2.03930747589333
  O   1.58516807775879      1.57355630405217      0.06054648876674
