16
Coordinates from ORCA-job run
  C   -1.00902544923041      0.05513230653344     -0.10126156792739
  C   0.40327009020929     -0.49674849135861     -0.34876670875205
  F   -1.64214267039030      0.05370243920897     -1.36081560634359
  H   0.29787166788078     -1.50281787175385     -0.75553102496788
  C   -1.74340653494078     -0.92121986717445      0.72930368357706
  N   -2.30684249651949     -1.71122208565804      1.39000009952494
  N   -1.02318553870631      1.30945395975897      0.53163952116567
  H   -1.96717491759077      1.63492710552352      0.69330582362431
  H   -0.48414741276380      1.98725087532844      0.00762462811637
  C   1.29691264722688     -0.46173211280156      0.87397393052403
  H   1.42743888613054      0.56191198917920      1.22084505251843
  H   0.84417903454721     -1.04696158369226      1.67649514109301
  H   2.26922187628298     -0.89708107136911      0.63536381524582
  N   1.04226106101637      0.28404911970182     -1.46051444187053
  O   1.14217867375194      1.50172660202976     -1.30869582794430
  O   1.45459108309588     -0.35137131345624     -2.42396651758389
