16
Coordinates from ORCA-job run
  C   -0.84909792939547      0.28318513779925      0.33215315309622
  C   0.46151374678529     -0.01098020175867     -0.41492361807369
  F   -0.72059174872680     -0.10987791591119      1.66506039025338
  H   0.27635124732800      0.14966292202537     -1.47670748008534
  C   -1.14170644959325      1.72998560150075      0.33049171125107
  N   -1.39079017179127      2.87672724323920      0.30955126849978
  N   -1.91161953788947     -0.39355129830740     -0.32434937463262
  H   -1.78887274008221     -1.39660475542826     -0.25942999147170
  H   -2.80381103060888     -0.14418492595136      0.08467984558462
  C   1.01177905329985     -1.39976084292845     -0.13480744429643
  H   1.19564083549496     -1.52378210643055      0.93180043823819
  H   0.31718306365245     -2.17047041336253     -0.47407073409070
  H   1.94611867758412     -1.53285102134187     -0.68296235044266
  N   1.52462798623945      0.98229997402605     -0.04936219321389
  O   1.66007070136635      1.25632836292155      1.13948009305374
  O   2.21320429633688      1.40387423990810     -0.97560371366997
