16
Coordinates from ORCA-job run
  C   -0.81414410951107      0.19951272230366      0.36738078390521
  C   0.49681567515365     -0.07627452303602     -0.38470155560331
  F   -0.69307683356366     -0.16810230991911      1.68588023914146
  H   0.30636078229085      0.03387700271453     -1.45417417306765
  C   -1.14522215901312      1.64801597330340      0.35385079006611
  N   -1.46471697092043      2.77671594390675      0.28369553471610
  N   -1.84068336436501     -0.63019816332813     -0.20023128668551
  H   -2.04840204473130     -0.34704848964247     -1.15071445617190
  H   -2.68606341900356     -0.54426258731804      0.35359708097417
  C   1.07511400771734     -1.43263657713994     -0.03819612415108
  H   0.33265593600224     -2.20259499041000     -0.24517403363982
  H   1.96585241472939     -1.62002760408065     -0.64059571692106
  H   1.34348528400291     -1.46414321346424      1.01590584068537
  N   1.48343791799399      1.00591704574496     -0.06318471218273
  O   1.75417276145385      1.79853870154444     -0.96360205911220
  O   1.93341412176393      1.02371106882086      1.07926384804686
