16
Coordinates from ORCA-job run
  C   -0.98934282684433     -0.08539187322423      0.08164137902023
  C   0.41177506023460     -0.36466353150574     -0.47203935505992
  F   -1.58775460926008     -1.33285502791161      0.18081945421005
  H   0.25542695308961     -0.87891916035262     -1.42287237090303
  C   -0.94171855733205      0.45571907731280      1.46323604843417
  N   -0.93146301156973      0.89094073313094      2.55435134327021
  N   -1.77841276145820      0.67213285402342     -0.84049347666197
  H   -1.44562892078103      1.62796208842301     -0.87652498269607
  H   -2.74349424000611      0.67356824151399     -0.52876016624296
  C   1.28676893487833     -1.17455277772447      0.46771735194768
  H   2.21949166406828     -1.43373055105270     -0.03301137876885
  H   0.76741682204582     -2.09218063673504      0.74507254211065
  H   1.51243339033124     -0.60788147493630      1.37383582580513
  N   1.13059268037521      0.90439664810306     -0.81844718871859
  O   0.70738996393028      1.96393148457746     -0.35357985256447
  O   2.12651945829817      0.78052390635804     -1.52094517318225
