16
Coordinates from ORCA-job run
  C   -0.79383322151984      0.21032543769342      0.40420363012973
  C   0.47155838724345     -0.09891075434649     -0.41049716200512
  F   -0.56892404944455     -0.02271620193498      1.73964938334574
  H   0.20410231370133     -0.10001910468984     -1.46910968701560
  C   -1.17749833652001      1.64001799148238      0.27612214359093
  N   -1.54145863475114      2.74680140381902      0.12256771952410
  N   -1.82592694824783     -0.70126370627884     -0.00597275196608
  H   -2.10943419540818     -0.51861296058506     -0.96147544640044
  H   -2.63340489830345     -0.58764358448855      0.59719852960436
  C   1.12132173969496     -1.39697117918588      0.02192845028200
  H   1.46497220401564     -1.31593334949203      1.05124862834784
  H   1.97306080056324     -1.61770416925197     -0.62401973666838
  H   0.39408643453327     -2.20463023584947     -0.05377377585529
  N   1.43772629590699      1.03856916477293     -0.26600895511465
  O   1.61645316301630      1.74695540542702     -1.25520130073830
  O   1.96419894551983      1.18173584290834      0.83414033093916
