16
Coordinates from ORCA-job run
  C   -0.82561552669143      0.28326298711088      0.42687438653377
  C   0.44673969620790     -0.02996741991858     -0.38754500946822
  F   -0.44788479571065      0.28503939480635      1.76580643239295
  H   0.18837913624656      0.02988046212903     -1.44590763411525
  C   -1.33377537079680      1.63517202692329      0.11932249702138
  N   -1.77672077003711      2.69205879972435     -0.13524840601509
  N   -1.86598514139732     -0.65283225433963      0.21700953985570
  H   -2.65864953805452     -0.31348289182906     -0.30174654251642
  H   -1.56813655704286     -1.56788010894568     -0.07696678956487
  C   1.07612803877708     -1.35888789402922     -0.01557075342139
  H   1.25796080459140     -1.40776430598455      1.05557614751854
  H   2.02745339944537     -1.47232759405599     -0.53719637681483
  H   0.43908337092018     -2.19264409387038     -0.31755006966154
  N   1.44152600939134      1.07850383564578     -0.17355440725284
  O   1.40182713640688      2.00580893254287     -0.98107997179307
  O   2.19767010774398      0.98706012409053      0.78877695730117
