16
Coordinates from ORCA-job run
  C   -0.81764620506066      0.22820689666977      0.34253746369380
  C   0.49751572162876     -0.11471330170777     -0.37371152161046
  F   -0.68780301348680      0.03119876228932      1.69646847311336
  H   0.30411397412266     -0.14372377901777     -1.44791228649208
  C   -1.17631188553537      1.65721820476939      0.14943866142627
  N   -1.51789405036866      2.76177412327817     -0.06085575035730
  N   -1.82836967842355     -0.68529226874180     -0.11288452077799
  H   -2.03888755121045     -0.53138289961438     -1.09198675172040
  H   -2.67638215952040     -0.54461749558625      0.42540955278278
  C   1.10285913840553     -1.40496547621472      0.13918571266159
  H   1.99465092354774     -1.65152653550123     -0.43987889269281
  H   1.37574192946598     -1.29644772109729      1.18700644989075
  H   0.37450295842884     -2.20869435510891      0.03702221084034
  N   1.46331614068009      1.01823011230823     -0.19494622662317
  O   1.71850147530498      1.69485319360767     -1.18960112459348
  O   1.91309228202133      1.18988253966757      0.93470855045881
