16
Coordinates from ORCA-job run
  C   -0.79338452528362      0.31231969274696      0.37353079697042
  C   0.49383695525375      0.08286992029890     -0.43514441025596
  F   -0.48613730162840      0.04983075023240      1.71811781067108
  H   0.34900755171606      0.51384203102472     -1.42674604769752
  C   -1.24182547866877      1.71681833027842      0.31006372875909
  N   -1.62577694821236      2.82349846094978      0.23506193249024
  N   -1.82710589785102     -0.51547409196581     -0.12319997974304
  H   -1.61830145596059     -1.49203029462474      0.04186225915578
  H   -2.71738915175021     -0.28528565540204      0.30022475184437
  C   0.90311313542339     -1.37375100127599     -0.49704624586036
  H   0.92626128962672     -1.81555160037942      0.49838660932312
  H   1.90162163705066     -1.45942124529722     -0.92589938879159
  H   0.21548220285580     -1.92333084645695     -1.14157709744191
  N   1.57895964074849      0.91102318784373      0.20013546043528
  O   1.60240778687251      2.09969649509466     -0.11388327381032
  O   2.33823055980759      0.35494586693260      0.98711309395132
