16
Coordinates from ORCA-job run
  C   -0.80314481639684      0.36579895105541      0.28354206182710
  C   0.50314574189053     -0.00040485250551     -0.43879846683403
  F   -0.51430568755900      0.40714174191885      1.65694950907866
  H   0.36900987497805      0.20622941609302     -1.50158375918148
  C   -1.28392518248008      1.71179062070918     -0.08445909474238
  N   -1.72982855718916      2.76212249997238     -0.35944838672459
  N   -1.80973390786226     -0.57511463140065     -0.03610037613129
  H   -1.58315219397494     -1.48705676563303      0.34025190957641
  H   -2.71229516526327     -0.28042273301984      0.31528846828599
  C   0.94385465821797     -1.42632646036229     -0.18374128336255
  H   0.27821168993598     -2.11695868624183     -0.70355242863687
  H   1.95079971714867     -1.57752267711277     -0.57270935594290
  H   0.96022699171960     -1.64492211626466      0.88335381881826
  N   1.55773086330571      0.97140842416679      0.02094212206827
  O   2.32894236802012      0.60757684700885      0.90273846162722
  O   1.54446360550892      2.07466042161609     -0.52167319972582
