16
Coordinates from ORCA-job run
  C   -1.00361885974416      0.14689683986544      0.05453949161771
  C   0.30027604289259     -0.50150527039647     -0.43522219342354
  F   -1.80884826732634      0.29254715871430     -1.09338406458587
  H   0.04373499915489     -1.46257201190294     -0.88181887271400
  C   -1.69890360853529     -0.82363618738534      0.92462697900585
  N   -2.23234599184351     -1.61115145296109      1.61264582589264
  N   -0.80884936038094      1.34717686004819      0.75807826455749
  H   -1.68460747039006      1.73778606422000      1.08004618547258
  H   -0.28915081172537      2.01501924644795      0.20277635590152
  C   1.35976937320404     -0.63218612495914      0.63986845303351
  H   1.63730553749020      0.34910762115785      1.02139995079641
  H   0.97297891724323     -1.23121633963016      1.46642646387650
  H   2.24072891412246     -1.13255663149737      0.23303705687340
  N   0.84315594533042      0.30354735659977     -1.58016327776680
  O   1.07796198088830      1.49378805556392     -1.37047065155451
  O   1.04941265961953     -0.29004518388491     -2.63238596698290
