16
Coordinates from ORCA-job run
  C   -0.98597441942242     -0.10600786958356      0.09754689189599
  C   0.41255598245660     -0.36234464548229     -0.47397806095231
  F   -1.55579342068474     -1.36469011985745      0.21972729702533
  H   0.25235239921909     -0.89551455487914     -1.41367807453887
  C   -0.93077837336118      0.45168183281017      1.47187840432108
  N   -0.91723009228779      0.89967485999863      2.55778671863852
  N   -1.80388221005098      0.62368053629432     -0.82146520643311
  H   -2.76394160631728      0.61118539452330     -0.49536164339198
  H   -1.49035619983296      1.58499312266387     -0.87514486676831
  C   1.31966346610068     -1.13725930751567      0.46500625630295
  H   0.81949443675437     -2.05404466265302      0.77699636225018
  H   1.55694452716955     -0.54504273301424      1.35125835470320
  H   2.24487168861766     -1.39664118941013     -0.04885495667017
  N   1.09802235606428      0.91578922819817     -0.85068847341556
  O   2.08324061904127      0.80311840766235     -1.56989651213565
  O   0.66181084653384      1.97242170024469     -0.39113249083128
