16
Coordinates from ORCA-job run
  C   -0.96461893774489     -0.00399624359184      0.15013164836631
  C   0.40963779445306     -0.36529102495711     -0.43192287703492
  F   -1.61685377334218     -1.24971113961566      0.29074225861159
  H   0.21893739014709     -0.89958589267316     -1.36515940435447
  C   -0.87270818652600      0.55769952936855      1.50988448971121
  N   -0.79696071275440      0.97624053433844      2.60390913885648
  N   -1.64547746337996      0.89204442956336     -0.68909321845184
  H   -2.55799775758964      1.14455894896131     -0.33453486714449
  H   -1.70241135045272      0.56217526470318     -1.64387722849578
  C   1.28068393169351     -1.16813791636225      0.50896937699624
  H   0.75538659237171     -2.07822436175124      0.80002737116931
  H   2.21124626050945     -1.44580916337387      0.01082594051947
  H   1.51972831744004     -0.58814118865904      1.40002738402901
  N   1.09020102863794      0.90556717525622     -0.83634606451214
  O   1.10586057380503      1.16807926004417     -2.03678096337201
  O   1.56634629273195      1.59153178874894      0.06319701510603
