17
Coordinates from ORCA-job run
  C   -0.60276338401236     -0.64501841279315     -0.16922956800773
  C   0.67973886234620     -0.07825151378782      0.41574206759970
  F   -0.35322272971555     -1.87759775003712     -0.63303188719240
  H   0.93785914264417     -0.75629165973400      1.23545022458171
  N   -1.15029358924203      0.19024578856592     -1.30660686776612
  O   -1.66170268242502     -0.41614787164533     -2.23483203003063
  O   -1.03365128701507      1.40123835099299     -1.16388355334097
  N   -1.72454492359333     -0.80492791853008      0.85503328974075
  O   -2.77666731240600     -0.22321428676022      0.64426399106103
  O   -1.43978547347652     -1.56002394282154      1.77085755584691
  N   0.43862869768443      1.25375130122628      1.08863545012068
  O   -0.52279065908945      1.30439748024389      1.84793676212849
  O   1.24037824821620      2.15122894645828      0.87206475484110
  C   1.78301900926602      0.00092872918479     -0.61847337053966
  H   2.71826303750077      0.27900401859463     -0.13599040752936
  H   1.91149842046861     -0.97193627050164     -1.09407705210988
  H   1.55603662284896      0.75261501134412     -1.37385935940363
