17
Coordinates from ORCA-job run
  C   -0.69038861398341     -0.55557654347986     -0.22105585127664
  C   0.64513114365367     -0.19382240792862      0.41480307150251
  F   -0.55414755980359     -1.71936649855699     -0.86900495684097
  H   0.80569389031491     -0.91412337559700      1.21993111378016
  N   -1.22204298170567      0.45738020629383     -1.23222110669771
  O   -0.61930846014813      0.46457328670997     -2.29492991373795
  O   -2.18468437574328      1.13079802390600     -0.90000342981869
  N   -1.79123877274029     -0.72934950494194      0.81188138872737
  O   -1.66686656816618     -0.07563167207025      1.83991928498280
  O   -2.69386218897098     -1.49185498854676      0.50415802962903
  N   0.61304487108933      1.14781951653469      1.08172040023672
  O   0.17692026562997      2.07962431438457      0.41199535010076
  O   1.09601645663313      1.21337924266109      2.20437296971773
  C   1.80422967002924     -0.20048889338064     -0.57019309942725
  H   2.72785532754179     -0.02921715785961     -0.01448130378928
  H   1.86997151878482     -1.16577548684096     -1.07052172127173
  H   1.68167637758468      0.58063193871246     -1.31837022581685
