17
Coordinates from ORCA-job run
  C   -0.78460352289869      0.10551195885460     -0.24822856306886
  C   0.60721310904685     -0.10586741745416      0.30350669473119
  F   -1.01246547393108      1.33566954066237     -0.67571335598915
  H   0.72275514526760     -1.15699331986836      0.56383754234398
  N   -1.88109776710768     -0.29693955720389      0.73227008280118
  O   -2.94831279483708      0.28078880025124      0.60026778112627
  O   -1.58954062501467     -1.18816342588027      1.51752683378836
  N   -0.97183695915846     -0.85042795329129     -1.43559005216740
  O   -0.74448297161676     -2.02938436036422     -1.19410461021443
  O   -1.31903404572493     -0.34765278239954     -2.49209935400850
  N   0.76083408156265      0.64828649314934      1.59853811509028
  O   1.81590296861932      0.45829057550242      2.19012913883644
  O   -0.15058087973555      1.39157226105337      1.95115957834425
  C   1.67348688727586      0.35795496930902     -0.67417888313125
  H   1.55142135348629      1.41686944775285     -0.90531558245542
  H   2.65550335764876      0.19611906056453     -0.23209313450827
  H   1.61583813711756     -0.21563429063802     -1.60091223151867
