17
Coordinates from ORCA-job run
  C   -0.78183360292615      0.11737900842067     -0.25255266897182
  C   0.60274536484562     -0.10667362184446      0.31218165056734
  F   -0.97237874081086      1.33080841170708     -0.74265984327359
  H   0.68296419265490     -1.14433962277791      0.63320033884340
  N   -1.89147614870608     -0.20178074183078      0.74329261521199
  O   -1.62627157409187     -1.05562378136548      1.57793258683132
  O   -2.94222185735752      0.39623606268833      0.57470302594818
  N   -0.99468948863660     -0.89142339112095     -1.39102363112365
  O   -0.81391922549155     -2.06355225256553     -1.08549588056901
  O   -1.31080673514334     -0.43203497500624     -2.47651458924005
  N   0.78092846347776      0.71606765311601      1.56210889658082
  O   1.83667565350673      0.53818925915140      2.15621263190901
  O   -0.11411602454107      1.49384308338317      1.88010005760538
  C   1.68296816950910      0.26289447964675     -0.69005109780128
  H   2.65910732960856      0.10381026847161     -0.23423903262251
  H   1.59076043861938      1.30695711409270     -0.99172790876498
  H   1.61156378548300     -0.36975695416637     -1.57646715113056
