11

C	-0.554281	-0.000506	-1.393428
C	0.0	0.0	0.0
F	-0.24329	-1.20093	-2.053826
H	1.100413	0.0	0.0
H	-1.649007	0.069386	-1.402598
H	-0.114753	0.812286	-1.977686
H	-0.349791	0.932737	0.468374
N	-0.583316	-1.138729	0.752127
H	-0.061532	-1.182434	1.62312
H	-0.27611	-1.964557	0.244762
F	2.789661	0.0	0.0
