15
Coordinates from ORCA-job run
  C   0.92053855005931     -0.43845287891119     -0.27045285963265
  C   -0.47561782743242     -0.06195027889859      0.17979512489124
  H   1.20176684595706      0.11176452269878     -1.16826354991740
  H   -0.70958921126604     -0.63337621088215      1.08871347677771
  H   1.02435070651538     -1.51216814445642     -0.44846504854598
  N   1.97021247198574     -0.10598344814908      0.74717765797248
  O   1.61820445537485      0.05366548837595      1.91558958068022
  O   3.12642722761555     -0.05323282353435      0.34188444452461
  C   -1.46015993709935     -0.44228651245016     -0.91788701917398
  H   -1.40765386979379     -1.50769872863759     -1.15324809266233
  H   -2.48346414579888     -0.22234877433296     -0.60242658657806
  H   -1.25261786021363      0.13324297304732     -1.82310087288304
  N   -0.51790073785401      1.38368354104623      0.38824996063751
  H   -0.07288284106743      1.60781957587237      1.27034673283959
  H   -1.48161382698235      1.68932169921184      0.45208705107008
