15
Coordinates from ORCA-job run
  C   0.92532602659198     -0.47103214531651     -0.32589918154228
  C   -0.42594363147560     -0.06771996274062      0.24207066985518
  H   0.96925328498744     -1.54082913877117     -0.53909215132021
  H   -0.57189441949060     -0.64435239774331      1.15981696334180
  H   1.18254830017893      0.10386216706842     -1.21637509983569
  N   1.98992685899933     -0.19196862281974      0.67861580561806
  O   2.87712416150185      0.59736849842685      0.36924837782162
  O   1.89328949180396     -0.78018473641136      1.75215744628302
  C   -1.53305054825381     -0.40497073798502     -0.75548249803307
  H   -1.55990593212594     -1.47276634575498     -0.99167503330442
  H   -2.50661736753565     -0.12511548786428     -0.34613313769284
  H   -1.38948299762089      0.14823021990565     -1.68914184171349
  N   -0.34425803829970      1.33573938354368      0.62967866708978
  H   -0.38057927031687      1.93058244991879     -0.19109450795191
  H   -1.12473591894441      1.58415685654361      1.22430552138445
