15
Coordinates from ORCA-job run
  C   0.83938623592863     -0.62552219700541     -0.13104642211527
  C   -0.46950925484215      0.06313802874206      0.19495343290282
  H   1.14215719342242     -0.42009321943947     -1.15768797084331
  H   -0.72769944083787     -0.16545561257278      1.23823457302083
  H   0.79257122624128     -1.70587865034602      0.03031934683468
  N   1.97585949845952     -0.15025702829093      0.72368088903740
  O   1.70991099636524      0.40411033219771      1.78975713767419
  O   3.10601675641755     -0.38510543307109      0.30968007904949
  C   -1.55235591778451     -0.49018970104846     -0.72152921031989
  H   -1.31928893405858     -0.25401728977811     -1.76251632939422
  H   -2.51959070851792     -0.04185457578891     -0.47968788096104
  H   -1.65319888492096     -1.57277081235969     -0.61609249212149
  N   -0.31024711459437      1.49431009041314     -0.05256439052388
  H   0.20450262787995      1.91168175719682      0.71366476056439
  H   -1.22051427915822      1.93790431115115     -0.08016552280469
