14

C	-0.481111	-0.039287	-1.431968
C	0.0	0.0	0.0
Br	-2.441901	-0.00439	-1.541337
H	1.092079	0.0	0.0
H	-0.368557	0.895321	0.493426
N	-0.023079	1.285546	-2.095901
O	-0.178844	2.295046	-1.426912
O	0.408946	1.214624	-3.236593
C	-0.00061	-1.148428	-2.238804
N	0.376168	-2.029102	-2.921612
N	-0.468938	-1.16105	0.786718
O	-0.655676	-2.228629	0.205462
O	-0.598061	-0.975573	1.993765
Cl	3.171903	0.0	0.0
