14

C	-0.480913	0.004274	-1.432425
C	0.0	0.0	0.0
Br	-2.442209	0.035879	-1.541256
H	1.092876	0.0	0.0
H	-0.36814	0.880281	0.519647
N	-0.028973	1.349775	-2.05471
O	-0.18358	2.337714	-1.353996
O	0.398123	1.315377	-3.198508
C	0.002354	-1.076926	-2.27429
N	0.377152	-1.941117	-2.978367
N	-0.469672	-1.18259	0.753678
O	-0.603224	-1.030061	1.964842
O	-0.65616	-2.233366	0.142266
Cl	3.173913	0.0	0.0
