17

C	0.0	0.0	0.0
C	-0.293803	0.073342	-1.588646
Cl	1.83342	0.0	0.0
H	0.105727	-0.888766	-1.950785
C	-0.392985	1.147822	0.799681
N	-0.64668	2.078797	1.478645
N	-0.483684	-1.235016	0.492856
H	0.079071	-1.987875	0.107909
H	-0.424812	-1.261582	1.505632
N	0.625817	1.107685	-2.19465
O	1.329582	0.768316	-3.156327
O	0.544107	2.249191	-1.755309
C	-1.607151	0.326989	-2.444857
H	-1.182022	0.421015	-3.467099
H	-2.117669	1.256324	-2.195373
H	-2.316878	-0.483019	-2.465671
Br	-3.516211	0.0	0.0
