15

C	0.0	0.0	0.0
C	-0.472862	0.122313	-1.457115
F	1.393143	0.0	0.0
H	-0.115206	-0.722164	-2.052713
H	-1.580676	0.095868	-1.379703
N	-0.487023	1.05332	0.841005
H	-1.515983	0.93017	0.820884
H	-0.286227	1.948336	0.401822
C	-0.45445	-1.330517	0.558845
H	-1.549434	-1.351208	0.524915
H	-0.107652	-1.405235	1.591195
H	-0.02912	-2.148323	-0.029575
C	-0.025622	1.365431	-2.071663
N	0.335148	2.375407	-2.550705
H	-3.121128	0.0	0.0
