15

C	0.0	0.0	0.0
C	-0.569724	-0.016474	-1.408178
F	1.414653	0.0	0.0
H	-0.33262	0.917349	-1.925938
H	-1.678092	-0.050067	-1.233228
N	-0.415671	1.22782	0.601616
H	0.12161	1.993379	0.210367
H	-0.271448	1.196035	1.602097
C	-0.501508	-1.175949	0.795969
H	-1.601032	-1.105637	0.790582
H	-0.113763	-1.125442	1.81863
H	-0.167137	-2.111792	0.341266
C	-0.098941	-1.138097	-2.209033
N	0.275876	-2.041368	-2.860174
H	-3.329632	0.0	0.0
