15

C	0.0	0.0	0.0
C	-0.472601	0.116794	-1.457914
F	1.393408	0.0	0.0
H	-1.581923	0.081634	-1.384114
H	-0.104191	-0.723726	-2.057455
N	-0.48327	1.056082	0.835507
H	-0.276406	1.949469	0.395335
H	-1.51042	0.933099	0.818406
C	-0.454817	-1.328019	0.567322
H	-0.034833	-2.151481	-0.01815
H	-1.550132	-1.34562	0.536881
H	-0.105365	-1.398271	1.599483
C	-0.043151	1.368146	-2.068156
N	0.301073	2.389178	-2.535584
H	-3.112057	0.0	0.0
