15

C	0.0	0.0	0.0
C	-0.505226	0.028943	-1.436512
F	1.401462	0.0	0.0
H	-0.202058	-0.885795	-1.954621
H	-1.613043	0.043823	-1.342695
N	-0.486302	1.176072	0.657555
H	-0.276988	1.096895	1.648705
H	-1.51575	1.101008	0.568399
C	-0.417857	-1.303482	0.661096
H	0.004699	-2.16617	0.135874
H	-0.054337	-1.310686	1.693906
H	-1.51327	-1.334482	0.651027
C	-0.024314	1.183631	-2.185178
N	0.330737	2.113373	-2.808316
H	-3.110626	0.0	0.0
