15

C	0.0	0.0	0.0
C	-0.475228	0.105783	-1.456291
F	1.393324	0.0	0.0
H	-0.122613	-0.747721	-2.044325
H	-1.583365	0.082012	-1.381228
N	-0.483323	1.063783	0.828805
H	-1.50875	0.931367	0.832136
H	-0.302828	1.952481	0.36976
C	-0.453972	-1.323783	0.577226
H	-1.549042	-1.348089	0.543129
H	-0.02807	-2.150228	0.000532
H	-0.107421	-1.38566	1.610833
C	-0.033662	1.341202	-2.090045
N	0.322279	2.346469	-2.582499
H	-3.139632	0.0	0.0
