16

C	0.0	0.0	0.0
C	-0.560472	-0.07191	-1.408299
Cl	1.783681	0.0	0.0
H	-1.662712	-0.178205	-1.184753
H	-0.266197	-0.934127	0.500053
N	-0.542189	1.176868	0.623696
H	-1.570431	1.006751	0.541293
H	-0.326192	1.130608	1.615216
N	-0.140733	-1.336309	-2.062113
O	0.147533	-1.314808	-3.26333
O	-0.156873	-2.365004	-1.382402
C	-0.273737	1.131044	-2.271442
H	-0.828232	1.071508	-3.208077
H	-0.586594	2.016233	-1.718512
H	0.790727	1.212775	-2.501085
H	-2.984447	0.0	0.0
