16

C	0.0	0.0	0.0
C	-0.555165	-0.029235	-1.423511
Cl	1.787021	0.0	0.0
H	-1.656592	-0.14262	-1.19258
H	-0.29176	-0.939652	0.465281
N	-0.526674	1.065286	0.80183
H	-0.355472	1.953355	0.340156
H	-1.551013	0.883879	0.770405
N	-0.138465	-1.271469	-2.119525
O	0.160314	-1.216609	-3.317686
O	-0.163713	-2.318722	-1.469701
C	-0.28797	1.191937	-2.269441
H	-0.774233	1.092392	-3.239266
H	-0.712091	2.066653	-1.772193
H	0.78176	1.348491	-2.431016
H	-2.984201	0.0	0.0
