16

C	0.0	0.0	0.0
C	-0.251613	-0.066164	-1.545894
Cl	1.805027	0.0	0.0
H	0.195529	-0.995413	-1.904199
H	-0.311264	-0.966476	0.397914
N	-0.617462	1.027249	0.75416
H	-0.526609	1.903632	0.253777
H	-1.623598	0.776607	0.783732
N	0.549054	0.993115	-2.255608
O	1.248327	0.649152	-3.208052
O	0.411477	2.15803	-1.876417
C	-1.671462	0.084615	-2.04326
H	-1.999294	1.120314	-1.936225
H	-2.389004	-0.467965	-1.418094
H	-1.711146	-0.214372	-3.098369
H	-3.48572	0.0	0.0
