16

C	0.0	0.0	0.0
C	-0.562489	-0.228461	-1.386843
Cl	1.823196	0.0	0.0
H	-1.661956	-0.32849	-1.139454
H	-0.239819	-0.880881	0.599994
N	-0.539654	1.228634	0.502502
H	-1.568651	1.049622	0.433325
H	-0.328091	1.273505	1.495477
N	-0.124545	-1.545419	-1.909176
O	0.143971	-1.646961	-3.110445
O	-0.101182	-2.492961	-1.121554
C	-0.320253	0.886157	-2.372227
H	0.742862	1.009608	-2.586133
H	-0.700182	1.804684	-1.92911
H	-0.845833	0.691973	-3.306719
H	-2.978787	0.0	0.0
