16

C	0.0	0.0	0.0
C	-0.524975	-0.038743	-1.436815
Cl	1.789094	0.0	0.0
H	-1.621181	-0.185192	-1.240802
H	-0.294241	-0.941674	0.461639
N	-0.542105	1.061306	0.78888
H	-1.566983	0.864958	0.749547
H	-0.380291	1.948057	0.322995
N	-0.030944	-1.264494	-2.114931
O	0.463427	-1.174362	-3.24452
O	-0.163372	-2.329713	-1.50837
C	-0.265899	1.193484	-2.267682
H	-0.669117	1.064445	-3.271775
H	-0.778829	2.040498	-1.808688
H	0.800868	1.412159	-2.351118
H	-2.975503	0.0	0.0
