15

C	-0.435618	-0.004691	-1.45063
C	0.0	0.0	0.0
F	-0.072717	-1.201334	-2.059244
H	1.102933	0.0	0.0
H	0.069202	0.801277	-1.991385
C	-1.897434	0.141837	-1.60458
N	-3.055419	0.260707	-1.75309
N	-0.576997	-1.183257	0.647454
H	-0.261662	-1.177751	1.612237
H	-0.140002	-1.996419	0.225331
C	-0.485166	1.261964	0.693517
H	-0.140136	2.156176	0.167308
H	-0.063302	1.302482	1.700925
H	-1.576206	1.277251	0.767928
Cl	3.490042	0.0	0.0
