15

C	-0.44337	-0.024774	-1.449539
C	0.0	0.0	0.0
F	-1.838949	-0.161478	-1.521919
H	1.09646	0.0	0.0
H	-0.006839	-0.897805	-1.937925
C	-0.096949	1.195775	-2.196721
N	0.132681	2.165447	-2.815864
N	-0.42881	-1.274992	0.576804
H	0.170621	-1.48487	1.367095
H	-1.384334	-1.198367	0.910997
C	-0.510853	1.233878	0.736906
H	-0.180908	1.190291	1.777313
H	-0.113134	2.15392	0.301321
H	-1.605255	1.278315	0.716298
Cl	3.45885	0.0	0.0
