15

C	-0.404481	-0.01409	-1.471429
C	0.0	0.0	0.0
F	-1.801435	-0.156295	-1.58814
H	1.09653	0.0	0.0
H	0.041456	-0.883313	-1.963473
C	-0.034312	1.201072	-2.210782
N	0.223523	2.169502	-2.821307
N	-0.45194	-1.214222	0.674643
H	-1.403344	-1.424924	0.399744
H	0.140557	-1.990038	0.406614
C	-0.526529	1.228862	0.722808
H	-0.198031	1.178828	1.760851
H	-0.135875	2.147494	0.279419
H	-1.620741	1.262541	0.702193
Cl	3.424143	0.0	0.0
