15

C	-0.546995	-0.054562	-1.418373
C	0.0	0.0	0.0
F	-0.131299	1.032184	-2.172066
H	1.095069	0.0	0.0
H	-1.641342	-0.027706	-1.369701
C	-0.166383	-1.291465	-2.12379
N	0.070819	-2.275159	-2.717164
N	-0.540888	-1.198659	0.669018
H	0.123428	-1.951929	0.520432
H	-0.538435	-1.027646	1.669123
C	-0.499148	1.257798	0.686601
H	-0.217713	2.142379	0.114358
H	-0.038051	1.342487	1.674352
H	-1.589155	1.230578	0.803857
Cl	3.474243	0.0	0.0
