11
Coordinates from ORCA-job run
  C   -0.17997273387716      0.09754232797393     -0.00911804699867
  C   -0.50571670819938      1.31032784373474      0.47221743658318
  H   0.26177983463657      2.00572338377899      0.78430415800398
  H   -1.53762977597228      1.63937576906670      0.54008437423393
  C   1.23905918481536     -0.37833569380901     -0.12349456414598
  H   1.47976873779029     -0.60049972994143     -1.16651521789106
  H   1.93756175021776      0.37003352400609      0.24975711028372
  H   1.38710004334342     -1.29902057308378      0.45156794430961
  N   -1.11435089824024     -0.79843997790868     -0.54917857102142
  H   -0.90040496315759     -1.76544149683955     -0.35219311091029
  H   -2.06819447135674     -0.58226537697798     -0.29743151244699
