11
Coordinates from ORCA-job run
  C   -0.17843613506451      0.08896100230228      0.04702833375625
  C   -0.50922992727650      1.39157540389505      0.00008362456779
  H   0.25262225251646      2.15346823539967     -0.09546360090589
  H   -1.53891333722302      1.72253436269064      0.09001624742371
  C   1.23871560368855     -0.39477714615695     -0.05821115257145
  H   1.93009953182022      0.43599310044149     -0.19621294605599
  H   1.35410447708116     -1.07826064170870     -0.90665141232555
  H   1.51744523095999     -0.94352645381138      0.84537879528032
  N   -1.10039288740041     -0.93619657231568      0.30359784503818
  H   -2.06115293045383     -0.65255306289738      0.17562108959048
  H   -0.90486187864812     -1.78621822783904     -0.20518682379784
