11
Coordinates from ORCA-job run
  C   -0.17671774579744      0.08925869914877      0.05301074405903
  C   -0.49802774055845      1.39500310727222      0.03409409359491
  H   0.26856102500310      2.15236206925047     -0.05926127667114
  H   -1.52405675875394      1.73133223849065      0.14350601528758
  C   1.23466314783412     -0.40319564291757     -0.08366674092550
  H   1.93024477584605      0.42491663884101     -0.21665416971472
  H   1.52414055118929     -0.97184457493335      0.80408061908006
  H   1.33106664025955     -1.07079448659278     -0.94699441673504
  N   -1.10312273450264     -0.93354250497496      0.30179953824472
  H   -0.92339129818691     -1.77441213348730     -0.22749319921945
  H   -2.06335986233275     -0.63908341009716      0.19657879299956
