11
Coordinates from ORCA-job run
  C   -0.18410192270729      0.08821273924235     -0.02056367667620
  C   -0.50360871932956      1.39316760085624      0.04106360204748
  H   0.26335621782987      2.15400309064167     -0.01252289702744
  H   -1.53444146171693      1.72468082516401      0.11411200395768
  C   1.23152979493797     -0.39795122525996     -0.13514531168117
  H   1.93574713782949      0.43351996602281     -0.13526180962668
  H   1.35964743708998     -0.97285115712374     -1.05617671673546
  H   1.48441723169034     -1.05794961999755      0.70197171997310
  N   -1.13471318786171     -0.94049286924305     -0.08902203131403
  H   -2.06200869294232     -0.64871576878740      0.18445209624469
  H   -0.85782383481984     -1.77462358151537      0.40809302083804
