11
Coordinates from ORCA-job run
  C   -0.18450148026711      0.08817929061266     -0.01537693864332
  C   -0.50439387568801      1.39200720693739      0.06397410934891
  H   -1.53341050456135      1.72151354589041      0.16581954003861
  H   0.25991142409922      2.15441243811483     -0.00351171110234
  C   1.22846784092658     -0.39495843406442     -0.16886880244749
  H   1.50369849923817     -1.05917893090180      0.65776633665297
  H   1.33381818178738     -0.96445359456120     -1.09612465599843
  H   1.93108559444583      0.43775653779709     -0.18258198084114
  N   -1.13486826522149     -0.94174158702116     -0.06763595807028
  H   -0.84437718714491     -1.77903130820201      0.41623896824996
  H   -2.05543022761433     -0.65350516460180      0.23130109281256
