11
Coordinates from ORCA-job run
  C   -0.18214040711329      0.08946818512242     -0.02837188010817
  C   -0.50580260512440      1.39083273953311      0.07306334640872
  H   -1.45323242901140      1.77303531754477     -0.29316068310452
  H   0.16283291498968      2.09143936794642      0.55478514980500
  C   1.11538617565678     -0.46822050658661      0.48042229764935
  H   1.74123099183491      0.31489471957153      0.90741473760581
  H   1.67577610319442     -0.94839326855669     -0.32930795925109
  H   0.92611096332283     -1.22785266491702      1.24354801768145
  N   -1.05598760690530     -0.89098079218827     -0.52007510771391
  H   -0.58931204554792     -1.61458564948407     -1.04750555245563
  H   -1.83386205529631     -0.51063744798560     -1.03981236651700
