12

C	-0.472478	-0.083449	-1.425544
C	0.0	0.0	0.0
F	-1.868129	-0.239821	-1.493687
H	1.093264	0.0	0.0
H	-0.027152	-0.961451	-1.897448
H	-0.360298	0.933385	0.453943
C	-0.152487	1.120206	-2.212033
N	0.040553	2.069806	-2.872459
N	-0.422595	-1.214982	0.696009
H	0.309198	-1.453766	1.354853
H	-1.282474	-1.063038	1.204637
H	2.928976	0.0	0.0
