12

C	-0.470758	-0.005687	-1.42862
C	0.0	0.0	0.0
F	-1.829981	-0.362543	-1.523653
H	1.09357	0.0	0.0
H	0.092666	-0.750041	-1.998443
H	-0.309493	-0.964581	0.428944
C	-0.332824	1.301501	-2.086781
N	-0.247758	2.315035	-2.669967
N	-0.499754	1.158853	0.731774
H	0.24862	1.492992	1.327205
H	-1.288153	0.917266	1.313305
H	2.934183	0.0	0.0
