12

C	-0.584684	-0.034569	-1.399035
C	0.0	0.0	0.0
F	-0.246321	1.098245	-2.123945
H	1.097975	0.0	0.0
H	-1.674794	-0.067107	-1.334425
H	-0.362059	0.920589	0.469364
C	-0.162007	-1.227368	-2.159374
N	0.12261	-2.164111	-2.807167
N	-0.517984	-1.187778	0.702129
H	-0.758651	-0.935389	1.651039
H	0.265399	-1.830164	0.784285
H	2.967294	0.0	0.0
