12

C	-0.474965	0.00087	-1.431905
C	0.0	0.0	0.0
F	-0.196199	-1.22524	-2.031729
H	1.100415	0.0	0.0
H	0.061116	0.768762	-1.998406
H	-0.339565	0.934275	0.462823
C	-1.929134	0.228476	-1.553311
N	-3.078043	0.451409	-1.640507
N	-0.604746	-1.138692	0.706839
H	-0.342451	-1.048585	1.682742
H	-0.111296	-1.962756	0.378359
H	3.002403	0.0	0.0
