12

C	-0.589458	-0.022177	-1.39518
C	0.0	0.0	0.0
F	-0.221163	1.10086	-2.125315
H	1.097935	0.0	0.0
H	-1.682941	-0.025221	-1.330258
H	-0.364586	0.911073	0.485601
C	-0.200687	-1.226244	-2.154977
N	0.078737	-2.16038	-2.807787
N	-0.528644	-1.198148	0.686112
H	0.216597	-1.889944	0.64861
H	-0.64159	-0.981711	1.668538
H	2.96829	0.0	0.0
