12

C	-0.501639	0.002274	-1.429538
C	0.0	0.0	0.0
F	-0.215654	-1.197133	-2.067799
H	1.094011	0.0	0.0
H	-0.010947	0.809253	-1.977808
H	-0.366189	-0.903194	0.503062
C	-1.964277	0.192671	-1.48714
N	-3.131695	0.305617	-1.500635
N	-0.433272	1.255269	0.620903
H	0.367294	1.645878	1.104191
H	-1.166019	1.096472	1.297115
H	2.936247	0.0	0.0
