12

C	-0.492418	-0.036747	-1.433606
C	0.0	0.0	0.0
F	-0.036355	1.066787	-2.14688
H	1.093239	0.0	0.0
H	-1.590859	0.019828	-1.468297
H	-0.356095	-0.906438	0.504158
C	-0.105999	-1.2639	-2.15269
N	0.118478	-2.254711	-2.741919
N	-0.441482	1.199331	0.705517
H	-1.297602	1.573389	0.313933
H	0.279581	1.901414	0.589097
H	2.953661	0.0	0.0
