18

C	-0.1802	-0.061894	-1.526802
C	0.0	0.0	0.0
F	-1.471434	-0.542509	-1.856432
H	1.091187	0.0	0.0
C	-0.030563	1.277061	-2.219283
H	-0.820748	1.974959	-1.936542
H	0.940133	1.693111	-1.946991
H	-0.076717	1.118292	-3.301489
N	0.788581	-1.04246	-1.94005
H	1.660858	-0.830538	-1.426937
H	0.961411	-0.950897	-2.934125
N	-0.518931	-1.130276	0.711945
H	0.189337	-1.851941	0.662553
H	-1.357435	-1.468915	0.254321
N	-0.607364	1.249262	0.531175
O	0.073467	2.276467	0.525187
O	-1.784601	1.202259	0.897859
F	2.656581	0.0	0.0
