18

C	-0.332946	0.002208	-1.492515
C	0.0	0.0	0.0
F	-1.735739	-0.014212	-1.64243
H	1.090961	0.0	0.0
C	0.23891	1.179732	-2.244973
H	-0.299417	2.096518	-2.016934
H	1.280697	1.287377	-1.938186
H	0.164592	0.963467	-3.313003
N	0.18099	-1.214446	-2.068896
H	0.016274	-1.939069	-1.372909
H	1.192627	-1.090595	-2.098706
N	-0.486657	-1.19659	0.625532
H	0.110376	-1.404964	1.414231
H	-1.432929	-1.067298	0.956742
N	-0.502156	1.231971	0.695527
O	-0.003235	2.313219	0.385513
O	-1.379465	1.109625	1.559094
F	2.60454	0.0	0.0
