18

C	-0.423399	0.107327	-1.469181
C	0.0	0.0	0.0
F	-1.774436	0.616143	-1.514356
H	1.092644	0.0	0.0
C	0.461183	1.052468	-2.252923
H	0.333053	0.876362	-3.327141
H	1.487622	0.839682	-1.940847
H	0.217801	2.087639	-2.021775
N	-0.378362	-1.196206	-2.022755
H	-0.825579	-1.195946	-2.92921
H	-0.826527	-1.837216	-1.379298
N	-0.510691	-1.190914	0.633858
H	0.236308	-1.566615	1.200025
H	-1.288964	-0.953	1.234635
N	-0.46393	1.235842	0.717336
O	0.020476	2.309873	0.372136
O	-1.307532	1.129542	1.613674
F	2.602205	0.0	0.0
