13

C	-0.47005	0.056191	-1.432485
C	0.0	0.0	0.0
Cl	-2.251497	-0.000532	-1.553287
H	1.095377	0.0	0.0
H	-0.133987	0.957601	-1.936601
H	-0.352113	-0.933466	0.449174
N	0.068912	-1.097759	-2.229819
O	-0.12448	-2.22468	-1.784396
O	0.669864	-0.819169	-3.266261
N	-0.453928	1.210416	0.681452
H	-1.231811	1.012176	1.295178
H	0.310348	1.570184	1.236964
Br	3.593853	0.0	0.0
