13

C	-0.572461	-0.231222	-1.38382
C	0.0	0.0	0.0
Cl	-0.011848	-1.73459	-2.105166
H	1.096582	0.0	0.0
H	-1.660144	-0.264396	-1.335385
H	-0.358862	0.980568	0.321366
N	-0.261259	0.953724	-2.278772
O	-0.84021	1.983819	-1.93421
O	0.489707	0.838043	-3.233299
N	-0.564689	-1.025789	0.890944
H	-0.449673	-0.693529	1.84147
H	0.032569	-1.842938	0.818585
Br	3.630418	0.0	0.0
