13

C	-0.508389	0.072218	-1.429499
C	0.0	0.0	0.0
Cl	-2.193507	0.63656	-1.515886
H	1.091572	0.0	0.0
H	0.099638	0.73841	-2.038414
H	-0.303388	0.938103	0.483234
N	-0.396164	-1.288611	-2.076078
O	0.746535	-1.576983	-2.41459
O	-1.386702	-1.998863	-2.178161
N	-0.484692	-1.197327	0.665465
H	0.234518	-1.539243	1.285594
H	-1.324683	-1.020257	1.19606
Br	3.59853	0.0	0.0
