13

C	-0.385679	0.071351	-1.465487
C	0.0	0.0	0.0
Cl	-2.158128	0.175658	-1.717527
H	1.094956	0.0	0.0
H	0.06234	0.92286	-1.972257
H	-0.382426	-0.928904	0.424289
N	0.082471	-1.142664	-2.219259
O	0.662677	-0.941281	-3.283067
O	-0.165597	-2.237543	-1.725801
N	-0.429737	1.148787	0.780043
H	-1.369745	1.436108	0.543074
H	0.207193	1.918857	0.624402
Br	3.558017	0.0	0.0
