18

C	-0.171447	-0.009652	-1.48329
C	0.019211	0.019177	0.025947
Br	-2.246308	-0.547946	-1.860726
H	1.116082	0.035739	0.082154
N	0.039584	1.244779	-2.053589
H	-0.592425	1.95041	-1.704159
H	0.002224	1.208901	-3.062607
C	0.662222	-1.081068	-2.132236
H	1.679838	-0.866131	-1.752889
H	0.58474	-1.034157	-3.222543
H	0.347445	-2.069492	-1.797554
C	-0.420306	-1.21925	0.650457
N	-0.744684	-2.195244	1.220234
C	-0.59329	1.228615	0.726251
H	-1.661446	1.328669	0.505677
H	-0.473763	1.129637	1.807217
H	-0.062567	2.133729	0.422129
F	2.643836	-0.156696	-0.309615
