18

C	-0.02435	-0.007882	-1.496976
C	-0.012157	-0.033188	0.039648
Br	-1.928893	0.260907	-2.151111
H	1.075185	-0.164555	0.218396
N	0.767887	1.108942	-1.906601
H	0.905512	1.048204	-2.911176
H	1.691026	0.896081	-1.430655
C	0.44619	-1.33935	-2.062496
H	-0.164863	-2.182235	-1.732481
H	1.475521	-1.427258	-1.699589
H	0.43957	-1.3035	-3.155373
C	-0.748991	-1.16812	0.581936
N	-1.334438	-2.06658	1.064064
C	-0.465318	1.272094	0.692133
H	-0.297615	1.225102	1.771553
H	-1.524852	1.460762	0.505293
H	0.120824	2.087722	0.27211
F	2.709938	0.063051	-0.509339
