16

C	0.0	0.0	0.0
C	-0.377034	-0.021207	-1.521115
Cl	1.769206	0.0	0.0
H	0.530305	-0.371073	-2.022787
C	-0.46214	1.156338	0.756971
N	-0.525883	2.169971	1.353343
N	-0.356153	-1.292681	0.739478
O	-0.317318	-2.312484	0.067359
O	-0.507465	-1.207357	1.947428
C	-0.665763	1.397857	-2.017146
H	0.153588	2.071769	-1.75511
H	-0.772999	1.378932	-3.104516
H	-1.593967	1.749547	-1.567692
C	-1.390905	-0.964643	-2.004013
N	-1.955943	-1.725001	-2.70382
Cl	-2.974314	0.0	0.0
