16

C	0.0	0.0	0.0
C	-0.371628	0.159224	-1.515795
Cl	1.769001	0.0	0.0
H	0.53507	-0.139348	-2.050139
C	-0.462678	1.058792	0.886868
N	-0.54799	2.001936	1.58599
N	-0.358675	-1.370613	0.576591
O	-0.311097	-2.303194	-0.21157
O	-0.519054	-1.430164	1.784793
C	-0.649194	1.628121	-1.841957
H	-0.735163	1.742208	-2.924134
H	0.167405	2.261557	-1.48553
H	-1.583768	1.927111	-1.370339
C	-1.38973	-0.713454	-2.109586
N	-1.948815	-1.372987	-2.909092
Cl	-2.965802	0.0	0.0
