13
Coordinates from ORCA-job run
  C   -0.40468624835194     -0.18852144538609      0.05864071280837
  C   1.09010595207894     -0.19663268589478      0.31894504514538
  F   -1.06132254088522      0.11020139921951      1.23683066389539
  H   1.61978194266257     -0.26329996069289     -0.63121550020074
  H   1.31765149512217     -1.09256107456409      0.90484095979052
  N   -0.84456865684444     -1.36800508946409     -0.55633910976686
  H   -1.83845335373418     -1.31888633067880     -0.74736174185755
  H   -0.63440381577694     -2.18218136437039      0.00539916216790
  N   -0.79557791177138      0.94524686183057     -0.88706318995290
  O   -1.99695671585036      1.03661690532514     -1.11022275065566
  O   0.09532196836494      1.64914363853584     -1.34698322656372
  C   1.53605925629065      0.97523188811359      1.06676621033608
  N   1.91504862869518      1.89464725802648      1.68776276485378
