13
Coordinates from ORCA-job run
  C   -0.51655559968960     -0.22421802477494      0.05058281059280
  C   0.54991620550435      0.14937026734069      1.06221603304393
  F   -1.67979310714629     -0.47303518545721      0.77731007599620
  H   0.18767364800219      0.98388092862176      1.66250598757729
  H   0.68512816356505     -0.70879135985615      1.72767203870880
  N   -0.14022144627365     -1.24830435015548     -0.81070220657027
  H   -0.85376103724315     -1.44708259141360     -1.49918200280515
  H   0.15478133120597     -2.08094427595096     -0.32122254289284
  N   -0.90591300670449      0.97689445731793     -0.81091110366870
  O   -1.56061964554347      0.71932524972757     -1.81415560635549
  O   -0.59281847603246      2.08993013340922     -0.40520804671891
  C   1.81903501029888      0.49554492899550      0.43241844585485
  N   2.85214796005666      0.76742982219566     -0.05132388276251
