13
Coordinates from ORCA-job run
  C   -0.50328045624355     -0.09888969946053      0.12343289556813
  C   0.84021378427217      0.58537132735039      0.39539891473045
  F   -1.20744305215140     -0.07244133984706      1.29705855552419
  H   0.65668096934855      1.52614930244288      0.91841745080191
  H   1.33513329415726      0.79813105143307     -0.55668151071165
  N   -0.48411708035493     -1.37698351459903     -0.43299301558510
  H   -0.71913860301484     -1.39006441503589     -1.41334228467233
  H   0.33865225359110     -1.91501024712777     -0.20943345197521
  N   -1.26729061697214      0.84768928831819     -0.82315055901012
  O   -1.60661497690089      1.91378053247489     -0.32962052466715
  O   -1.43851949836359      0.49161461013840     -1.98460420536811
  C   1.69092413259803     -0.28529319200250      1.19916103230446
  N   2.36379985003422     -1.02405370408505      1.81435670306053
