13
Coordinates from ORCA-job run
  C   0.95828415883122     -0.16272637455347      0.12331074989828
  C   -0.54252015873090     -0.18145778166166      0.50102243907212
  F   1.70546283098688     -0.01410429751063      1.26790865218417
  H   -0.68491000687419     -1.07034019404732      1.12393651091424
  C   1.22389399784542      0.96392492656714     -0.78562430657596
  N   1.38551163085954      1.87743262906524     -1.50640304373677
  C   1.31151691299177     -1.43372654869582     -0.52582481064598
  N   1.60684130046976     -2.46483077745026     -1.00386921386242
  N   -1.30717401219681     -0.32031107913516     -0.71705566445700
  H   -1.46078094046868      0.57629482774297     -1.16277655216348
  H   -2.20286317291217     -0.75524812930035     -0.54206092425681
  C   -0.84988987817154      1.00971693855026      1.31232501923244
  N   -1.14237266263030      1.97537586042906      1.91411114439719
