13
Coordinates from ORCA-job run
  C   0.73122571121388      0.00247310114768     -0.49069062419711
  C   -0.46695848762142     -0.01267798129421      0.48371498480334
  F   0.27397276096886      0.45615694171501     -1.71039766130934
  H   -0.10520043212793     -0.40431213306820      1.44037682236956
  C   1.25740554583385     -1.36169455003091     -0.64894529664954
  N   1.71194309800750     -2.43873636208312     -0.75824148070494
  C   1.79339128465566      0.89937703019936     -0.00983928744176
  N   2.63328567595956      1.61175748738768      0.39902353216045
  N   -1.45782183977898     -0.91821428905007     -0.05186427375373
  H   -2.13586879474000     -1.16973343891362      0.65531362825199
  H   -1.94274172138296     -0.49622449579172     -0.83401194190279
  C   -0.93064237056634      1.37400080222800      0.68914533692559
  N   -1.36199043042169      2.45682788755412      0.83641626144827
