13
Coordinates from ORCA-job run
  C   0.77407728645578      0.06500059817049     -0.41655870366069
  C   -0.51006567294528     -0.07841677287719      0.42952640491698
  F   0.43497082744331      0.70879332244183     -1.58823787120365
  H   -0.24088777331612     -0.62134646552222      1.34178061567501
  C   1.30731742667168     -1.26855436611368     -0.73330177033061
  N   1.76458530293037     -2.32586853480953     -0.96033468503554
  C   1.78992871876519      0.85770392825984      0.29308089261082
  N   2.58952021462351      1.48340794048083      0.88411646839647
  N   -1.45052959841994     -0.87024109589517     -0.33007752741773
  H   -2.19265445261133     -1.21604757544123      0.26358438293821
  H   -1.85841351522150     -0.32228521985314     -1.07711467831826
  C   -0.98482928211581      1.26738825502813      0.80791767067210
  N   -1.42301948225985      2.32146598613104      1.08561880075688
