14

C	-0.408758	0.3066	-1.419416
C	0.0	0.0	0.0
Br	0.054047	2.103425	-1.949111
H	1.092126	0.0	0.0
H	0.0876	-0.36821	-2.118549
N	-1.89045	0.144444	-1.676182
O	-2.659223	0.37064	-0.745676
O	-2.224964	-0.194852	-2.810344
C	-0.43269	-1.364568	0.306287
N	-0.776643	-2.456636	0.576806
N	-0.393803	0.989701	0.975973
H	0.332668	1.02822	1.68312
H	-1.287973	0.781232	1.395717
H	2.643772	0.0	0.0
