14

C	-0.534086	-0.105793	-1.432608
C	0.0	0.0	0.0
Br	0.316283	-1.521578	-2.442781
H	1.096731	0.0	0.0
H	-1.605577	-0.296157	-1.477119
N	-0.369756	1.218311	-2.128036
O	0.703665	1.523798	-2.621471
O	-1.373883	1.937084	-2.082409
C	-0.51242	-1.151649	0.735852
N	-0.918038	-2.087772	1.321681
N	-0.322524	1.24105	0.680597
H	-1.153913	1.698628	0.330691
H	0.485487	1.848952	0.587645
H	2.61136	0.0	0.0
