14

C	-0.409199	-0.082754	-1.438091
C	0.0	0.0	0.0
Br	-2.349245	-0.07314	-1.743853
H	1.104585	0.0	0.0
H	-0.014609	0.779976	-1.966514
N	0.134524	-1.291795	-2.139952
O	0.089025	-2.364647	-1.549908
O	0.579483	-1.109121	-3.271041
C	-0.512852	-1.052143	0.860217
N	-0.925555	-1.820686	1.65037
N	-0.308594	1.345118	0.487306
H	-1.11255	1.338543	1.10126
H	0.508802	1.646772	1.012242
H	2.581326	0.0	0.0
