14

C	-0.336324	0.015872	-1.487026
C	0.0	0.0	0.0
Br	0.203513	1.670166	-2.330714
H	1.096042	0.0	0.0
H	0.177473	-0.79342	-2.004729
N	-1.802354	-0.189384	-1.729877
O	-2.580337	0.668669	-1.31858
O	-2.130516	-1.245587	-2.270685
C	-0.472592	-1.271232	0.541363
N	-0.85046	-2.295674	0.978688
N	-0.427958	1.11438	0.810656
H	0.312408	1.807963	0.788541
H	-1.292916	1.516539	0.472408
H	2.602651	0.0	0.0
