16

C	-0.324562	0.094661	-1.47937
C	0.0	0.0	0.0
F	-1.680257	0.410131	-1.682407
H	1.101338	0.0	0.0
N	0.472377	1.18105	-1.972157
H	1.404238	1.095987	-1.546274
H	0.574352	1.109658	-2.977685
C	-0.084937	-1.135327	-2.268595
N	0.165459	-1.984513	-3.040592
N	-0.513738	-1.221345	0.661154
O	-0.398293	-1.27498	1.882387
O	-0.957655	-2.139577	-0.039264
N	-0.397506	1.167754	0.726775
H	-0.997845	1.755244	0.162335
H	0.436193	1.686451	0.976793
H	2.596745	0.0	0.0
