16

C	-0.48422	0.062894	-1.442851
C	0.0	0.0	0.0
F	0.043757	-1.00131	-2.181197
H	1.090367	0.0	0.0
N	-1.906758	0.129443	-1.545091
H	-2.268426	-0.735555	-1.158328
H	-2.181091	0.208885	-2.517427
C	0.068823	1.292849	-2.066238
N	0.428435	2.257427	-2.630506
N	-0.46244	-1.222522	0.685611
O	-1.15028	-2.060256	0.072899
O	-0.06954	-1.37771	1.838978
N	-0.361066	1.155734	0.759382
H	-1.122016	1.673045	0.34257
H	0.464036	1.735615	0.876412
H	2.562941	0.0	0.0
