16

C	-0.497962	0.014281	-1.445182
C	0.0	0.0	0.0
F	-1.928414	-0.204101	-1.403365
H	1.090523	0.0	0.0
N	-0.168934	1.24174	-2.031897
H	-0.354395	1.992151	-1.379737
H	-0.594961	1.36919	-2.938016
C	-0.00657	-1.082099	-2.295035
N	0.3217	-1.942024	-3.019067
N	-0.436032	-1.268993	0.646452
O	-1.06386	-1.208055	1.714426
O	-0.070987	-2.320747	0.116598
N	-0.496977	1.157202	0.67112
H	-1.406815	0.957903	1.071167
H	0.146599	1.366715	1.429313
H	2.557021	0.0	0.0
