16

C	-0.278564	0.073009	-1.513293
C	0.0	0.0	0.0
F	-1.549315	0.615571	-1.77545
H	1.090179	0.0	0.0
N	0.719513	0.933624	-2.047597
H	1.619614	0.758856	-1.566802
H	0.835707	0.799377	-3.042485
C	-0.312581	-1.26943	-2.145822
N	-0.284907	-2.315022	-2.680119
N	-0.607158	-1.232031	0.582724
O	-1.840739	-1.259946	0.621476
O	0.137587	-2.125204	0.982134
N	-0.460814	1.138606	0.725884
H	0.304662	1.80022	0.789134
H	-1.259846	1.567807	0.272825
H	2.753211	0.0	0.0
