14

C	-0.326177	0.08784	-1.510293
C	0.0	0.0	0.0
Cl	-0.171583	-1.629055	-2.239215
H	1.097261	0.0	0.0
H	-1.374952	0.322022	-1.706564
N	0.53109	1.035599	-2.08255
H	1.50325	0.86143	-1.831212
H	0.422317	1.128472	-3.081481
N	-0.48378	-1.134034	0.758586
H	0.132046	-1.915144	0.576126
H	-1.417763	-1.391726	0.462548
C	-0.489954	1.243318	0.608247
N	-0.935072	2.203679	1.116741
Br	3.492975	0.0	0.0
