14

C	-0.558671	-0.039252	-1.424271
C	0.0	0.0	0.0
Cl	0.199588	-1.36809	-2.335682
H	1.093226	0.0	0.0
H	-1.620151	-0.319894	-1.358372
N	-0.298194	1.19903	-2.119403
H	-0.598189	1.1221	-3.082704
H	-0.805728	1.956833	-1.674531
N	-0.435605	-1.178193	0.743952
H	-1.307631	-1.0033	1.231246
H	0.278362	-1.411497	1.424876
C	-0.467299	1.246719	0.631396
N	-0.930742	2.195037	1.149723
Br	3.540277	0.0	0.0
