14

C	-0.486265	-0.018504	-1.452372
C	0.0	0.0	0.0
Cl	0.184926	1.421368	-2.342693
H	1.093299	0.0	0.0
H	-0.03949	-0.884767	-1.941139
N	-1.911697	-0.101945	-1.513406
H	-2.319336	0.746416	-1.133818
H	-2.222705	-0.200388	-2.471807
N	-0.424654	-1.193548	0.724442
H	-1.315299	-1.510845	0.35796
H	0.27979	-1.909844	0.591113
C	-0.534367	1.195108	0.666651
N	-1.038792	2.136639	1.154755
Br	3.502754	0.0	0.0
