14

C	-0.459804	0.001633	-1.448952
C	0.0	0.0	0.0
Cl	-2.36907	0.133297	-1.423722
H	1.093946	0.0	0.0
H	-0.182291	0.919345	-1.964075
N	0.000448	-1.137423	-2.095795
H	-0.136258	-1.958147	-1.523231
H	-0.33287	-1.247507	-3.040502
N	-0.408823	-1.245918	0.642453
H	-1.338808	-1.162364	1.036038
H	0.253211	-1.459849	1.379113
C	-0.451039	1.205611	0.708177
N	-0.802853	2.143824	1.321525
Br	3.475597	0.0	0.0
