14

C	0.0	0.0	0.0
C	-0.525275	0.120025	-1.4442
Br	1.956069	0.0	0.0
H	-1.640324	0.005416	-1.308796
C	-0.392542	1.195817	0.753387
N	-0.579954	2.154502	1.408566
C	-0.429026	-1.205159	0.715271
N	-0.580148	-2.154438	1.392893
N	-0.021565	-0.998331	-2.303132
O	0.422066	-0.720448	-3.413987
O	-0.135301	-2.125081	-1.832328
C	-0.188779	1.404043	-2.031575
N	0.046142	2.457781	-2.495846
Cl	-3.198407	0.0	0.0
