18

C	0.0	0.0	0.0
C	-0.399281	0.013775	-1.510628
F	1.388108	0.0	0.0
H	0.580921	-0.013063	-1.997712
N	-0.503601	1.112692	0.731749
H	-0.342102	0.965268	1.722599
H	-1.517504	1.131188	0.592055
C	-0.316353	-1.306051	0.653502
N	-0.488246	-2.318952	1.223473
C	-1.090951	1.303434	-1.949609
H	-0.545284	2.184527	-1.608218
H	-1.129124	1.322691	-3.043206
H	-2.114841	1.339074	-1.574842
C	-1.177572	-1.219588	-1.969106
H	-2.14967	-1.264417	-1.476947
H	-1.340874	-1.152913	-3.049671
H	-0.625141	-2.142124	-1.771057
Br	-3.962321	0.0	0.0
