18

C	0.0	0.0	0.0
C	-0.497606	-0.096527	-1.438944
F	1.415781	0.0	0.0
H	-1.583962	-0.229975	-1.344613
N	-0.50063	1.128967	0.67093
H	-0.180923	1.990928	0.256586
H	-0.319213	1.107197	1.66316
C	-0.336899	-1.21975	0.771445
N	-0.462726	-2.211097	1.386297
C	0.12992	-1.289391	-2.153474
H	-0.062596	-2.222495	-1.617967
H	-0.301271	-1.387734	-3.153121
H	1.211612	-1.166219	-2.253532
C	-0.225326	1.206617	-2.188234
H	0.826903	1.500129	-2.106984
H	-0.456124	1.076002	-3.248781
H	-0.863698	2.011999	-1.819201
Br	-4.017766	0.0	0.0
