18

C	0.0	0.0	0.0
C	-0.476158	-0.129302	-1.445695
F	1.415161	0.0	0.0
H	-1.561277	-0.265412	-1.362792
N	-0.496821	1.151415	0.636764
H	-0.148631	1.993066	0.200818
H	-0.307608	1.155542	1.628874
C	-0.344014	-1.20121	0.796798
N	-0.461694	-2.17621	1.438938
C	0.173323	-1.332361	-2.123066
H	-0.243957	-1.458876	-3.126145
H	-0.014628	-2.255301	-1.568795
H	1.255049	-1.199799	-2.211728
C	-0.19624	1.158475	-2.217759
H	0.850962	1.463265	-2.116704
H	-0.851827	1.965419	-1.882394
H	-0.397386	1.00066	-3.281267
Br	-3.975258	0.0	0.0
