18

C	0.0	0.0	0.0
C	-0.43313	0.28238	-1.440675
F	1.413022	0.0	0.0
H	-0.124095	1.322654	-1.607744
N	-0.47861	0.982399	0.908125
H	-0.471185	0.637555	1.859962
H	-1.435588	1.226671	0.669176
C	-0.328138	-1.398067	0.389994
N	-0.534259	-2.504228	0.72677
C	-1.935708	0.144352	-1.643871
H	-2.285692	-0.866432	-1.419385
H	-2.558027	0.800936	-1.036771
H	-2.178686	0.353899	-2.689541
C	0.319524	-0.622461	-2.41555
H	0.024875	-1.666905	-2.272192
H	1.400158	-0.545485	-2.297124
H	0.05878	-0.343475	-3.439674
Br	-5.040801	0.0	0.0
