18

C	0.0	0.0	0.0
C	-0.494139	-0.066678	-1.442629
F	1.412907	0.0	0.0
H	-0.086968	0.841577	-1.914195
N	-0.512764	1.125808	0.673374
H	-0.139031	1.22397	1.606484
H	-0.389207	1.972089	0.135542
C	-0.351067	-1.226965	0.752237
N	-0.585659	-2.215406	1.339823
C	-2.019479	-0.041478	-1.49373
H	-2.36062	-0.13671	-2.527762
H	-2.466551	-0.858406	-0.924043
H	-2.451832	0.864515	-1.074452
C	0.080544	-1.284229	-2.160973
H	-0.340536	-2.204446	-1.746665
H	1.167768	-1.329645	-2.080184
H	-0.18815	-1.245779	-3.21912
Br	-5.397759	0.0	0.0
