18

C	0.0	0.0	0.0
C	-0.47798	-0.206324	-1.440685
F	1.389214	0.0	0.0
H	-1.571316	-0.241516	-1.38535
N	-0.493532	1.225193	0.535185
H	-1.511844	1.201277	0.411846
H	-0.313399	1.258657	1.532803
C	-0.327527	-1.19041	0.844024
N	-0.519315	-2.138082	1.511269
C	0.040043	-1.523763	-2.009158
H	-0.320797	-2.378862	-1.433408
H	1.13369	-1.546448	-2.018945
H	-0.313944	-1.642739	-3.037046
C	-0.049851	0.976877	-2.304937
H	-0.416351	0.833184	-3.325898
H	1.0405	1.060054	-2.338474
H	-0.454755	1.912749	-1.921015
Br	-3.769856	0.0	0.0
