15

C	0.0	0.0	0.0
C	-0.555386	-0.28283	-1.382225
Cl	1.793944	0.0	0.0
H	-1.648342	-0.145529	-1.320985
H	-0.306596	-1.29723	-1.688413
C	-0.388032	1.314134	0.529344
N	-0.604282	2.342057	1.054594
C	-0.488304	-1.092742	0.947482
H	-0.131018	-2.063711	0.595495
H	-1.581694	-1.062617	0.952893
H	-0.100995	-0.910598	1.950996
N	-0.019064	0.607756	-2.443492
O	0.084847	1.804957	-2.193684
O	0.25804	0.079349	-3.520932
Cl	-3.638535	0.0	0.0
