15

C	0.0	0.0	0.0
C	-0.548467	-0.276653	-1.39089
Cl	1.793743	0.0	0.0
H	-1.636645	-0.104209	-1.355713
H	-0.324019	-1.300496	-1.683688
C	-0.381528	1.319685	0.520865
N	-0.59312	2.351117	1.04085
C	-0.501131	-1.087714	0.944517
H	-0.144927	-0.890299	1.956445
H	-1.595231	-1.069379	0.922556
H	-0.123573	-2.057709	0.613738
N	0.044009	0.593156	-2.437631
O	0.045748	1.804357	-2.235523
O	0.478263	0.040727	-3.449331
Cl	-3.64951	0.0	0.0
