15

C	0.0	0.0	0.0
C	-0.552922	0.112594	-1.420276
Cl	1.794192	0.0	0.0
H	-1.64519	-0.010458	-1.344776
H	-0.280552	1.06435	-1.872005
C	-0.387959	1.230513	0.700695
N	-0.602047	2.23206	1.275879
C	-0.4894	-1.218617	0.77124
H	-0.119392	-1.165065	1.796358
H	-0.123864	-2.127939	0.297417
H	-1.58292	-1.203751	0.764469
N	0.000438	-0.934369	-2.318372
O	0.707023	-0.55893	-3.256016
O	-0.283936	-2.106972	-2.079736
Cl	-3.637298	0.0	0.0
