15

C	0.0	0.0	0.0
C	-0.526282	0.100547	-1.431922
Cl	1.793966	0.0	0.0
H	-0.207855	1.033408	-1.892492
H	-1.621218	0.011252	-1.377232
C	-0.398422	1.229585	0.694952
N	-0.612857	2.236209	1.261365
C	-0.469871	-1.230575	0.766962
H	-0.057821	-2.127368	0.307249
H	-1.561354	-1.253822	0.737172
H	-0.120614	-1.160492	1.79859
N	0.010896	-0.983819	-2.295137
O	0.780181	-0.65785	-3.201057
O	-0.350721	-2.135813	-2.06075
Cl	-3.605092	0.0	0.0
