15

C	0.0	0.0	0.0
C	-0.550236	0.081713	-1.423307
Cl	1.794221	0.0	0.0
H	-0.268928	1.02214	-1.893956
H	-1.643068	-0.029495	-1.344923
C	-0.378039	1.25319	0.668591
N	-0.591791	2.268974	1.218649
C	-0.488724	-1.194663	0.809385
H	-0.101175	-1.119171	1.826784
H	-1.581154	-1.164807	0.815668
H	-0.140566	-2.118291	0.350734
N	-0.008259	-0.989486	-2.298289
O	0.682357	-0.638515	-3.255965
O	-0.290123	-2.154718	-2.024332
Cl	-3.658221	0.0	0.0
