15

C	0.0	0.0	0.0
C	-0.226191	0.069905	-1.534737
Cl	1.798836	0.0	0.0
H	0.412215	-0.694334	-1.975664
H	0.067729	1.054278	-1.894733
C	-0.415084	1.236221	0.664748
N	-0.645197	2.2657	1.181541
C	-0.568748	-1.23617	0.658676
H	-0.240964	-1.286002	1.69886
H	-0.237541	-2.127457	0.123625
H	-1.662393	-1.154628	0.612408
N	-1.565213	-0.221205	-2.130063
O	-1.896654	-1.402388	-2.150541
O	-2.145564	0.713348	-2.670702
Cl	-3.803404	0.0	0.0
