14

C	0.0	0.0	0.0
C	-0.476484	-0.479895	-1.353246
F	1.41575	0.0	0.0
H	-0.279416	-1.558477	-1.420018
H	-0.280178	1.044246	0.163301
H	0.152704	0.002067	-2.109252
N	-0.525178	-0.781875	1.051411
H	-0.278659	-1.756308	0.945293
H	-0.241787	-0.445169	1.960059
C	-1.953236	-0.172907	-1.591833
H	-2.610946	-0.566411	-0.815885
H	-2.126325	0.906741	-1.617747
H	-2.283233	-0.578574	-2.551263
Cl	-5.425324	0.0	0.0
