14

C	0.0	0.0	0.0
C	-0.442676	0.195629	-1.43476
F	1.406186	0.0	0.0
H	-0.120659	-0.692085	-1.994643
H	-0.280008	0.866936	0.607652
H	-1.53466	0.220066	-1.423564
N	-0.496323	-1.213277	0.566103
H	-1.160672	-1.632024	-0.072558
H	-1.041778	-1.00018	1.38931
C	0.128859	1.454998	-2.073567
H	-0.202465	2.342603	-1.527275
H	-0.213261	1.55919	-3.106859
H	1.220346	1.438684	-2.070213
Cl	-3.726314	0.0	0.0
