13

C	-0.369479	0.106906	-1.47401
C	0.0	0.0	0.0
F	-1.701398	0.511192	-1.611537
H	1.093954	0.0	0.0
H	-0.323253	0.934892	0.465858
N	0.472365	1.097632	-2.055847
H	1.427086	0.996579	-1.711086
H	0.469621	1.037846	-3.065244
C	-0.307489	-1.209641	-2.16322
N	-0.224135	-2.231553	-2.736012
C	-0.596971	-1.132292	0.684153
N	-1.099624	-2.030725	1.248419
Cl	3.284948	0.0	0.0
