13

C	-0.320783	-0.045754	-1.494894
C	0.0	0.0	0.0
F	-0.096961	1.266754	-1.974286
H	1.094741	0.0	0.0
H	-0.376465	0.928484	0.429911
N	0.501771	-1.006104	-2.107468
H	1.466635	-0.890409	-1.797237
H	0.437138	-0.971734	-3.115737
C	-1.747543	-0.308016	-1.797796
N	-2.884032	-0.481444	-2.035898
C	-0.524331	-1.153671	0.714249
N	-0.974636	-2.062983	1.304284
Cl	3.311524	0.0	0.0
