13

C	-0.371481	0.100405	-1.47515
C	0.0	0.0	0.0
F	-1.693559	0.537496	-1.611443
H	1.094012	0.0	0.0
H	-0.322554	0.937697	0.460541
N	0.492437	1.064244	-2.068404
H	0.482921	1.000774	-3.077914
H	1.445944	0.946179	-1.725379
C	-0.348481	-1.22316	-2.153032
N	-0.307159	-2.247587	-2.726398
C	-0.595684	-1.128594	0.691627
N	-1.093337	-2.028084	1.25844
Cl	3.286692	0.0	0.0
