13

C	-0.341181	0.027458	-1.498025
C	0.0	0.0	0.0
F	-0.072135	1.318587	-1.921914
H	1.094871	0.0	0.0
H	-0.388171	0.884106	0.509355
N	0.446475	-0.867894	-2.290771
H	1.415531	-0.79387	-1.975902
H	0.137541	-1.823381	-2.155734
C	-1.782055	-0.219576	-1.751606
N	-2.923741	-0.422115	-1.934572
C	-0.491461	-1.22261	0.617132
N	-0.888746	-2.223912	1.084694
Cl	3.298253	0.0	0.0
