13

C	-0.543289	0.018868	-1.425244
C	0.0	0.0	0.0
F	-0.07612	-1.105336	-2.073875
H	1.092254	0.0	0.0
H	-0.339923	-0.940054	0.444355
N	-1.980612	-0.058939	-1.427176
H	-2.367822	0.628977	-0.79269
H	-2.339741	0.121427	-2.357235
C	-0.049584	1.193134	-2.191778
N	0.226843	2.172794	-2.778363
C	-0.53397	1.120248	0.76212
N	-1.026333	2.022196	1.330979
Cl	3.299147	0.0	0.0
