13

C	-0.325854	-0.084898	-1.492546
C	0.0	0.0	0.0
F	-0.179671	1.205372	-2.03833
H	1.09277	0.0	0.0
H	-0.327735	-0.917232	0.494659
N	0.542738	-1.032705	-2.069981
H	0.485086	-1.023548	-3.079766
H	1.501282	-0.866018	-1.760122
C	-1.736433	-0.452874	-1.764206
N	-2.852351	-0.758928	-1.964301
C	-0.581852	1.161217	0.649829
N	-1.078223	2.074545	1.195069
Cl	3.314056	0.0	0.0
