13

C	-0.523479	0.030446	-1.428859
C	0.0	0.0	0.0
F	-0.072362	-1.073939	-2.118396
H	1.092857	0.0	0.0
H	-0.308856	0.917527	0.513405
N	-1.960014	-0.014199	-1.458743
H	-2.354457	0.627458	-0.784186
H	-2.309782	0.210981	-2.381889
C	0.004813	1.22539	-2.142344
N	0.280914	2.204986	-2.72901
C	-0.524315	-1.154102	0.721449
N	-0.940681	-2.068253	1.328197
Cl	3.30073	0.0	0.0
