16

C	-0.520498	0.002652	-1.454246
C	0.0	0.0	0.0
Br	0.270264	1.572847	-2.33151
H	1.091493	0.0	0.0
C	-0.015843	-1.177991	-2.149323
N	0.346646	-2.145408	-2.711057
C	-2.035704	0.098085	-1.58744
H	-2.392634	1.000002	-1.088702
H	-2.314755	0.137256	-2.641402
H	-2.500864	-0.773418	-1.123815
N	-0.437713	-1.295953	0.659133
O	-1.561291	-1.320659	1.168161
O	0.404327	-2.185334	0.7008
C	-0.532257	1.116245	0.763043
N	-0.950908	2.023695	1.381764
F	2.492997	0.0	0.0
