16

C	-0.462509	-0.01294	-1.462037
C	0.0	0.0	0.0
Br	0.246312	1.651052	-2.262331
H	1.093402	0.0	0.0
C	0.147574	-1.101319	-2.225081
N	0.532261	-1.937583	-2.95637
C	-1.974934	-0.00283	-1.654925
H	-2.399488	0.861113	-1.141621
H	-2.392573	-0.922733	-1.243571
H	-2.220907	0.059192	-2.716218
N	-0.396669	-1.229555	0.728859
O	-0.767247	-2.206775	0.072502
O	-0.264807	-1.218392	1.948999
C	-0.505979	1.146331	0.724521
N	-0.913267	2.079655	1.313358
F	2.420813	0.0	0.0
