14

C	-0.387491	0.068547	-1.467754
C	0.0	0.0	0.0
F	-1.780389	0.202847	-1.62606
H	1.09373	0.0	0.0
H	-0.360019	-0.921882	0.46344
C	0.303831	1.226478	-2.154918
H	0.075576	1.230913	-3.222783
H	-0.04564	2.158622	-1.706307
H	1.381353	1.128226	-1.98192
C	-0.039719	-1.210484	-2.119097
N	0.17611	-2.239524	-2.640778
C	-0.505946	1.151332	0.725641
N	-0.893737	2.089266	1.318293
H	2.730411	0.0	0.0
