14

C	-0.526823	0.007038	-1.429201
C	0.0	0.0	0.0
F	-0.061869	-1.124508	-2.091652
H	1.093266	0.0	0.0
H	-0.301792	0.927514	0.499089
C	-2.044301	-0.012894	-1.54148
H	-2.339476	-0.034329	-2.592834
H	-2.476182	0.870315	-1.067124
H	-2.421354	-0.908324	-1.044475
C	-0.001417	1.196758	-2.134091
N	0.375414	2.166543	-2.677248
C	-0.527735	-1.135976	0.734227
N	-0.951945	-2.059773	1.325313
H	2.727226	0.0	0.0
