14

C	-0.408566	-0.038343	-1.47165
C	0.0	0.0	0.0
F	-0.044261	1.188513	-2.028843
H	1.093878	0.0	0.0
H	-0.36414	0.923561	0.457925
C	0.330713	-1.137261	-2.207811
H	0.013399	-2.116683	-1.843744
H	1.394952	-1.001403	-1.993172
H	0.135008	-1.067047	-3.280001
C	-1.874682	-0.144398	-1.65044
N	-3.037997	-0.22588	-1.797396
C	-0.505199	-1.154838	0.719245
N	-0.914772	-2.097262	1.290237
H	2.775577	0.0	0.0
