14

C	-0.406729	0.072479	-1.458733
C	0.0	0.0	0.0
F	-1.782343	0.348554	-1.584921
H	1.093636	0.0	0.0
H	-0.307981	0.937319	0.475392
C	0.37991	1.170149	-2.145928
H	0.113478	2.12609	-1.689877
H	1.446675	0.987583	-1.97505
H	0.142637	1.202186	-3.211482
C	-0.192651	-1.218927	-2.138463
N	-0.027826	-2.2474	-2.679652
C	-0.577184	-1.120506	0.719054
N	-1.030384	-2.025977	1.315839
H	2.741717	0.0	0.0
