14

C	-0.41974	0.035444	-1.458074
C	0.0	0.0	0.0
F	-1.823548	0.04245	-1.582389
H	1.093654	0.0	0.0
H	-0.344358	-0.922186	0.475906
C	0.139622	1.25082	-2.16492
H	-0.126826	1.233208	-3.223859
H	-0.277079	2.148003	-1.70317
H	1.226906	1.249352	-2.036327
C	0.029922	-1.204644	-2.121951
N	0.340358	-2.206514	-2.650345
C	-0.517971	1.149114	0.719615
N	-0.915655	2.088741	1.303371
H	2.722309	0.0	0.0
