14

C	-0.410669	0.050499	-1.458294
C	0.0	0.0	0.0
F	-1.789991	0.311657	-1.582702
H	1.093857	0.0	0.0
H	-0.308745	0.94275	0.463935
C	0.364452	1.146855	-2.160699
H	0.127887	1.164417	-3.226323
H	0.089267	2.105531	-1.714425
H	1.433497	0.974847	-1.990803
C	-0.188643	-1.245792	-2.128532
N	-0.046793	-2.257289	-2.707395
C	-0.569887	-1.112355	0.736914
N	-1.016243	-2.012511	1.346683
H	2.740462	0.0	0.0
