14

C	-0.402124	0.055337	-1.461014
C	0.0	0.0	0.0
F	-1.78953	0.267761	-1.585564
H	1.093569	0.0	0.0
H	-0.31414	0.937512	0.468867
C	0.335287	1.18056	-2.151485
H	0.031291	2.128081	-1.700213
H	1.40691	1.036836	-1.983244
H	0.105286	1.197734	-3.217847
C	-0.13398	-1.225395	-2.139535
N	0.046527	-2.219923	-2.735899
C	-0.568985	-1.121743	0.722008
N	-1.013038	-2.027963	1.324488
H	2.741315	0.0	0.0
