14

C	-0.385807	0.022401	-1.469872
C	0.0	0.0	0.0
F	-1.776884	0.164906	-1.634781
H	1.093705	0.0	0.0
H	-0.36115	-0.905859	0.493228
C	0.318955	1.149178	-2.19433
H	-0.020813	2.099721	-1.778009
H	1.394857	1.045203	-2.014531
H	0.092752	1.119803	-3.262161
C	-0.049112	-1.279839	-2.080213
N	0.163199	-2.312447	-2.596851
C	-0.504454	1.17499	0.687661
N	-0.890087	2.132648	1.24935
H	2.731286	0.0	0.0
