14

C	-0.385918	0.074554	-1.467967
C	0.0	0.0	0.0
F	-1.77667	0.224998	-1.62737
H	1.093706	0.0	0.0
H	-0.361256	-0.92252	0.461138
C	0.320541	1.224971	-2.152287
H	-0.018955	2.160778	-1.703217
H	1.395967	1.112826	-1.974724
H	0.095924	1.233261	-3.220654
C	-0.050597	-1.207249	-2.120913
N	0.163412	-2.237627	-2.641511
C	-0.504504	1.150329	0.728265
N	-0.89045	2.08766	1.322997
H	2.731254	0.0	0.0
