14

C	-0.522134	0.016987	-1.432824
C	0.0	0.0	0.0
F	-0.080803	-1.153672	-2.046445
H	1.093143	0.0	0.0
H	-0.327298	-0.941116	0.455423
C	-2.039412	0.031365	-1.54221
H	-2.448642	0.94429	-1.107751
H	-2.335242	-0.034262	-2.591859
H	-2.436514	-0.831871	-1.003226
C	0.022295	1.157715	-2.200486
N	0.335992	2.075348	-2.862038
C	-0.524	1.118779	0.762223
N	-0.95068	2.025743	1.377336
H	2.732068	0.0	0.0
