17

C	0.0	0.0	0.0
C	-0.55538	0.114187	-1.398288
Br	1.956474	0.0	0.0
H	-1.631087	0.320304	-1.217891
H	-0.093091	0.963088	-1.904022
N	-0.329535	1.292256	0.766881
O	-0.43014	1.217129	1.985849
O	-0.405476	2.326707	0.114005
C	-0.537958	-1.175621	0.764881
H	-1.63803	-1.054736	0.728216
H	-0.238253	-2.100701	0.269688
H	-0.175666	-1.179565	1.791364
C	-0.418967	-1.172679	-2.203799
H	-0.587444	-0.965287	-3.264054
H	0.572603	-1.626796	-2.107378
H	-1.173876	-1.894757	-1.885948
H	-3.258577	0.0	0.0
