17

C	0.0	0.0	0.0
C	-0.447123	-0.11356	-1.455892
Br	1.941819	0.0	0.0
H	-1.532684	-0.266653	-1.40491
H	0.011433	-1.022117	-1.863626
N	-0.615534	1.185549	0.642021
O	-1.797082	1.415169	0.111881
O	-0.323949	1.386985	1.849288
C	-0.47854	-1.190141	0.803564
H	-0.114759	-1.110817	1.82804
H	-1.580538	-1.128014	0.798158
H	-0.16178	-2.130029	0.347232
C	-0.128797	1.084858	-2.337664
H	-0.501948	0.908666	-3.351983
H	0.947323	1.267604	-2.400634
H	-0.621998	1.969724	-1.937805
H	-2.938893	0.0	0.0
