13
Coordinates from ORCA-job run
  C   1.11865591350380      0.01781186168244     -0.14051218324596
  C   -0.34054156358614      0.06603376345473      0.35055515210764
  Br  1.23578028972476     -0.22955158051562     -2.07044039906096
  H   -0.28057517172539      0.24719558737501      1.43193899589546
  H   1.60975762797252     -0.85309929752896      0.30086999643756
  C   1.84692844697705      1.22178936559969      0.23720549857975
  N   2.41996187869548      2.18879118325276      0.57947748280978
  C   -1.08954322472642     -1.24571602470955      0.10840614434588
  H   -1.20235354148498     -1.43945646288319     -0.95785842988491
  H   -0.54598213326762     -2.07651121333564      0.56471727008752
  H   -2.08208426824799     -1.19410513822211      0.55822470503529
  C   -1.04890282403822      1.20132008623951     -0.24360854675317
  N   -1.64210142979686      2.09549786959094     -0.71997568635389
