13
Coordinates from ORCA-job run
  C   1.01893781025009      0.52065238151158      0.17903406697124
  C   -0.34565654159518     -0.13651163827378      0.46008518596161
  Br  1.91013276651861      1.02919747156106      1.83642476069937
  H   -0.17544992801963     -0.99325685393381      1.12115926280428
  H   0.87921814068113      1.44679648522124     -0.38414579453237
  C   1.88291711911914     -0.38067685212667     -0.57155052514869
  N   2.55023240000236     -1.12715395577757     -1.18657937037811
  C   -1.01797896170105     -0.60240234402258     -0.83737330558526
  H   -0.40722663291590     -1.35766747222150     -1.33395007213101
  H   -1.99310238879964     -1.03710606293481     -0.61298015089588
  H   -1.16799138188853      0.23819662115510     -1.51847014112170
  C   -1.20696044068414      0.81695171429188      1.16273928167005
  N   -1.92707196096726      1.58298050554984      1.68560680168647
