13
Coordinates from ORCA-job run
  C   1.11826189627218      0.03573665635730     -0.14549803305620
  C   -0.33880517497642      0.05944113143623      0.35271317119697
  Br  1.22991811985025     -0.19853541055110     -2.07734041639167
  H   -0.27670028853295      0.23548378251425      1.43483343871397
  H   1.62398026882226     -0.83062282964369      0.28839767434068
  C   1.83126423251948      1.24752853311257      0.23639260792974
  N   2.39218760507532      2.22066361677301      0.58165484705784
  C   -1.06993078180342     -1.26174648230984      0.10645573405770
  H   -2.05981038269284     -1.22736706311235      0.56364512218052
  H   -0.51152100380859     -2.08805031139658      0.55266929156579
  H   -1.18747548875757     -1.44887759675539     -0.96041648969611
  C   -1.06859657822816      1.18630344308947     -0.23162396396313
  N   -1.68277242373954      2.07004253048613     -0.70088298393609
