13
Coordinates from ORCA-job run
  C   1.09324503036233      0.38164923752057      0.39300385423559
  C   -0.38545700814198     -0.01736644493986      0.58217950808349
  Br  2.27130437964544     -1.07289157702337      0.94820304727758
  H   -0.49433745787351     -0.35009980148958      1.62032304741863
  H   1.34109846585856      1.21908796556993      1.04824463279105
  C   1.38052395890554      0.74518820280917     -0.98814333115175
  N   1.58237602377794      1.03662563137097     -2.10842871181602
  C   -0.84971080145651     -1.12098609335526     -0.36922251461496
  H   -1.89646946035077     -1.35901567333209     -0.17469673509725
  H   -0.25473504959262     -2.02253643405246     -0.22074720430851
  H   -0.75612251257693     -0.79919870686928     -1.40795637959224
  C   -1.19583828876565      1.19308050977593      0.41125964325878
  N   -1.83687727979182      2.16646318401535      0.26598114351560
