14

C	0.0	0.0	0.0
C	-0.518182	-0.131997	-1.408769
Cl	1.767281	0.0	0.0
H	0.024753	-0.934954	-1.913105
H	-0.381052	0.871665	0.523423
H	-1.580508	-0.385235	-1.269869
N	-0.383699	-1.178384	0.864818
O	-0.466195	-2.273771	0.320846
O	-0.465728	-0.966618	2.070144
C	-0.416675	1.197339	-2.143097
H	-0.656481	1.068056	-3.201993
H	-1.150483	1.886417	-1.715554
H	0.579179	1.646802	-2.078389
H	-2.964325	0.0	0.0
