14

C	0.0	0.0	0.0
C	-0.412402	0.07489	-1.509053
Cl	1.758935	0.0	0.0
H	-1.449663	0.306399	-1.555888
H	-0.394339	0.86781	0.542775
H	0.13014	0.883003	-2.06208
N	-0.437722	-1.215997	0.708407
O	-1.770062	-1.234458	1.057328
O	0.279244	-2.20086	0.915048
C	-0.23531	-1.272063	-2.214876
H	-0.643384	-1.215543	-3.234113
H	0.8055	-1.594452	-2.269044
H	-0.798325	-2.021896	-1.666934
H	-1.986634	0.0	0.0
