14

C	0.0	0.0	0.0
C	-0.490546	0.031715	-1.4945
Cl	1.765692	0.0	0.0
H	-0.136177	0.945323	-1.981346
H	-0.228763	0.88191	0.605646
H	-0.060246	-0.839634	-1.993724
N	-0.630152	-1.124532	0.699435
O	-0.354007	-2.244225	0.16635
O	-1.009736	-1.036811	2.010066
C	-2.048737	-0.050417	-1.60581
H	-2.388855	-0.002807	-2.67635
H	-2.419372	-0.998671	-1.185393
H	-2.578364	0.766586	-1.084427
H	-1.554913	0.0	0.0
