12
Coordinates from ORCA-job run
  C   -0.69914403092749     -0.11335427025470     -0.38963563251083
  C   0.67184349076959     -0.24767115826767      0.30572598712779
  Cl  -1.46285539140782     -1.76882297554578     -0.34931220297144
  H   0.49399527510057     -0.58539263036846      1.33473170572759
  H   -0.55266552306802      0.11164709733497     -1.44602586074599
  N   -1.45248122401903      0.90896406009169      0.22648127323157
  H   -1.73006529663192      0.66465622402609      1.16911036614862
  H   -2.27413521621615      1.15005697635607     -0.31079956435229
  C   1.35172926341560      1.05203487143322      0.34403307630939
  N   1.91350641168278      2.08211236268153      0.37203850252116
  C   1.52513626110522     -1.23802373006763     -0.35788852452420
  N   2.21613598019664     -2.01820682741926     -0.89745912596132
