12
Coordinates from ORCA-job run
  C   -0.71592861121004      0.23910340907334     -0.29095813166509
  C   0.71750923789188     -0.29023641636776     -0.07643947299269
  Cl  -1.29603604286696     -0.46754383652273     -1.86866734665991
  H   0.66727635477582     -1.38583144504979     -0.03440938626625
  H   -0.68758801259500      1.31699362747494     -0.45006104549434
  N   -1.51437515260301     -0.06678486102622      0.83200668704817
  H   -2.40072149067017      0.41885730565640      0.80995950283211
  H   -1.68109558314040     -1.06128605246805      0.92356212032003
  C   1.25958730954682      0.20925499001772      1.19228436791838
  N   1.71367375525043      0.61326009705058      2.19629952837496
  C   1.60798828748029      0.08257833580316     -1.17990436311539
  N   2.32870994814033      0.39263484635841     -2.05267246029998
