12
Coordinates from ORCA-job run
  C   -0.69965578051496      0.35599677702966     -0.19642766924767
  C   0.68180488316869     -0.33054587392022     -0.17343905495383
  Cl  -1.41192050538754      0.02606390321990     -1.84226915577096
  H   0.52533858062948     -1.40367042606529     -0.34272991765693
  H   -0.57159335991463      1.43726489613903     -0.14883613878130
  N   -1.47743859273432     -0.09098073039720      0.89359588947028
  H   -1.73078702723490     -1.06758881471864      0.80658446177983
  H   -2.31695492520459      0.46156447795555      1.00929257578954
  C   1.32183427715406     -0.14596297955929      1.13399240527321
  N   1.85333845891960     -0.00057228400121      2.17027304753015
  C   1.55877791884837      0.17386984132822     -1.23463211744301
  N   2.26825607227077      0.58456121298949     -2.07440432598931
