12
Coordinates from ORCA-job run
  C   -0.72893245401011      0.03118213381750     -0.36127795294801
  C   0.75676386401419      0.23935268289743      0.00132887273977
  Cl  -0.96467904367705     -1.62086341585770     -0.95825301504532
  H   0.84634110334603      1.25379293570763      0.41296666001651
  H   -0.96204127068619      0.69456187605383     -1.20310237032355
  N   -1.51599268217181      0.23520606777704      0.83036429682332
  H   -1.64692336180565      1.22751000626636      0.99327112863194
  H   -2.42740422429106     -0.19371937800839      0.73250525162912
  C   1.61274037903911      0.16124096139052     -1.18592677983214
  N   2.27366289895826      0.12572060514647     -2.15507553399686
  C   1.19122066763595     -0.70457839915218      1.03425204815345
  N   1.56524412364833     -1.44940607603852      1.85994739415177
