17
Coordinates from ORCA-job run
  C   0.81594564473229     -0.19302627685654      0.18537925409396
  C   -0.54063864099439     -0.01520439448808     -0.49290177213834
  F   0.50391282621020     -0.36297778187866      1.59233558875669
  H   -0.32101471027918      0.03723327933037     -1.56326394107086
  N   1.64169044425535      0.95945343342347      0.04237647098312
  H   2.61792177503037      0.70700923458174      0.12145761808135
  H   1.41513649488860      1.63869138697842      0.75650707158967
  N   1.46421437708745     -1.34648259294744     -0.30950102965390
  H   2.18739698662121     -1.64365104094859      0.33458391599985
  H   0.76815864417324     -2.07831267204106     -0.39681020779110
  C   -1.23576301299297      1.26843854085080     -0.05230997253430
  H   -1.38852047151157      1.26561576993439      1.02981503508114
  H   -2.21326905131689      1.34647862906468     -0.53468181082898
  H   -0.65580670821154      2.15113386995921     -0.32922587236230
  N   -1.31134001769178     -1.23802587941618     -0.25772287127296
  H   -1.60724680532574     -1.25677129161164      0.71181024955639
  H   -2.14177777467465     -1.23860221393488     -0.83684772648942
