17
Coordinates from ORCA-job run
  C   0.78425585822508     -0.32831603631841     -0.02821573547954
  C   -0.60493942060139      0.08680381499696     -0.52163870521329
  F   1.15511369097955     -1.44910102321176     -0.82730569286610
  H   -0.45401943496454      0.52542083129123     -1.52539081555901
  N   0.78782320612642     -0.79253729747389      1.33163220870381
  H   1.19654784313035     -1.71315452975433      1.38785641980318
  H   1.28719038779534     -0.14393039279448      1.92293509590304
  N   1.70629822642107      0.73920694253272     -0.20596591981423
  H   2.64426949736901      0.41484521647324     -0.00112442784359
  H   1.68049687457599      1.08305570723101     -1.15789042551245
  C   -1.20880753817001      1.13509953868414      0.39573612431287
  H   -2.22200462496525      1.38379191515905      0.06721796551655
  H   -1.26439373443087      0.72607329082178      1.40477314583397
  H   -0.61424523047683      2.04980066484955      0.40108206959001
  N   -1.46868155035110     -1.08586987053714     -0.54867181576627
  H   -2.35622949022184     -0.83258429276860     -0.96553924070025
  H   -1.04867456044099     -1.79960447918108     -1.13049025090868
