17
Coordinates from ORCA-job run
  C   0.78037303439329     -0.20581353679057      0.41320859368200
  C   -0.50449087804994      0.00581164339537     -0.40184112861785
  F   0.35656194745231     -0.37417337770975      1.73539878477918
  H   -0.20057702140769      0.07057617403851     -1.45524704533410
  N   1.61137627813843      0.95687952498547      0.37872134278265
  H   1.73609110614828      1.28979551960720     -0.56833770481272
  H   2.51463015143973      0.72531202400471      0.77544771097975
  N   1.50299188404315     -1.41030034294819      0.09897639469199
  H   1.98364060776716     -1.28712215050829     -0.78336481218541
  H   0.83120847450186     -2.16343340509500     -0.00921445214884
  C   -1.24597308634926      1.27807385376482     -0.00224228656351
  H   -1.50727158094379      1.23216860874930      1.05684890223293
  H   -0.64043845743413      2.17216122888417     -0.15623341760327
  H   -2.16623026297531      1.37393890107138     -0.58566019420905
  N   -1.29511534470209     -1.21874600153070     -0.26354659335338
  H   -2.07554447090307     -1.19688078020120     -0.90833501916288
  H   -1.67723238111894     -1.24824788371725      0.67542092484251
