15
Coordinates from ORCA-job run
  C   -0.56410868782945     -0.17653048398501      0.48741250427188
  C   0.89555222454078      0.06629331611798      0.09289669720822
  Cl  -0.65366388798861     -1.68095310272276      1.46967631686308
  H   1.48073874224394      0.07340552730384      1.01893512279830
  N   -1.07229261086228      0.96893997007602      1.13404166419133
  H   -0.54630195790565      1.20296982744074      1.96695271435415
  H   -2.04930872004676      0.83703771183000      1.37231128287698
  N   -1.45766815136155     -0.34828193728063     -0.74444296555532
  O   -2.62427974422628     -0.62296031720191     -0.50755594528271
  O   -0.95225143404957     -0.11627974520273     -1.83317709866742
  C   1.09367247041929      1.33352044553499     -0.59953695307353
  N   1.30064995291934      2.36894897764573     -1.11347950887961
  N   1.54564372682360     -1.04598028578935     -0.72900516063743
  O   2.73219079318355     -0.85445583682542     -0.95632843065838
  O   0.87142728413965     -2.00767406694151     -1.05870023980954
