15
Coordinates from ORCA-job run
  C   -0.49736610429929      0.07369204677544      0.62177470641631
  C   0.91960327877890     -0.24057537389926      0.12967299886467
  Cl  -0.50041344044555     -0.14112277294637      2.38179390990320
  H   1.23214095601227     -1.21282538348822      0.51073364559111
  N   -0.94099570469335      1.35691078162262      0.29718836144234
  H   -1.83095598491694      1.56353261397248      0.73152426802497
  H   -1.00224594613474      1.47094427300304     -0.70713460308660
  N   -1.41670184209832     -1.07688962083991      0.08467196022537
  O   -0.89860894308849     -2.17594475574914     -0.06919346602141
  O   -2.58440329258822     -0.77520207173539     -0.10649586606778
  C   1.86032085739977      0.79751617211947      0.52611179411241
  N   2.64745797949494      1.61167105927301      0.83658021239809
  N   0.98277423812374     -0.38271611681287     -1.38405552254011
  O   0.03341579481033      0.03978270758854     -2.03658422836506
  O   1.99597815364496     -0.90877355888339     -1.81558817089744
