15
Coordinates from ORCA-job run
  C   -0.55304713912090     -0.21140028033739      0.61074848288504
  C   0.88405469519615      0.08826024270787      0.09647523709437
  Cl  -0.46356165781086     -1.60798806634727      1.66633273592228
  H   1.52939859079481      0.16042762737237      0.97463021091376
  N   -1.18042055037216      0.86849545604129      1.28120608061224
  H   -0.73701888010424      1.07996665786941      2.16442513365583
  H   -1.26078778192960      1.68558775378413      0.68864663256460
  N   -1.43566861793184     -0.51999148640196     -0.61960089113149
  O   -1.75089399082148      0.48468902085289     -1.24644911368660
  O   -1.71991831692435     -1.67628526576605     -0.87394339649021
  C   0.94472922109677      1.31749498803618     -0.68125756971070
  N   1.03759080257762      2.31442219132273     -1.29585987008423
  N   1.43982119609406     -1.05294855218373     -0.72730052929441
  O   2.28532294512429     -1.75169121574151     -0.18209081654151
  O   0.98039948413174     -1.17703907120895     -1.85696232670897
