15
Coordinates from ORCA-job run
  C   -0.49893137523594     -0.17951991821674      0.55099952832100
  C   0.89279665764480      0.15426541210327      0.00530704712841
  Cl  -0.35972261679740     -1.58402158990719      1.66653575031524
  H   1.55100854290944      0.29397263865931      0.86980391051965
  N   -1.06349531579996      0.97177265578437      1.13778193629753
  H   -1.99873406981819      0.77311221527342      1.47651228962024
  H   -0.49583521256413      1.33350549424598      1.89415838900124
  N   -1.46886785500353     -0.54946049604857     -0.57528424658012
  O   -1.07986843089385     -0.37753946383178     -1.72148046250179
  O   -2.57965308269959     -0.90404515664676     -0.21035447661215
  C   0.90976326529736      1.36654497791928     -0.80349491306994
  N   0.93485979729945      2.37040541225558     -1.41226076765489
  N   1.57379416087811     -0.96648533930286     -0.78029820860327
  O   2.70656671376877     -0.68608240711263     -1.14676784216466
  O   0.97631882101466     -2.01642443517466     -0.94915793401652
