15
Coordinates from ORCA-job run
  C   -0.54734681102300     -0.24801696043818      0.28612813332548
  C   0.64792586334512      0.36664650670188     -0.46323595251611
  Cl  -0.28531198725026     -2.02740834724918      0.38743414134790
  H   0.51251078546581      1.44999476099057     -0.49681649272967
  N   -0.83110841080972      0.40763392238862      1.49026651529765
  H   -0.01400913293120      0.53846288877387      2.07136072605586
  H   -1.58033405044761     -0.05428471178948      1.99131483454222
  N   -1.81357475492240     -0.03471208316327     -0.56683665007662
  O   -2.81745487097190     -0.59758616740723     -0.16253438004437
  O   -1.72549763075463      0.74827269865171     -1.50437392001277
  C   0.81899435040219     -0.18246414342337     -1.79886536497748
  N   0.97576150231048     -0.61387339168541     -2.87967518298572
  N   1.91708764960785      0.12818295007402      0.34678464606460
  O   2.77458636192564     -0.60331061981453     -0.12213717484863
  O   1.96677113605368      0.72146269738994      1.42118612155766
