15
Coordinates from ORCA-job run
  C   -0.58749634817514     -0.22759197471514      0.21623869941450
  C   0.70936966495077      0.36746277583658     -0.35985899185480
  Cl  -0.57199449961970     -2.00192995695590     -0.09682084721977
  H   0.72345993951625      1.43770200461634     -0.14184955896086
  N   -0.82901406594841      0.16784459475484      1.53723383035579
  H   -0.02599735557873      0.04636015630039      2.13955310528692
  H   -1.65364185918470     -0.28571969577297      1.91133202331076
  N   -1.77734973843446      0.35088448554663     -0.57458105243431
  O   -1.54610926295390      1.30808896384209     -1.30281677719121
  O   -2.86379133992315     -0.14279266547577     -0.32159124162020
  C   0.85920008405893      0.12108445261883     -1.78517462296211
  N   1.00543743443527     -0.06370074599856     -2.93553102427420
  N   1.90072612779145     -0.22673314031526      0.38287638010309
  O   2.67023059271225     -0.94409493416317     -0.23631343265183
  O   1.98597062635329      0.09113567988108      1.56630351069829
