15
Coordinates from ORCA-job run
  C   -0.55591577033741     -0.21493564200871      0.60282985136946
  C   0.88526284813707      0.09253733997672      0.10281072016338
  Cl  -0.46835517712486     -1.60488339737217      1.66688771472724
  H   1.52207934074739      0.16947602718264      0.98675606766729
  N   -1.20058488894735      0.86272419648733      1.25972232632393
  H   -0.77703622965179      1.07523558729566      2.15232535689701
  H   -1.27183425355315      1.68002628951146      0.66636046010714
  N   -1.41975008027814     -0.53796144614811     -0.63744910470340
  O   -1.73900446652572      0.46074981490129     -1.27157782142432
  O   -1.68579969104366     -1.69861676297414     -0.89193410646447
  C   0.94461641619916      1.32354828392810     -0.67221924258506
  N   1.01049839437362      2.35215121652837     -1.23605970816334
  N   1.45369967626188     -1.04585212539887     -0.71525073860840
  O   1.01647166191075     -1.16222057115259     -1.85470460669351
  O   2.28565221983221     -1.75097881075699     -0.15749716861298
