15
Coordinates from ORCA-job run
  C   -0.47288252704551     -0.01887229542613      0.64343503895746
  C   0.91860307355948     -0.27556447533679      0.05364863510960
  Cl  -0.41938548785597     -0.51115463029549      2.34541685367342
  H   1.22067184854390     -1.30204951998802      0.26160525168009
  N   -0.89723200751829      1.30739935681833      0.54370669078213
  H   -1.75992854557261      1.46127479529728      1.04892094914254
  H   -1.00091632008547      1.57883806881831     -0.42624761486045
  N   -1.43705200005434     -1.05261894465889     -0.03477085982709
  O   -0.95053819170930     -2.12275050946578     -0.37833009610006
  O   -2.60261045238855     -0.70278379371532     -0.13406026403740
  C   1.89609836156486      0.66888351017647      0.57510008388954
  N   2.70244747829033      1.41812420652840      0.98403935711332
  N   0.92540264267655     -0.17325229231408     -1.46441884425365
  O   -0.03808505226489      0.36169807578274     -2.00402641405773
  O   1.91240717985983     -0.63617155222103     -2.01301876721180
