15
Coordinates from ORCA-job run
  C   -0.59791683361967     -0.16105574206743      0.30394292933406
  C   0.66420812747240      0.15939553735158     -0.50922004543104
  Cl  -0.71378096559004     -1.93323306491531      0.60059153490244
  H   0.58429524044553      1.18833528692586     -0.86643262167029
  N   -0.71666899962049      0.66926747663023      1.43072739824221
  H   -1.65082641899654      0.59487451745392      1.81768165964902
  H   -0.02561987985527      0.42863812942761      2.12933841648856
  N   -1.81189902925772      0.18063509914531     -0.58146785605933
  O   -1.60111517286672      0.44194557588461     -1.75909404628394
  O   -2.89239557658818      0.16668691442271     -0.01260756778058
  C   0.90079208448548     -0.73937650435826     -1.63049237707111
  N   1.13726191151798     -1.45573193602562     -2.53062596297192
  N   1.93042738675233      0.15166403102467      0.34527945581746
  O   1.88423068258543     -0.31829225112056      1.47519979805778
  O   2.90900744313548      0.62624693022068     -0.21182071522328
