15
Coordinates from ORCA-job run
  C   -0.49851381881303     -0.18074348807028      0.62228898707923
  C   0.95515533056822      0.05100498403618      0.15481927001877
  Cl  -0.57947367159728     -1.61312346975268      1.62891867039087
  H   1.58001876026373      0.02893564383827      1.04917011027301
  N   -0.91688714445976      0.95800252551385      1.34222792749765
  H   -1.07683286132028      1.73783307893431      0.71306231540104
  H   -1.75848833078712      0.76625682403693      1.87178366358371
  N   -1.36431075626644     -0.43257660092418     -0.66750283198290
  O   -1.52806303557095     -1.57655657286553     -1.05623750236460
  O   -1.76965343044361      0.59913877567110     -1.19239002632507
  C   1.09227512937002      1.32083303349042     -0.54452726059093
  N   1.20505787064411      2.36303347852257     -1.07461816619342
  N   1.43953005740844     -1.07026615669957     -0.73807275203728
  O   2.08555365754240     -1.95183671792524     -0.18520791058952
  O   1.13263224346150     -0.99893533780612     -1.92271449416054
