15
Coordinates from ORCA-job run
  C   -0.44904421065969     -0.20951294633386      0.64418232207917
  C   0.94123883050077      0.09058364269500      0.06394740351740
  Cl  -0.35241026719216     -1.53873091297346      1.79038885142095
  H   1.63578829217341      0.09339688378656      0.90919725971363
  N   -0.91965692087213      0.94834797563527      1.31233013228491
  H   -1.08056040845466      1.71795941236311      0.67095607905701
  H   -1.75522204339738      0.74827505113874      1.84895601897990
  N   -1.41253921405078     -0.60892256378192     -0.50727653187488
  O   -2.38705994517886     -1.28645954449072     -0.22952468499764
  O   -1.16229233527520     -0.07075688418954     -1.58122987953599
  C   1.01573117011514      1.38274915477965     -0.60465310496902
  N   1.07783580588543      2.45780610329594     -1.07348076289666
  N   1.47277801546930     -0.98577379165061     -0.87072111875521
  O   2.53820290783277     -0.71480960376738     -1.40609937869602
  O   0.83721032310404     -2.02515197650682     -0.96597260532757
