15
Coordinates from ORCA-job run
  C   -0.59495128302888     -0.28927691784451      0.34835483302661
  C   0.64773421556684      0.21827380488776     -0.44657666502035
  Cl  -0.37764890910268     -1.97545464430045      0.74567762134039
  H   0.50308549036325      1.28260478563335     -0.64435171765693
  N   -0.98097098953910      0.44456892280836      1.49639710931315
  H   -0.34776675250279      0.28652502517281      2.26862748613982
  H   -1.03874711448331      1.43468769239851      1.29079466355642
  N   -1.75609788118457     -0.10310457165251     -0.66014912622633
  O   -2.39014817954158     -1.06632602268597     -1.04633855434512
  O   -1.92290347049298      1.07519429149259     -0.96520778663183
  C   0.84573317627299     -0.51434144714272     -1.68544518087435
  N   0.96545889674378     -1.09509113977396     -2.69957047107380
  N   1.86428102071469      0.11871961358658      0.44004379962522
  O   1.89969125950924      0.94289430481796      1.35039876993137
  O   2.68425052070511     -0.75887369739785      0.20834521889572
