15
Coordinates from ORCA-job run
  C   -0.56543642670705     -0.34800956637283      0.14214439025886
  C   0.71963126499597      0.32990395532579     -0.37217889479807
  Cl  -0.63400447248850     -2.05123361007076     -0.30433269377889
  H   0.60490466806014      1.41296634235568     -0.29924216404252
  N   -0.68378716302667     -0.21279401038192      1.53181088921714
  H   -0.58951082937530      0.74478278669586      1.84866356481120
  H   -1.53875956474604     -0.63275185531459      1.87342035184878
  N   -1.76005334370437      0.32278446922417     -0.62141871966403
  O   -1.49832582994194      1.05809398383663     -1.56714934953932
  O   -2.86625771646603      0.06512063812210     -0.17127006305505
  C   1.08859878707834     -0.04835787431229     -1.72538256329167
  N   1.42912345135925     -0.33385516879838     -2.81226768574417
  N   1.83814914927527     -0.02314229366338      0.58792440828807
  O   2.04297430049145      0.80486530015907      1.46865585495567
  O   2.41175372519545     -1.08837309680527      0.41762267453394
