15
Coordinates from ORCA-job run
  C   -0.60940179334126     -0.27067017652355      0.33856022715167
  C   0.65171098553832      0.20396857411364     -0.44667672088835
  Cl  -0.55258712425390     -2.00516724944004      0.52988575467120
  H   0.60905586340361      1.29303807182044     -0.51739342787273
  N   -0.88104050318717      0.35606066611447      1.57942690507408
  H   -0.84178189527561      1.36441163956088      1.49161974332286
  H   -0.24338780099533      0.04543745822676      2.29999031451062
  N   -1.77810299391889      0.14618146248972     -0.58919994483620
  O   -2.51980895018508     -0.69810556563768     -1.05396181575725
  O   -1.83325852938012      1.36280302585588     -0.75018173736485
  C   0.73540395233154     -0.39383488489874     -1.76828904264453
  N   0.75724355196353     -0.84481833978884     -2.85280611455780
  N   1.87965926494130     -0.11510224111886      0.36923889954403
  O   2.59687249143959     -1.03717098534427      0.00612052424273
  O   2.02942348091951      0.59196854457021      1.36266643540454
