15
Coordinates from ORCA-job run
  C   -0.43583769034019     -0.02135984534614      0.66983719622162
  C   0.94039331327852     -0.19151970254702      0.01734658716857
  Cl  -0.25166592088153     -0.40926223573550      2.39005903864840
  H   1.34392148364389     -1.17360235176774      0.26395517110844
  N   -0.98025904544530      1.25602757780414      0.52476562039442
  H   -1.14885222433703      1.46419031866564     -0.45181170053157
  H   -1.83200347460212      1.36006076758563      1.06056900173212
  N   -1.33850534415519     -1.17067378805020      0.10278630605811
  O   -2.53433664187456     -0.92885706485920      0.05440536272972
  O   -0.77758475921323     -2.21225451340977     -0.21406639949178
  C   1.85604882272103      0.86264686550914      0.42968272283225
  N   2.61865881886804      1.69650284508774      0.74895283108331
  N   0.86011521572614     -0.17978537810348     -1.50218424633447
  O   1.85243833821073     -0.59457909419158     -2.07894294110818
  O   -0.17053089159917      0.24446559935835     -2.01535455051091
