15
Coordinates from ORCA-job run
  C   -0.58879678816790     -0.38597668132028      0.25117893860862
  C   0.65363495176036      0.33543171159407     -0.35559530329785
  Cl  -0.25537779184478     -2.09434108497721      0.38839426385709
  H   0.43300878068106      1.40446950607140     -0.39171757989497
  N   -1.10679821737642      0.11707850875098      1.46987534671432
  H   -0.51163587846026     -0.11993276816021      2.25215199912003
  H   -1.23367949041705      1.12090035084863      1.42158789242086
  N   -1.69671517458412     -0.12063097801897     -0.79858476642012
  O   -2.22449000189694     -1.05037361156493     -1.37808401466511
  O   -1.94072285861446      1.07681462703497     -0.92473492817812
  C   0.99019048749571     -0.16529638718827     -1.67735402049304
  N   1.22091631706875     -0.55450922101560     -2.76147015133008
  N   1.81634628527792      0.17965682063826      0.59305717047661
  O   1.72517583973011      0.84258828719308      1.62335195743866
  O   2.71994353934802     -0.58587907988590      0.28694319564313
