15
Coordinates from ORCA-job run
  C   -0.45106074662346     -0.08225334606868      0.72646086440077
  C   0.91765430140514     -0.20894877082581     -0.01171638466225
  Cl  -0.12193935905430     -0.39363044862027      2.42999789474351
  H   1.37326638395587     -1.17318444638550      0.21679959267265
  N   -1.19217369321903      1.10156970354571      0.59195926969478
  H   -1.39411351584722      1.32168359199395     -0.37465612340575
  H   -0.74405141951576      1.87837113074847      1.05970557248328
  N   -1.27664264427736     -1.25550572260219      0.14422680044880
  O   -0.88877902711133     -2.38043666992493      0.42175303672493
  O   -2.19179106952438     -0.94632504217186     -0.60716828749637
  C   1.77296598360776      0.91088460901748      0.33947670784878
  N   2.43547610943574      1.83294634484615      0.64087318444196
  N   0.66149408359486     -0.20063941996812     -1.50363356423222
  O   0.80223209512306     -1.27241796052477     -2.08161625427548
  O   0.29846251805039      0.86488644694034     -1.99246230938737
