15
Coordinates from ORCA-job run
  C   -0.57055157912482     -0.17699269951817      0.48057774337794
  C   0.89412692425588      0.06505219471449      0.10553563364847
  Cl  -0.67343673318151     -1.67854824898446      1.46577684050939
  H   1.46890424437577      0.06485379770974      1.03807025258093
  N   -1.08943602150377      0.96995018269109      1.11619031061757
  H   -2.06668466731947      0.83309941520606      1.35088610199900
  H   -0.56899631112822      1.21538785671651      1.94931542256561
  N   -1.44626329364028     -0.35191460421013     -0.76393188244156
  O   -2.61377756450213     -0.63675049495781     -0.54399232388438
  O   -0.92853531009562     -0.10868122298885     -1.84438147699460
  C   1.10459263160480      1.33522077901899     -0.57756094662981
  N   1.32576217045120      2.37425627414833     -1.07805832876484
  N   1.54953740159930     -1.04570760099817     -0.71520118348297
  O   0.87831124515911     -2.00903716267603     -1.04595547514525
  O   2.73644686304980     -0.85218846587154     -0.93827068795559
