15
Coordinates from ORCA-job run
  C   -0.58592593881975     -0.23712769023884      0.30869596145560
  C   0.71110005018882      0.11040145710557     -0.44719177127292
  Cl  -0.92262133669983     -1.94924927438661      0.30414731794777
  H   0.78451880105291      1.19827880662696     -0.50946702899317
  N   -0.52520859855964      0.25606249982830      1.62252001845935
  H   -1.32833004611001     -0.01916916416796      2.17275426317747
  H   -0.39201032938090      1.25977452401120      1.64503999444638
  N   -1.69371226442056      0.49822451335758     -0.55578284332805
  O   -1.59327327435233      1.72138076221048     -0.49734255614025
  O   -2.52311557077845     -0.14472418472393     -1.17454253257091
  C   0.75566146046550     -0.48356120729191     -1.77268568676004
  N   0.78572546500538     -0.92937688228157     -2.85875636115688
  N   1.89708935572385     -0.32845290959852      0.38147603129171
  O   2.38561861963638      0.54412765769305      1.08949226775035
  O   2.24448360704863     -1.49758890814379      0.28964292569363
