19

C	0.0	0.0	0.0
C	-0.380567	0.202423	-1.506533
Br	1.969715	0.0	0.0
H	0.475132	0.693082	-1.974143
N	-0.411419	1.166679	0.75948
H	-0.143029	1.029997	1.729342
H	-1.431667	1.186047	0.735567
C	-0.498415	-1.30895	0.587324
H	-1.594656	-1.293272	0.550331
H	-0.190215	-1.382449	1.634051
H	-0.1195	-2.1674	0.035697
C	-1.590869	1.103571	-1.736813
H	-2.503337	0.71412	-1.280394
H	-1.752897	1.175117	-2.817988
H	-1.40598	2.110864	-1.358784
N	-0.50298	-1.113486	-2.149124
H	-0.48857	-0.966762	-3.152832
H	-1.428941	-1.476374	-1.934279
Cl	-4.356553	0.0	0.0
