19

C	0.0	0.0	0.0
C	-0.34668	-0.066201	-1.517054
Br	2.080678	0.0	0.0
H	0.358962	-0.781143	-1.953541
N	-0.51556	1.137707	0.607195
H	-0.478348	1.137915	1.615203
H	-0.209136	2.012824	0.213094
C	-0.418578	-1.241974	0.755508
H	-0.016267	-1.228925	1.771814
H	-0.051265	-2.139963	0.25582
H	-1.511427	-1.251698	0.797614
C	-0.163534	1.285064	-2.20001
H	-0.263928	1.14415	-3.277082
H	-0.961909	1.963649	-1.887333
H	0.81042	1.732718	-1.987482
N	-1.682297	-0.541243	-1.803763
H	-2.409857	-0.050373	-1.278418
H	-1.780884	-1.517084	-1.55384
Cl	-4.378929	0.0	0.0
