19

C	0.0	0.0	0.0
C	-0.328159	-0.09663	-1.542977
Br	1.97387	0.0	0.0
H	0.428959	-0.767243	-1.963618
N	-0.508912	1.139307	0.70477
H	-1.509469	0.994183	0.840394
H	-0.382001	1.984305	0.161724
C	-0.447059	-1.251774	0.735463
H	-0.060299	-1.237223	1.755787
H	-0.085183	-2.149892	0.22861
H	-1.540411	-1.267209	0.764714
C	-0.20702	1.260626	-2.22513
H	-1.056028	1.892537	-1.949777
H	0.724567	1.773687	-1.972684
H	-0.249626	1.115211	-3.305542
N	-1.61623	-0.659134	-1.888211
H	-2.391872	-0.178218	-1.431797
H	-1.677137	-1.619298	-1.57227
Cl	-4.115905	0.0	0.0
