19

C	0.0	0.0	0.0
C	-0.486299	0.191495	-1.450746
Br	2.036053	0.0	0.0
H	-1.576878	0.128253	-1.325447
N	-0.444958	1.074769	0.787489
H	-0.274254	0.942712	1.773478
H	-0.092382	1.96755	0.478697
C	-0.467773	-1.302668	0.610585
H	-0.165145	-1.360266	1.660326
H	-0.053707	-2.166157	0.092201
H	-1.562392	-1.294622	0.548627
C	-0.024049	-0.883745	-2.421772
H	-0.518722	-0.703483	-3.377574
H	-0.288992	-1.886607	-2.081617
H	1.05693	-0.839121	-2.57908
N	-0.196447	1.506308	-2.014862
H	0.768375	1.761326	-1.83495
H	-0.812959	2.195918	-1.604314
Cl	-3.927168	0.0	0.0
