15

C	0.044839	0.010118	-1.461314
C	-0.016753	-0.001353	0.063585
Cl	-1.628401	0.097427	-2.177375
H	1.031863	-0.031864	0.361673
H	-0.555673	0.872998	0.417412
N	0.722596	1.24979	-1.780119
H	1.685992	1.031796	-1.438944
H	0.758436	1.324879	-2.792856
N	0.654952	-1.218363	-1.900605
H	0.722414	-1.182442	-2.91369
H	1.614721	-1.106608	-1.517062
N	-0.701217	-1.192237	0.621272
O	-1.918652	-1.111142	0.807922
O	-0.021679	-2.182314	0.884349
F	2.767859	-0.039122	-0.698668
