15

C	0.025479	-0.028509	-1.455104
C	-0.00824	0.003782	0.070173
Cl	-1.657652	-0.170517	-2.13848
H	1.044611	0.064602	0.348005
H	-0.518662	-0.878057	0.446983
N	0.594571	1.208935	-1.923248
H	1.563742	1.128319	-1.555747
H	0.644961	1.159439	-2.936759
N	0.730029	-1.254621	-1.768871
H	1.693373	-1.006189	-1.449174
H	0.749253	-1.343456	-2.780957
N	-0.712146	1.185525	0.623594
O	-1.923629	1.077165	0.833377
O	-0.052828	2.19572	0.860264
F	2.759361	0.104783	-0.744018
