15

C	-0.108963	-0.015432	-1.507212
C	0.114907	-0.126431	0.006189
Cl	0.217019	-1.66183	-2.235531
H	1.134476	-0.464917	0.172651
H	0.013351	0.876339	0.422848
N	-1.485303	0.298966	-1.796302
H	-1.517053	0.668549	-2.739622
H	-1.823326	0.994025	-1.141389
N	0.836974	0.883372	-2.095629
H	0.532497	1.817371	-1.830632
H	1.754603	0.719678	-1.568226
N	-0.903526	-0.955846	0.691051
O	-1.936455	-0.386906	1.065054
O	-0.676182	-2.153276	0.855798
F	2.708515	0.448628	-0.394863
