18
Coordinates from ORCA-job run
  C   0.81793235508134      0.09321973965089     -0.38921613289155
  C   -0.49626219582470     -0.18240013538491      0.32704868253295
  Br  0.69361028393550      0.08457113065091     -2.29528654027579
  H   -0.20601130788612     -0.34517716531706      1.37012317054946
  N   1.93907230383677     -0.87972983158709      0.01074992708012
  O   1.64596146898503     -1.80075200316556      0.76137192795828
  O   3.04365722153743     -0.62355621857283     -0.44537647180438
  N   1.35525668212203      1.43934164137252      0.11831313054876
  O   1.32061886352581      2.41415326407531     -0.61135173631377
  O   1.70955993567739      1.39754677943003      1.29175624590681
  C   -1.20848599676292     -1.42983435745113     -0.19265587823603
  H   -0.54256996034607     -2.28879692285375     -0.25981513760826
  H   -1.65277411218313     -1.24623425991869     -1.17217321192136
  H   -2.01404393533365     -1.68300971523617      0.50068667350148
  C   -1.41610748063021      1.03787048953755      0.25572444418361
  H   -1.00620156107864      1.89957524633042      0.78557663365050
  H   -1.61489292212874      1.32687594245526     -0.77877539055481
  H   -2.36931964252714      0.78633637598429      0.72529966369399
