18
Coordinates from ORCA-job run
  C   0.79615547642415      0.23054711988618     -0.37741842132834
  C   -0.51737515213088     -0.04012730956852      0.34248996777421
  Br  0.61408819615077      0.57027696250389     -2.24815908480082
  H   -0.25493094697099     -0.00343588921810      1.40476912131134
  N   1.72372436585128     -0.96688726025702     -0.12584950888381
  O   2.08706001840080     -1.04950033966910      1.04272189027588
  O   1.95571917542199     -1.74808330228707     -1.03140934858932
  N   1.59073271817670      1.39607865885650      0.23455156650444
  O   1.06207934585321      2.02441362959120      1.14194023906683
  O   2.70629179687820      1.57272254938622     -0.23264191593462
  C   -1.03605978665347     -1.44036546288663      0.01020084676531
  H   -2.00689663716777     -1.57828844366533      0.49061206080201
  H   -1.17030745837524     -1.57026898485375     -1.06606552356820
  H   -0.37362714294099     -2.22687744618483      0.37612076270816
  C   -1.58304071117137      1.01595310086621      0.05521382348259
  H   -2.40502513089697      0.88039549324052      0.76210089801161
  H   -1.20362344234617      2.02973583478461      0.17394747100651
  H   -1.98396468450324      0.90171108947504     -0.95312484460376
