18
Coordinates from ORCA-job run
  C   0.79122142171436      0.24771655550182     -0.57375769512836
  C   -0.64148469453403     -0.21521642740390     -0.32179882745580
  Br  0.96587046948894      1.27990299082410     -2.18772120973261
  H   -0.91888516907423     -0.74341251621576     -1.23906867037418
  N   1.77487963600692     -0.91213899935761     -0.75393716688685
  O   1.30381330855547     -1.95319830559888     -1.19199933628229
  O   2.94926719369753     -0.67322302883275     -0.51614694178339
  N   1.28902097432696      1.03893715574879      0.63172185838155
  O   1.56338110635072      0.34248473604447      1.60320054031931
  O   1.29345648310944      2.25856443588666      0.57278927435418
  C   -1.57498533696939      0.98134164988167     -0.12629030708547
  H   -2.59837343432798      0.61351445877856     -0.02753971484263
  H   -1.54502678569753      1.67893985171618     -0.96261747245023
  H   -1.33124211199590      1.52841749677345      0.78778377364486
  C   -0.78374135447068     -1.18421742460296      0.85650128608844
  H   -0.09142203811668     -2.02225599473447      0.80195957987857
  H   -1.79880492395995     -1.58810722927857      0.83266168759924
  H   -0.64594474410395     -0.67804940513080      1.81225934175567
