18
Coordinates from ORCA-job run
  C   0.84312643074359      0.22647218184920     -0.50414766053367
  C   -0.60705079558755     -0.23314770392275     -0.37253794302985
  Br  1.17249755123557      1.18366046443257     -2.14004347616572
  H   -0.79328659346168     -0.80096943510536     -1.28912375193201
  N   1.84132979082278     -0.93439771074398     -0.53323309404584
  O   2.98452446847037     -0.68112922540145     -0.18448819535126
  O   1.41836106069694     -1.99398777505347     -0.97577911511798
  N   1.21854463095380      1.07626498609990      0.70579929728151
  O   1.23466466095593      2.29148166979034      0.58876947995440
  O   1.38984595163258      0.42783272657397      1.73257138545044
  C   -1.55550049352776      0.96638008552359     -0.32046501641185
  H   -2.58342456959478      0.59833369135640     -0.30348994249947
  H   -1.40115594123055      1.55515235155872      0.58717147533891
  H   -1.44569685440650      1.62587878760858     -1.18073987179491
  C   -0.86256038965591     -1.15238825445632      0.82633909618424
  H   -0.81744850654351     -0.60637026588685      1.76885572207972
  H   -1.87061513332922     -1.56086203147077      0.72135060715951
  H   -0.16815526817412     -1.98920454275233      0.87319100343383
