13
Coordinates from ORCA-job run
  C   0.78316744773973      0.49759565564044     -0.07768377706266
  C   -0.51500607902499     -0.13134573731328      0.45643567195901
  Cl  1.60878241300494      1.25739328052455      1.38541227027870
  H   -0.27598475357701     -0.64690965449637      1.39181629290232
  H   0.56588194410585      1.35886694215010     -0.71087899461167
  N   1.55591397736836     -0.43722975460687     -0.79055857241481
  H   2.44868971746077     -0.05690627488831     -1.07295470491263
  H   1.67939999848616     -1.30780638777409     -0.29169687913152
  N   -1.03668949053309     -1.11841955187296     -0.47728158900239
  H   -1.12050234946989     -0.72092051878584     -1.40501215855466
  H   -1.95410222111080     -1.42486777135300     -0.17560223377051
  C   -1.46482565551902      0.95269334065150      0.78110089079772
  N   -2.27472494893101      1.77785643212411      0.98790378352310
