13
Coordinates from ORCA-job run
  C   0.97228820297225      0.25470710329317      0.25391372169898
  C   -0.53654951989603      0.15164440937644      0.52380571448761
  Cl  1.75817352941811     -0.83934450432055      1.54476825073807
  H   -0.71653995680810      0.33657901475330      1.59102597919345
  H   1.34049983710263      1.24387959998142      0.52303975394452
  N   1.30480799925249     -0.09998827033284     -1.04461285124727
  H   0.63390182383731     -0.67197439089570     -1.53005959464528
  H   1.84471299197840      0.54295431330304     -1.59176829061167
  N   -1.00740126684940     -1.14626708572197      0.05130538822430
  H   -2.01788224237570     -1.19052376717183      0.09325616168181
  H   -0.63166781337455     -1.86743999648714      0.65721591561994
  C   -1.20661764835675      1.21308877696531     -0.23880720710775
  N   -1.73772593690066      2.07468479725735     -0.83308294197670
