13
Coordinates from ORCA-job run
  C   0.83275001623548      0.52048459712338     -0.04013733997583
  C   -0.49912762692396     -0.06954766490981      0.43591665897927
  Cl  1.42229857973316      1.67634635175142      1.19200476188645
  H   -0.28508410170311     -0.57702213571469      1.38100516128983
  H   0.65981504954707      1.13092710720804     -0.93691002337048
  N   1.76459823325816     -0.55738247073592     -0.18590085429882
  H   2.60561215465926     -0.24780246048818     -0.65528415152110
  H   1.31375346527549     -1.28843993748457     -0.72502597592565
  N   -0.94811781609103     -1.06344897421562     -0.53629881077955
  H   -1.61429073608186     -1.69435360576033     -0.10878121671716
  H   -1.41365692554207     -0.60707113141578     -1.31258415314685
  C   -1.49560777068399      0.98727347320154      0.68066922139107
  N   -2.34494252168259      1.78803685144053      0.81032672218882
