13
Coordinates from ORCA-job run
  C   0.90209587886644      0.30953657580446      0.30706293997432
  C   -0.58255621875872      0.08960118268130      0.63116688930955
  Cl  1.90584550483953     -0.61042095040788      1.44768718578790
  H   -0.75763241177483      0.39616601832025      1.66708361975082
  H   1.14575175449458      1.36383119194365      0.48167451657799
  N   1.15857182203800     -0.15350599931150     -1.04367108701067
  H   0.84915408098858      0.55201931018608     -1.70427342875116
  H   2.15022622273991     -0.30055596729119     -1.18168255868063
  N   -0.92716181926226     -1.30515466298919      0.47877856918115
  H   -1.92090707646006     -1.44853728254888      0.59988433129663
  H   -0.64889174919033     -1.61052227463053     -0.44604814715771
  C   -1.34210471749022      1.00784430832601     -0.25082934976996
  N   -1.93239127103062      1.70769854991741     -0.98783348050825
