13
Coordinates from ORCA-job run
  C   0.92139405635483      0.27429870771333      0.28473155562859
  C   -0.56594734144984      0.13136067846589      0.63921361844668
  Cl  1.90249204373975     -0.66584331338491      1.42859032754317
  H   -0.70789313416036      0.47208888062203      1.66955384483660
  H   1.21719848423436      1.31955697690118      0.43136580456834
  N   1.13179252610211     -0.23094547002607     -1.05857387004559
  H   0.82974661099271      0.46764130565539     -1.73027076246827
  H   2.11502319737825     -0.41246457419066     -1.21463139191915
  N   -0.97686072501146     -1.24987236559530      0.52930563571182
  H   -0.72214978717097     -1.59274023618076     -0.38925755792660
  H   -1.97540620776185     -1.34171958592587      0.66078309593936
  C   -1.29826265162722      1.06133154269658     -0.25309712591179
  N   -1.87012707162031      1.76830745324917     -0.99771317440315
