18

C	0.0	0.0	0.0
C	-0.609883	-0.052123	-1.389971
F	1.360392	0.0	0.0
H	-1.667888	-0.34499	-1.140558
C	-0.507891	1.133781	0.84667
H	-1.60367	1.051794	0.806286
H	-0.118603	1.018417	1.857223
H	-0.14494	2.07538	0.429129
N	-0.331698	-1.326757	0.718804
O	-0.681884	-2.287981	0.045179
O	-0.125179	-1.354705	1.929045
C	0.096666	-0.985233	-2.257802
N	0.677322	-1.671649	-3.015727
C	-0.685504	1.33073	-2.045406
H	-0.992054	1.223123	-3.088453
H	0.271604	1.861637	-2.022575
H	-1.451614	1.903567	-1.524911
F	-2.861615	0.0	0.0
