18

C	0.0	0.0	0.0
C	-0.610489	-1.8e-05	-1.390761
F	1.360292	0.0	0.0
H	-1.663341	-0.315754	-1.157553
C	-0.513208	1.093015	0.893645
H	-1.608869	1.003251	0.850321
H	-0.160214	2.054253	0.51435
H	-0.120177	0.939767	1.89772
N	-0.325457	-1.357673	0.664712
O	-0.680957	-2.289984	-0.045628
O	-0.106013	-1.436654	1.870842
C	0.107387	-0.883941	-2.298977
N	0.684875	-1.52856	-3.094245
C	-0.710218	1.408705	-1.984535
H	0.236242	1.95599	-1.939141
H	-1.016928	1.341141	-3.030744
H	-1.487194	1.939895	-1.436163
F	-2.865522	0.0	0.0
