18

C	0.0	0.0	0.0
C	-0.627392	-0.042273	-1.376903
F	1.360354	0.0	0.0
H	-1.688238	-0.321938	-1.103083
C	-0.518037	1.113448	0.866575
H	-1.612456	1.021743	0.825752
H	-0.123555	0.988018	1.874497
H	-0.169514	2.068304	0.463299
N	-0.313588	-1.342445	0.716378
O	0.022936	-1.398842	1.89715
O	-0.776729	-2.273798	0.068473
C	0.049708	-0.983317	-2.258576
N	0.610003	-1.654977	-3.044093
C	-0.697931	1.343938	-2.028756
H	0.258367	1.875415	-1.998674
H	-0.99982	1.239113	-3.073053
H	-1.468385	1.912181	-1.508903
F	-2.879783	0.0	0.0
