18

C	0.0	0.0	0.0
C	-0.467616	-0.120788	-1.479262
F	1.364493	0.0	0.0
H	0.475518	-0.162395	-2.040666
C	-0.484981	1.196513	0.76529
H	-0.133975	2.095679	0.252601
H	-0.067835	1.169713	1.773189
H	-1.581861	1.114043	0.75559
N	-0.305975	-1.283798	0.779492
O	0.160357	-2.314795	0.295088
O	-0.865116	-1.211792	1.863304
C	-1.122244	1.119565	-1.909876
N	-1.531571	2.104956	-2.39868
C	-1.344685	-1.312284	-1.889677
H	-2.214929	-1.260128	-1.228465
H	-1.652844	-1.170281	-2.929576
H	-0.792051	-2.245567	-1.805645
F	-2.744191	0.0	0.0
