14

C	0.0	0.0	0.0
C	-0.554605	0.322008	-1.392124
F	1.382996	0.0	0.0
H	-1.659761	0.258852	-1.260544
H	-0.339926	-1.008761	0.248242
C	-0.456736	0.998983	1.037511
H	-1.545374	1.035359	1.06066
H	-0.081332	0.68804	2.015008
H	-0.044166	1.984425	0.806995
C	-0.111741	-0.662904	-2.38006
N	0.219368	-1.473412	-3.162838
C	-0.184046	1.669584	-1.82892
N	0.100593	2.753071	-2.179744
Cl	-3.573241	0.0	0.0
