14

C	0.0	0.0	0.0
C	-0.554463	0.30458	-1.39603
F	1.382863	0.0	0.0
H	-1.659987	0.24966	-1.265787
H	-0.337459	-1.00617	0.262342
C	-0.458305	1.012388	1.024396
H	-0.060174	1.998526	0.772966
H	-1.547611	1.037761	1.053428
H	-0.07212	0.722376	2.004186
C	-0.12001	-0.696973	-2.371289
N	0.206267	-1.514535	-3.148231
C	-0.174501	1.642466	-1.853611
N	0.116277	2.720602	-2.216165
Cl	-3.577727	0.0	0.0
