14

C	0.0	0.0	0.0
C	-0.440407	-0.226559	-1.479361
F	1.385872	0.0	0.0
H	0.507777	-0.310311	-2.028767
H	-0.343381	-0.839995	0.603959
C	-0.423389	1.323132	0.59195
H	-0.031055	1.38549	1.609686
H	0.003491	2.138024	0.002043
H	-1.509138	1.390782	0.606248
C	-1.140822	0.904268	-2.097994
N	-1.517977	1.845613	-2.689625
C	-1.123291	-1.505144	-1.694929
N	-1.47774	-2.597385	-1.940477
Cl	-3.371708	0.0	0.0
