14

C	0.0	0.0	0.0
C	-0.440169	-0.174635	-1.485855
F	1.385856	0.0	0.0
H	0.509078	-0.238404	-2.036044
H	-0.343624	-0.859666	0.574947
C	-0.422525	1.302789	0.636014
H	-1.508191	1.371163	0.652596
H	0.005013	2.137148	0.07376
H	-0.029391	1.331978	1.655225
C	-1.139285	0.976697	-2.065543
N	-1.515388	1.938984	-2.622943
C	-1.122542	-1.445015	-1.748838
N	-1.480146	-2.526008	-2.034047
Cl	-3.371273	0.0	0.0
