14

C	0.0	0.0	0.0
C	-0.429913	-0.076893	-1.458768
Cl	1.851115	0.0	0.0
H	-0.402834	-1.114247	-1.743017
H	-0.226294	0.982077	0.424095
H	0.297639	0.438005	-2.084468
N	-0.453231	-1.0486	0.815754
H	-0.867404	-0.787944	1.695692
H	-0.921336	-1.797048	0.347916
C	-1.81509	0.510796	-1.678916
H	-2.601375	0.119005	-1.003932
H	-1.830527	1.579886	-1.557368
H	-2.167987	0.308314	-2.694547
H	-4.493767	0.0	0.0
