14

C	0.0	0.0	0.0
C	-0.21539	-0.065442	-1.543465
Cl	1.806117	0.0	0.0
H	0.262833	-1.004628	-1.856683
H	-0.300419	0.974221	0.388587
H	0.396732	0.731454	-1.983616
N	-0.61767	-1.006682	0.7906
H	-0.540902	-1.895152	0.300361
H	-1.628279	-0.742494	0.751479
C	-1.601552	0.010022	-2.166688
H	-2.10308	0.945225	-1.933958
H	-1.471467	-0.081311	-3.252694
H	-2.277572	-0.757257	-1.79232
H	-3.285321	0.0	0.0
