14

C	0.0	0.0	0.0
C	-0.470361	0.101763	-1.44864
Cl	1.799812	0.0	0.0
H	0.003179	0.970677	-1.920625
H	-0.281552	0.923752	0.508145
H	-1.551221	0.281446	-1.348923
N	-0.549549	-1.080077	0.765809
H	-0.421284	-1.944833	0.249935
H	-1.570139	-0.868079	0.739571
C	-0.234182	-1.147932	-2.286385
H	0.816994	-1.452178	-2.29036
H	-0.538038	-0.969985	-3.322193
H	-0.839168	-1.980338	-1.918489
H	-3.146054	0.0	0.0
