17
Coordinates from ORCA-job run
  C   0.59286049918394     -0.11123467126128     -0.39198907007390
  C   -0.70371677142471      0.34164920801714      0.28966781037252
  Cl  0.27671836058967     -1.01226002963365     -1.91329722435462
  H   -0.43619166625892      0.93255868014622      1.16334892772336
  C   1.35935467221117     -1.04830443057885      0.53265757755951
  H   0.80250878497965     -1.96319243642141      0.73001203676926
  H   2.30105488394528     -1.31984076486651      0.05393365453380
  H   1.56760239736104     -0.54911404081153      1.48316284296821
  N   1.31281237962660      1.10819568969350     -0.63332321120443
  H   1.29628736677768      1.37027923146034     -1.61047941011834
  H   2.26934409397011      1.02585324828883     -0.31343323839414
  N   -1.53560774335720     -0.79466934429736      0.78813385209437
  O   -2.16190635822913     -1.43945664677284     -0.04482551631257
  O   -1.52714691001099     -0.98174756541116      2.00298662565523
  N   -1.59037484758413      1.23807535887679     -0.53345731874640
  O   -2.64796613575470      1.55275204349386      0.00271067056726
  O   -1.17563300602536      1.65145647007791     -1.60580900903914
