17
Coordinates from ORCA-job run
  C   0.58516760484780     -0.21602740500981     -0.46073347192843
  C   -0.89737742190736      0.11026647589311     -0.25658487258378
  Cl  0.52861954169902     -1.67036677312580     -1.59928243501023
  H   -1.37245515056978      0.32066919203811     -1.21158781519590
  C   1.39692925262409     -0.62591306216845      0.75130080751600
  H   2.41960598899439     -0.81967648952250      0.41903258687256
  H   1.00578105367282     -1.52768343675275      1.21081858093981
  H   1.40061049569417      0.18055457905609      1.48352114494326
  N   1.14713867256454      0.93981879245359     -1.05725636462464
  H   0.73275113574916      1.16736421511093     -1.95289075194834
  H   2.15006078149395      0.85752911783086     -1.16000179770259
  N   -1.06198795647985      1.35684722428578      0.57064931747627
  O   -1.48952576048383      2.33392894769700     -0.03601630958501
  O   -0.75038688009264      1.30038235991554      1.75401638417632
  N   -1.71864547107160     -0.97635633058307      0.36668557674244
  O   -2.74746128670518     -1.26559236299864     -0.24086860518580
  O   -1.32782460002972     -1.46574504412000      1.42019802509804
