17
Coordinates from ORCA-job run
  C   0.59404960481619     -0.48952323800381     -0.30823053890064
  C   -0.81814612944526     -0.19259930105410      0.24603039579059
  Cl  0.41761299204887     -2.16369387371208     -0.97054295039708
  H   -1.10293391499844     -0.90363988525150      1.01705519985610
  C   1.57483271419624     -0.54094710772490      0.85199333836235
  H   2.53297904254278     -0.88965045229684      0.46733662380525
  H   1.23403088406012     -1.21941412694547      1.63400134793755
  H   1.70985310364137      0.45290739095773      1.28704795932608
  N   1.10078642763843      0.35994700566202     -1.32844507013395
  H   0.41220817282249      0.55029953436605     -2.04294251895683
  H   1.45904049782197      1.22466458522775     -0.94600322602995
  N   -1.92542520993606     -0.22269405565260     -0.76629272342548
  O   -1.69072837413730      0.14946079629573     -1.91066914016130
  O   -3.00893992008242     -0.60560129758734     -0.33257832693649
  N   -0.84098987233013      1.16601324276915      0.87675319943358
  O   -0.75221319926664      1.19029136831345      2.10151990454703
  O   -0.89501681939222      2.13317941463677      0.12196652588320
