17
Coordinates from ORCA-job run
  C   0.58382132841819     -0.25146751309204     -0.50899429228376
  C   -0.87571151418373      0.20496637766134     -0.38014662792894
  Cl  0.54766220135870     -1.51914594406200     -1.78163857932114
  H   -1.28250003918343      0.42325311941680     -1.36431759356844
  C   1.20225593286356     -0.86265948928695      0.73725252764226
  H   0.67535731484000     -1.76050079634604      1.05864141000786
  H   1.19524181145554     -0.13820182112705      1.55091481769975
  H   2.23360178007400     -1.13335961605918      0.50344807644468
  N   1.28272398810433      0.89401681310816     -1.06652343670869
  H   2.06461452714311      0.57752879781993     -1.62614972614840
  H   1.63234421395990      1.47060466491803     -0.30964451982274
  N   -1.04991677781061      1.45713376494132      0.43597032463303
  O   -2.14467588680078      1.99386342307444      0.30726651815290
  O   -0.13610397507575      1.83342272899403      1.16229089088199
  N   -1.76433264939300     -0.81274330845454      0.26841658476904
  O   -2.46142537149651     -1.48807983649804     -0.47992226136733
  O   -1.70295688427352     -0.88863136500822      1.49313588691793
