14
Coordinates from ORCA-job run
  C   -0.65650908595079     -0.38301251446460      0.58711372147308
  C   0.80629032156051      0.03879451555226      0.60798803645997
  Br  -1.39130263618303     -0.19790113915608      2.40091876266944
  H   0.86672708189149      1.08684559229963      0.91937130351272
  H   -0.73237757558397     -1.45333641703139      0.37845785431273
  H   1.32755334975220     -0.54638879140191      1.37076631546140
  C   -1.52174969159344      0.40682383888400     -0.37738131160970
  H   -2.56754332309242      0.10624444352750     -0.30257155052503
  H   -1.19246573898759      0.23440850926765     -1.40543892243829
  H   -1.45526564545828      1.47625578077033     -0.16359721535983
  C   1.49026140628631     -0.15404924843786     -0.74517676080099
  H   1.36696288605537     -1.17854590037475     -1.10783484463030
  H   1.09651392310280      0.52432094286767     -1.50395339456711
  H   2.56190472820083      0.03854038769755     -0.65766199395810
