14
Coordinates from ORCA-job run
  C   -0.70885964740934     -0.35237117224666      0.63207009110498
  C   0.65949199932337     -0.78995975754724      0.12213722607385
  Br  -0.51505831843039      0.69667111377248      2.28564427463342
  H   0.47291375561179     -1.51223006089514     -0.68385236286560
  H   -1.26754622698964     -1.23388209960437      0.95381134030405
  H   1.17108456938645     -1.33722345849332      0.91912147988799
  C   -1.52661985571524      0.44321597617798     -0.36893462932815
  H   -2.52893771125260      0.63862400796325      0.01467894665437
  H   -1.61652632022928     -0.12877247069469     -1.29862815864738
  H   -1.05856165972262      1.40174900384304     -0.59488252733493
  C   1.55220447391086      0.33204172122839     -0.39545218913323
  H   1.71455163577020      1.09122355341058      0.37161175170860
  H   1.12449221051988      0.81838825979945     -1.27426437275257
  H   2.52737109522657     -0.06647461671375     -0.68406087030541
