16

C	-0.422363	0.056485	-1.460921
C	0.0	0.0	0.0
Cl	-0.129903	1.829351	-2.04936
H	1.095345	0.0	0.0
H	-0.327123	-0.982131	0.359643
N	0.386099	-0.857892	-2.172669
H	0.258848	-0.772649	-3.17291
H	1.36899	-0.727815	-1.936883
C	-1.900144	-0.178409	-1.687146
H	-2.133998	-1.20144	-1.38006
H	-2.162167	-0.056043	-2.741284
H	-2.477702	0.523605	-1.087699
N	-0.634226	1.029403	0.822931
H	-0.163361	1.905939	0.623262
H	-0.414921	0.812117	1.789488
Br	3.68597	0.0	0.0
