16

C	-0.452507	-0.042983	-1.461483
C	0.0	0.0	0.0
Cl	-0.094893	1.580762	-2.172935
H	1.093376	0.0	0.0
H	-0.375371	0.899178	0.502462
N	0.287979	-1.024913	-2.233253
H	0.15243	-1.903122	-1.736179
H	1.278356	-0.803095	-2.129095
C	-1.940348	-0.2945	-1.613428
H	-2.204587	-0.287553	-2.671551
H	-2.177506	-1.272412	-1.187994
H	-2.517974	0.473111	-1.091748
N	-0.413187	-1.254686	0.651234
H	0.356299	-1.582256	1.221134
H	-1.205858	-1.101368	1.260001
Br	3.646815	0.0	0.0
