16

C	-0.364887	0.016271	-1.472959
C	0.0	0.0	0.0
Cl	-2.190867	0.18248	-1.628844
H	1.096934	0.0	0.0
H	-0.335787	0.951054	0.433529
N	0.220882	1.207538	-2.041522
H	0.157762	1.167084	-3.05469
H	1.208133	1.215336	-1.7815
C	0.017387	-1.278133	-2.166558
H	-0.252601	-1.234604	-3.226149
H	1.101481	-1.394368	-2.069327
H	-0.471908	-2.128582	-1.694598
N	-0.488126	-1.187674	0.688433
H	-1.412595	-1.012219	1.064949
H	0.137274	-1.390308	1.4597
Br	3.643856	0.0	0.0
