16

C	-0.534193	0.018339	-1.436466
C	0.0	0.0	0.0
Cl	0.250569	1.390084	-2.299388
H	1.091613	0.0	0.0
H	-0.334575	0.915542	0.499389
N	-0.137777	-1.193494	-2.12822
H	-0.642545	-1.975961	-1.722045
H	-0.387584	-1.12447	-3.108556
C	-2.037258	0.287471	-1.493939
H	-2.374878	0.325484	-2.532444
H	-2.580296	-0.521424	-0.99228
H	-2.291468	1.232715	-1.010538
N	-0.420772	-1.159988	0.780231
H	-1.398253	-1.389441	0.656393
H	0.156533	-1.955922	0.544358
Br	3.857103	0.0	0.0
