13

C	0.0	0.0	0.0
C	-0.425005	-0.098316	-1.469583
F	1.374901	0.0	0.0
H	-0.187501	0.83575	-1.985633
H	-0.361834	-0.85856	0.555655
C	-0.441533	1.254304	0.616464
N	-0.54743	2.307979	1.125582
C	-1.813665	-0.512883	-1.758913
N	-2.549522	-0.945042	-2.581375
N	0.485531	-1.125937	-2.106814
O	0.499417	-2.241059	-1.593502
O	1.133849	-0.779901	-3.090586
F	-2.380776	0.0	0.0
