13

C	0.0	0.0	0.0
C	-0.506907	0.355979	-1.411861
F	1.366031	0.0	0.0
H	-1.605806	0.14136	-1.335922
H	-0.375163	-1.000392	0.22295
C	-0.478586	0.943348	1.021606
N	-0.659729	1.770077	1.838669
C	0.211819	-0.402496	-2.427823
N	0.702935	-1.082382	-3.252752
N	-0.345381	1.816476	-1.73426
O	0.645868	2.402427	-1.293916
O	-1.225652	2.324122	-2.426491
F	-2.504017	0.0	0.0
