18

C	-0.37341	-0.008658	-1.469345
C	0.0	0.0	0.0
F	0.09709	-1.120272	-2.090799
H	1.09743	0.0	0.0
N	-1.905536	-0.063667	-1.613899
O	-2.413091	-1.168992	-1.752953
O	-2.500729	1.005199	-1.505364
C	0.06817	1.180482	-2.211153
N	0.407529	2.1281	-2.816013
C	-0.48779	-1.265404	0.696079
H	-0.200161	-2.159553	0.142402
H	-0.01286	-1.315876	1.678097
H	-1.574236	-1.27102	0.835606
C	-0.453709	1.2665	0.717514
H	-0.099156	2.166305	0.210252
H	-1.541325	1.326265	0.816544
H	-0.01142	1.262165	1.716184
Cl	3.355175	0.0	0.0
