18

C	-0.379792	0.030395	-1.468685
C	0.0	0.0	0.0
F	0.188467	-0.999612	-2.141665
H	1.097704	0.0	0.0
N	-1.901276	-0.164295	-1.606905
O	-2.594656	0.821609	-1.374598
O	-2.300501	-1.291555	-1.862991
C	-0.061579	1.291724	-2.15143
N	0.180711	2.298944	-2.702496
C	-0.473484	-1.296911	0.649328
H	0.021884	-1.392645	1.617764
H	-1.557024	-1.307944	0.811916
H	-0.198108	-2.165812	0.049759
C	-0.462744	1.234365	0.764872
H	-0.030753	1.186852	1.767162
H	-0.101539	2.15408	0.300033
H	-1.551103	1.289351	0.853711
Cl	3.361222	0.0	0.0
