14

C	-0.171275	0.237455	-1.494173
C	0.0	0.0	0.0
F	-1.295925	0.982804	-1.837761
H	1.090733	0.0	0.0
H	-0.415336	-0.954454	0.311843
N	0.986902	0.786691	-2.006891
H	1.824662	0.523291	-1.435806
H	1.072887	0.687244	-3.005716
N	-0.54817	-1.114647	-2.224042
O	-0.44449	-1.084914	-3.448118
O	-0.934435	-2.086923	-1.580638
C	-0.532311	1.087931	0.791959
N	-0.925589	1.959999	1.4724
F	2.648927	0.0	0.0
