14

C	-0.122379	-0.015681	-1.509785
C	0.0	0.0	0.0
F	-0.202177	1.29707	-1.995032
H	1.094516	0.0	0.0
H	-0.342251	-0.950103	0.408871
N	0.935138	-0.75057	-2.031398
H	1.794754	-0.540172	-1.478289
H	1.030173	-0.622363	-3.028291
N	-1.440048	-0.600418	-2.048748
O	-2.312554	-0.929109	-1.249704
O	-1.52598	-0.693964	-3.271451
C	-0.639453	1.124277	0.641556
N	-1.153532	2.021788	1.199367
F	2.634192	0.0	0.0
