14

C	-0.13336	0.142598	-1.506348
C	0.0	0.0	0.0
F	-1.333903	0.68398	-1.950006
H	1.094106	0.0	0.0
H	-0.433146	-0.926729	0.366763
N	0.954355	0.835681	-2.003006
H	1.801687	0.612221	-1.435631
H	1.076133	0.702597	-2.996256
N	-0.267568	-1.301467	-2.146465
O	-0.881422	-2.170323	-1.536215
O	0.197716	-1.434689	-3.276687
C	-0.538499	1.148295	0.697857
N	-0.967576	2.065906	1.292778
F	2.637433	0.0	0.0
