14

C	-0.086768	0.012972	-1.51424
C	0.0	0.0	0.0
F	-0.059978	1.366223	-1.923705
H	1.09434	0.0	0.0
H	-0.446545	0.892569	0.43141
N	0.932633	-0.758666	-2.039638
H	1.797211	-0.572863	-1.489146
H	1.03171	-0.655567	-3.035937
N	-1.440859	-0.399439	-2.102364
O	-2.440148	-0.17967	-1.422718
O	-1.443887	-0.852238	-3.244865
C	-0.517726	-1.215909	0.591773
N	-0.919368	-2.198052	1.096715
F	2.63181	0.0	0.0
