14

C	-0.117795	0.170814	-1.514397
C	0.0	0.0	0.0
F	-1.327397	0.668229	-1.929057
H	1.092271	0.0	0.0
H	-0.459281	-0.915039	0.372109
N	0.935378	0.929368	-2.082173
H	1.784713	0.678303	-1.538609
H	0.727356	1.904918	-1.897208
N	-0.061122	-1.258308	-2.095734
O	0.970102	-1.627247	-2.640631
O	-1.073727	-1.937172	-1.93326
C	-0.507899	1.169335	0.68409
N	-0.904397	2.125397	1.241023
F	2.604437	0.0	0.0
