17

C	-0.630989	0.031934	-1.400918
C	0.0	0.0	0.0
F	-0.200164	1.197611	-1.983082
H	1.094177	0.0	0.0
N	-0.059209	-1.070047	-2.294092
O	1.156622	-1.07746	-2.41024
O	-0.859317	-1.804046	-2.870317
C	-2.135019	6.6e-05	-1.420112
H	-2.508803	0.829594	-0.818541
H	-2.480197	0.114475	-2.446916
H	-2.50817	-0.945928	-1.033197
N	-0.398126	-1.234045	0.748457
O	-0.506382	-1.156254	1.966298
O	-0.524196	-2.256476	0.077292
C	-0.456399	1.174869	0.731838
N	-0.856396	2.141668	1.265924
Cl	3.140864	0.0	0.0
