17

C	-0.658878	0.034645	-1.386226
C	0.0	0.0	0.0
F	-0.194492	1.169939	-2.00247
H	1.094145	0.0	0.0
N	-0.153422	-1.108201	-2.265692
O	-0.99437	-1.764957	-2.876345
O	1.060827	-1.222199	-2.341341
C	-2.162784	0.064775	-1.36941
H	-2.487242	0.922953	-0.78111
H	-2.531168	0.165868	-2.3888
H	-2.562563	-0.853907	-0.94532
N	-0.392388	-1.230618	0.762555
O	-0.622934	-2.238541	0.097
O	-0.392174	-1.163776	1.984874
C	-0.436862	1.173709	0.746343
N	-0.81061	2.136891	1.305343
Cl	3.136278	0.0	0.0
