17

C	-0.585216	-0.009333	-1.415903
C	0.0	0.0	0.0
F	-0.042473	1.078954	-2.055385
H	1.093297	0.0	0.0
N	-0.067313	-1.209282	-2.204621
O	-0.721502	-1.51839	-3.198419
O	0.983799	-1.712715	-1.843691
C	-2.083864	0.072901	-1.514157
H	-2.360367	0.178326	-2.5607
H	-2.545941	-0.825862	-1.111889
H	-2.422353	0.948935	-0.960719
N	-0.440801	-1.184956	0.805871
O	-0.922595	-2.142508	0.200501
O	-0.25145	-1.126036	2.014405
C	-0.449257	1.205312	0.685946
N	-0.836649	2.192201	1.191586
Cl	3.145792	0.0	0.0
