17

C	-0.610362	0.041654	-1.410561
C	0.0	0.0	0.0
F	-0.141885	1.195278	-1.989151
H	1.09417	0.0	0.0
N	-0.048241	-1.075551	-2.292263
O	-0.849231	-1.701485	-2.98401
O	1.166572	-1.19619	-2.291512
C	-2.113799	0.043078	-1.459447
H	-2.433862	0.174326	-2.492071
H	-2.513253	-0.899514	-1.090396
H	-2.483429	0.873733	-0.856971
N	-0.411706	-1.234362	0.738854
O	-0.601855	-2.241043	0.058078
O	-0.470484	-1.172529	1.960901
C	-0.458953	1.173399	0.732256
N	-0.855924	2.14392	1.261818
Cl	3.149631	0.0	0.0
