17

C	-0.370893	0.001917	-1.474641
C	0.0	0.0	0.0
F	0.289414	-0.994456	-2.112096
H	1.096498	0.0	0.0
N	-1.859989	-0.268216	-1.676896
O	-2.184148	-0.850083	-2.702621
O	-2.618347	0.184915	-0.824796
C	-0.033527	1.318204	-2.132602
H	-0.631325	2.131723	-1.720741
H	-0.21915	1.22018	-3.203791
H	1.028049	1.510493	-1.960432
N	-0.450274	-1.234014	0.720584
O	-0.885157	-2.161868	0.043997
O	-0.310553	-1.230369	1.937442
C	-0.455268	1.175201	0.723374
N	-0.778375	2.161914	1.272778
Cl	3.123483	0.0	0.0
