17

C	-0.407438	-0.001931	-1.46518
C	0.0	0.0	0.0
F	0.2977	-0.9389	-2.140375
H	1.095867	0.0	0.0
N	-1.882201	-0.372429	-1.621445
O	-2.640922	0.050757	-0.754756
O	-2.200231	-0.993548	-2.625575
C	-0.195786	1.344179	-2.115518
H	-0.843749	2.101201	-1.674165
H	0.850966	1.622725	-1.976691
H	-0.40928	1.242792	-3.181329
N	-0.423886	-1.244875	0.722122
O	-0.759539	-2.206462	0.037053
O	-0.352476	-1.218062	1.944375
C	-0.463922	1.165096	0.733804
N	-0.790829	2.140304	1.300957
Cl	3.120509	0.0	0.0
