17

C	-0.382154	0.013725	-1.481965
C	0.0	0.0	0.0
F	-0.003766	-1.17706	-2.011793
H	1.092871	0.0	0.0
N	-1.901074	0.084622	-1.651844
O	-2.410998	1.170731	-1.399407
O	-2.484927	-0.924968	-2.023301
C	0.274502	1.149924	-2.216138
H	-0.07695	2.107831	-1.838289
H	1.351751	1.060672	-2.057759
H	0.041383	1.067058	-3.280035
N	-0.539924	-1.258184	0.621679
O	-1.728054	-1.232327	0.950755
O	0.220462	-2.212751	0.715972
C	-0.489057	1.154033	0.735055
N	-0.82225	2.093783	1.355345
Cl	3.188224	0.0	0.0
