17

C	-0.372434	-0.01229	-1.47417
C	0.0	0.0	0.0
F	0.296239	-1.006107	-2.106889
H	1.096028	0.0	0.0
N	-1.858786	-0.297577	-1.674087
O	-2.179693	-0.876206	-2.702828
O	-2.619506	0.141979	-0.817513
C	-0.048815	1.302504	-2.141289
H	-0.654589	2.112684	-1.734635
H	1.010872	1.50622	-1.971096
H	-0.234395	1.194673	-3.211425
N	-0.447584	-1.229328	0.730621
O	-0.326605	-1.209207	1.94922
O	-0.859512	-2.171006	0.058915
C	-0.459984	1.179926	0.712186
N	-0.794628	2.162222	1.262273
Cl	3.12295	0.0	0.0
