17

C	-0.498974	-0.200558	-1.441481
C	0.0	0.0	0.0
F	-1.776336	-0.683189	-1.423468
H	1.089986	0.0	0.0
N	-0.575809	1.187574	-2.076706
O	0.484955	1.798798	-2.121821
O	-1.660033	1.558642	-2.510826
C	0.395986	-1.040361	-2.314089
H	1.420153	-0.672475	-2.234723
H	0.038578	-0.985802	-3.345401
H	0.360464	-2.069005	-1.964177
N	-0.38217	-1.20008	0.83055
O	-0.159524	-2.298505	0.335655
O	-0.836523	-1.000876	1.95165
C	-0.548441	1.198132	0.614809
N	-0.974678	2.187343	1.083308
Cl	3.146574	0.0	0.0
