17

C	-0.517208	0.052822	-1.448282
C	0.0	0.0	0.0
F	-0.012542	1.194449	-1.983454
H	1.092534	0.0	0.0
N	0.058303	-1.114163	-2.241013
O	0.745548	-0.865286	-3.216184
O	-0.305378	-2.221057	-1.854817
C	-2.013377	0.030478	-1.64483
H	-2.454913	0.87502	-1.11433
H	-2.444248	-0.895154	-1.271518
H	-2.216215	0.131373	-2.713814
N	-0.504239	-1.219776	0.730708
O	-1.68775	-1.207423	1.078087
O	0.294885	-2.125122	0.923142
C	-0.49383	1.181674	0.695389
N	-0.897757	2.13491	1.250143
Cl	3.171592	0.0	0.0
