17

C	-0.532746	0.028508	-1.431941
C	0.0	0.0	0.0
Br	0.103297	-1.626677	-2.310901
H	1.097662	0.0	0.0
H	-0.353469	-0.911752	0.491332
C	-2.050907	0.000698	-1.481288
H	-2.408418	0.013804	-2.513807
H	-2.427171	0.877223	-0.949623
H	-2.434946	-0.899132	-0.992931
C	0.046996	1.209862	-2.191808
H	1.137892	1.199465	-2.127428
H	-0.256779	1.191382	-3.241588
H	-0.330169	2.130233	-1.733677
N	-0.50423	1.190999	0.720748
H	-0.725525	0.92469	1.672146
H	0.265851	1.847871	0.789238
Cl	3.589183	0.0	0.0
