17

C	-0.511163	-0.035358	-1.433292
C	0.0	0.0	0.0
Br	-0.069178	1.698146	-2.305182
H	1.100316	0.0	0.0
H	-0.322604	-0.952014	0.44589
C	0.231219	-1.114053	-2.204745
H	-0.060388	-1.117556	-3.258201
H	-0.019585	-2.089387	-1.77042
H	1.310238	-0.967894	-2.117745
C	-2.021293	-0.183503	-1.504533
H	-2.297635	-1.150123	-1.065694
H	-2.37359	-0.155964	-2.538498
H	-2.504369	0.605826	-0.928969
N	-0.601776	1.084378	0.787986
H	-0.149787	1.944038	0.492004
H	-0.308223	0.944607	1.749238
Cl	3.604952	0.0	0.0
