14

C	0.0	0.0	0.0
C	-0.463822	-0.163126	-1.448238
F	1.383959	0.0	0.0
H	-0.044039	0.611527	-2.091873
H	-1.560039	-0.116252	-1.457025
C	-0.380576	1.377598	0.410172
N	-0.532293	2.498598	0.724464
N	-0.49218	-0.926036	0.963228
H	-1.501437	-0.76351	1.02335
H	-0.344753	-1.861512	0.60466
N	-0.055693	-1.456976	-2.065741
O	0.494429	-2.312644	-1.373179
O	-0.305635	-1.585233	-3.26004
Cl	-3.475793	0.0	0.0
