14

C	0.0	0.0	0.0
C	-0.487031	-0.216692	-1.429639
F	1.382522	0.0	0.0
H	-1.57949	-0.245699	-1.425221
H	-0.083114	0.56171	-2.073713
C	-0.353445	1.394717	0.399483
N	-0.541807	2.514214	0.701807
N	-0.481442	-1.020651	0.858137
H	-0.27744	-0.777892	1.821004
H	-1.500999	-1.046816	0.748506
N	0.039892	-1.509318	-1.944986
O	1.128868	-1.479554	-2.522508
O	-0.64145	-2.515761	-1.767269
Cl	-3.502482	0.0	0.0
