14

C	0.0	0.0	0.0
C	-0.534868	0.041302	-1.41595
F	1.403729	0.0	0.0
H	-0.358657	-0.91153	-1.912733
H	-1.618849	0.233604	-1.341141
C	-0.382548	1.166058	0.822602
N	-0.549593	2.057653	1.56674
N	-0.491114	-1.178896	0.596905
H	-0.487562	-1.162967	1.60403
H	-0.047876	-2.003519	0.220134
N	0.120429	1.076648	-2.251283
O	0.316266	2.179751	-1.747261
O	0.400782	0.768439	-3.409842
Cl	-3.646429	0.0	0.0
