14

C	-0.585357	-0.068565	-1.399867
C	0.0	0.0	0.0
F	-0.173933	1.124044	-2.022719
H	1.087883	0.0	0.0
H	-0.364193	0.912252	0.473013
C	-0.077315	-1.165643	-2.246581
N	0.243162	-1.988259	-3.019576
N	-2.001525	-0.169438	-1.344027
H	-2.405477	-0.162387	-2.271941
H	-2.384172	0.589019	-0.792868
N	-0.493791	-1.133158	0.812869
O	-0.279943	-2.264517	0.387525
O	-1.079645	-0.867827	1.864103
Cl	3.286573	0.0	0.0
