14

C	-0.36102	0.097826	-1.480873
C	0.0	0.0	0.0
F	-0.383468	-1.262262	-1.91643
H	1.09214	0.0	0.0
H	-0.404574	-0.90684	0.43873
C	-1.737257	0.57488	-1.751968
N	-2.837453	0.911746	-1.984496
N	0.580692	0.870826	-2.16425
H	0.490733	0.800952	-3.168006
H	1.529874	0.682872	-1.843124
N	-0.473716	1.14004	0.816705
O	-0.576334	2.241654	0.284502
O	-0.703168	0.901205	2.000976
Cl	3.288956	0.0	0.0
