14

C	-0.380137	0.15978	-1.467801
C	0.0	0.0	0.0
F	-0.290206	-1.115916	-2.063826
H	1.089592	0.0	0.0
H	-0.379667	0.840456	0.581192
C	-1.771634	0.608064	-1.716652
N	-2.836808	1.033909	-1.96457
N	0.511958	1.102201	-2.014373
H	0.366731	1.249741	-3.003355
H	1.480268	0.868577	-1.795576
N	-0.59048	-1.231258	0.578194
O	0.152414	-2.069674	1.074009
O	-1.820547	-1.309311	0.532228
Cl	3.332678	0.0	0.0
