14

C	-0.346785	0.12241	-1.48151
C	0.0	0.0	0.0
F	-0.178924	-1.193054	-1.988895
H	1.095067	0.0	0.0
H	-0.441014	-0.899448	0.416784
C	-1.769288	0.432778	-1.751092
N	-2.901586	0.636985	-1.985803
N	0.491082	1.063274	-2.086343
H	0.416959	1.056299	-3.09436
H	1.454428	0.951292	-1.772648
N	-0.523953	1.156456	0.762546
O	-1.576309	0.975268	1.385776
O	0.095621	2.214406	0.713044
Cl	3.327347	0.0	0.0
