14

C	-0.358866	-0.093905	-1.478219
C	0.0	0.0	0.0
F	-0.233446	-1.448875	-1.853043
H	1.094588	0.0	0.0
H	-0.380937	0.92575	0.431758
C	-1.752672	0.273827	-1.818631
N	-2.832423	0.605743	-2.136924
N	0.532372	0.757576	-2.159041
H	0.438691	0.679965	-3.162586
H	1.494624	0.594509	-1.858995
N	-0.585991	-1.119757	0.77261
O	-1.791753	-1.320885	0.611604
O	0.139239	-1.74261	1.538966
Cl	3.341971	0.0	0.0
