14
Coordinates from ORCA-job run
  C   -0.15314568619206      0.23391288645950     -0.09754807171962
  C   1.14140030747900      0.11372195584185      0.25201773217406
  H   1.75387514486208      1.00517494225244      0.36931696195074
  C   -0.79217799602906      1.58489357392241     -0.24739188148622
  H   -0.08121460838808      2.39129006295593     -0.05033824018102
  H   -1.18974223940637      1.72523851433607     -1.25916437402631
  H   -1.63459131357628      1.70583067474705      0.44349965885480
  C   -1.02987290665614     -0.96822438349766     -0.32377231114699
  H   -1.77172546323828     -0.75991693455037     -1.09993564343755
  H   -1.58490809401915     -1.24956126283026      0.57986791539498
  H   -0.45442096605033     -1.83798641866597     -0.65243828491269
  N   1.84765322532847     -1.09280354827205      0.39293401820397
  H   2.67165015484158     -0.99666259439437      0.96523215447665
  H   1.27822044104462     -1.85490746830455      0.72872036585520
