14
Coordinates from ORCA-job run
  C   -0.19647985813532      0.22461957536629      0.02616972428233
  C   1.06958974228287      0.11264886888518      0.46978966591565
  H   1.58670168360202      0.98580077181490      0.86189835668187
  C   -0.88870812821919      1.55658456462553     -0.01743876802555
  H   -1.18676433710788      1.81720167039578     -1.03963934610294
  H   -1.80309362255040      1.54851341832278      0.58684334392597
  H   -0.24535724132019      2.35726262128674      0.35627658940335
  C   -0.96289608288005     -0.97015105309835     -0.47525416806029
  H   -0.83003826271767     -1.12425894623029     -1.55351145605468
  H   -2.03461513053249     -0.83954966798219     -0.30257276827202
  H   -0.66165697683469     -1.88866423858165      0.03665568428406
  N   1.79566390160561     -1.08550195425098      0.57861927346696
  H   2.79195106987595     -0.93636826904150      0.60867860590078
  H   1.56570324293142     -1.76013736151223     -0.13551473734549
