14
Coordinates from ORCA-job run
  C   -0.27106243923387     -0.11243276241736      0.05077485078518
  C   0.93746462175765     -0.48404738256388      0.51319923258780
  H   1.04720102488673     -1.42769857969244      1.04348823589106
  C   -0.48121239557066      1.20775246462772     -0.64121698377817
  H   -1.49106820080128      1.58275093151040     -0.45287524211978
  H   -0.36932806664803      1.12632069473867     -1.72961860028107
  H   0.21808775111735      1.96937664269633     -0.28499591923329
  C   -1.46175039290174     -1.01872922637042      0.17972071936576
  H   -1.20347603698231     -1.95327146199856      0.68421266202922
  H   -1.87751142067459     -1.27273986661535     -0.80221526271786
  H   -2.26557299616538     -0.53855202582628      0.74953524257925
  N   2.10804772134066      0.29225448154865      0.47250101723206
  H   2.94547111345667     -0.26265597041487      0.55356032842439
  H   2.16470971641880      0.89167206077738     -0.33707028076455
