14
Coordinates from ORCA-job run
  C   -0.19557565247019      0.21988832006266      0.04792540295829
  C   1.07781858938297      0.07006268053149      0.45851107195077
  H   1.60243028109726      0.90846793580841      0.91182879137033
  C   -0.88184454650363      1.55363105474497      0.12315441962386
  H   -1.78654080785965      1.49995415790745      0.73956620940592
  H   -1.19483612030519      1.89702541123530     -0.86969028221235
  H   -0.22878967134882      2.31910738129240      0.54993469623794
  C   -0.97821099336504     -0.92580171840700     -0.53549082595069
  H   -0.65075899114364     -1.88886789987339     -0.13399490871092
  H   -2.04123627777133     -0.82284612147697     -0.30036505374261
  H   -0.89624320179825     -0.96802488333828     -1.62879336457320
  N   1.80568888281778     -1.13201224463521      0.45842910527906
  H   1.56498130218144     -1.74742556930181     -0.30388753077046
  H   2.80211720708629     -0.98315850455001      0.48387226913406
