14
Coordinates from ORCA-job run
  C   -0.27081328058527     -0.11419961234934      0.04960579341100
  C   0.94466527224131     -0.52106946573043      0.46146910196078
  H   1.05992355410756     -1.49893881795891      0.92420475095091
  C   -0.48764812871445      1.25061383369544     -0.54685105682316
  H   0.22225756121988      1.98400793894709     -0.15431345205081
  H   -0.39811510625699      1.24274217402303     -1.64034675590038
  H   -1.49148385599784      1.61599700441586     -0.31293285576942
  C   -1.46269830070935     -1.02378754190189      0.13652985515627
  H   -1.89495900100093     -1.20954661238184     -0.85355546426590
  H   -2.25551847196136     -0.58110165328207      0.75035820462313
  H   -1.20019610349489     -1.99112214396298      0.57234109460697
  N   2.11782474144186      0.25247385773190      0.45110059429377
  H   2.16265087994103      0.90411303515296     -0.31776778115061
  H   2.95411023976943     -0.30918199639879      0.48015797095745
