16

C	-0.494092	-0.004354	-1.460299
C	0.0	0.0	0.0
Br	0.462813	1.345187	-2.44004
H	1.090208	0.0	0.0
C	-0.405312	-1.25518	-2.202464
N	-0.39256	-2.202393	-2.899943
N	-2.007255	0.336783	-1.4159
O	-2.442273	1.307747	-2.005762
O	-2.647485	-0.459583	-0.734791
N	-0.390856	-1.30118	0.690827
O	-1.068649	-1.22743	1.713356
O	0.046012	-2.332751	0.194211
N	-0.487746	1.152073	0.667884
H	0.21767	1.480296	1.314772
H	-1.335892	0.936868	1.178696
Br	3.360983	0.0	0.0
