16

C	-0.41141	-0.000624	-1.508756
C	0.0	0.0	0.0
Br	-0.009505	1.748667	-2.243468
H	1.091865	0.0	0.0
C	0.365338	-0.986109	-2.246345
N	1.216441	-1.662112	-2.703002
N	-1.908226	-0.281166	-1.680436
O	-2.67757	0.672335	-1.665051
O	-2.202966	-1.471579	-1.627745
N	-0.443341	-1.367359	0.483612
O	0.344859	-2.29878	0.332743
O	-1.512496	-1.420141	1.106276
N	-0.5515	0.970578	0.862056
H	-1.550458	0.872816	0.974028
H	-0.286832	1.910219	0.608001
Br	2.740248	0.0	0.0
