16

C	-0.431868	0.001096	-1.472844
C	0.0	0.0	0.0
Br	-2.373452	-0.023609	-1.744338
H	1.092713	0.0	0.0
C	0.075296	1.21317	-2.101344
N	0.429683	2.198037	-2.635091
N	0.092862	-1.216694	-2.240552
O	0.556562	-1.01453	-3.354401
O	-0.049517	-2.294293	-1.681733
N	-0.473481	-1.220886	0.762483
O	-1.669079	-1.238674	1.066161
O	0.355303	-2.060059	1.088255
N	-0.464254	1.203736	0.604154
H	0.192193	1.495762	1.315588
H	-1.394051	1.089138	0.98472
Br	3.365005	0.0	0.0
