17

C	0.0	0.0	0.0
C	-0.37008	-0.071051	-1.514888
F	1.357864	0.0	0.0
H	-1.343632	-0.550382	-1.565757
C	-0.612401	1.110401	0.717287
N	-0.596607	2.140103	1.311613
N	-0.381906	-1.284457	0.714204
O	-0.379063	-1.260817	1.946813
O	-0.396369	-2.317882	0.033296
N	0.678986	-0.801895	-2.250559
H	0.319707	-0.919416	-3.193919
H	0.723945	-1.733903	-1.849184
C	-0.463635	1.335058	-2.080909
H	-0.610673	1.285719	-3.165572
H	-1.305594	1.86582	-1.637328
H	0.461516	1.883556	-1.887581
H	-2.235934	0.0	0.0
