17

C	0.0	0.0	0.0
C	-0.399359	0.064406	-1.538531
F	1.358869	0.0	0.0
H	0.026611	0.947809	-2.012087
C	-0.520893	1.153982	0.71219
N	-0.914738	2.174108	1.213953
N	-0.380377	-1.25664	0.814569
O	-1.476198	-1.351929	1.507278
O	0.336092	-2.270567	0.560586
N	-1.877807	0.128261	-1.484845
H	-2.335158	-0.260356	-2.327577
H	-2.236294	1.061243	-1.316231
C	-0.035997	-1.23036	-2.250473
H	-0.22154	-1.123462	-3.322268
H	1.01407	-1.441973	-2.066511
H	-0.614473	-2.073464	-1.854304
H	-1.548567	0.0	0.0
