17

C	0.0	0.0	0.0
C	-0.555346	0.141253	-1.410794
F	1.357591	0.0	0.0
H	-1.63316	-0.057711	-1.252564
C	-0.461631	1.027744	0.94428
N	-0.556519	1.93655	1.686217
N	-0.354606	-1.370081	0.602258
O	-0.056986	-1.501464	1.785979
O	-0.779191	-2.248469	-0.130963
N	0.134689	-0.811559	-2.285051
H	-0.504327	-1.564273	-2.510667
H	0.414835	-0.350572	-3.141068
C	-0.384838	1.570407	-1.894947
H	-0.821859	1.661069	-2.892938
H	0.672426	1.855522	-1.945546
H	-0.91406	2.263885	-1.239458
H	-2.949884	0.0	0.0
