17

C	0.0	0.0	0.0
C	-0.375008	-0.027611	-1.520811
F	1.356148	0.0	0.0
H	0.608966	0.089803	-1.990625
C	-0.467757	1.195775	0.707898
N	-0.494579	2.213398	1.304709
N	-0.332775	-1.210787	0.85678
O	-0.515596	-1.024646	2.057311
O	-0.162778	-2.314802	0.337286
N	-1.12917	1.184078	-1.843411
H	-1.337509	1.154682	-2.837104
H	-2.005292	1.055419	-1.318414
C	-0.999557	-1.30466	-2.081652
H	-1.929804	-1.506831	-1.55018
H	-0.33466	-2.165472	-2.020898
H	-1.222905	-1.112407	-3.138507
H	-2.352278	0.0	0.0
