17

C	0.0	0.0	0.0
C	-0.330063	-0.11065	-1.53349
F	1.357019	0.0	0.0
H	-1.321268	-0.541608	-1.616154
C	-0.625548	1.126706	0.674802
N	-0.602652	2.181766	1.226199
N	-0.383033	-1.262644	0.748643
O	-0.403821	-2.318244	0.104057
O	-0.405602	-1.200597	1.978902
N	0.602006	-0.957418	-2.272187
H	0.552974	-1.883146	-1.863595
H	1.547	-0.621328	-2.122587
C	-0.322149	1.288594	-2.128207
H	-0.405607	1.205564	-3.214046
H	-1.154157	1.875576	-1.737833
H	0.610934	1.810196	-1.887764
H	-2.193069	0.0	0.0
