17

C	0.0	0.0	0.0
C	-0.509	-0.000428	-1.432692
F	1.351649	0.0	0.0
H	-1.607607	0.09302	-1.325472
C	-0.470129	1.122497	0.826755
N	-0.704384	2.051412	1.508076
N	-0.358192	-1.29495	0.743971
O	-1.192122	-2.043747	0.263494
O	0.254076	-1.455469	1.797939
N	-0.067746	-1.253564	-2.059041
H	-0.848804	-1.896147	-2.071879
H	0.212051	-1.072741	-3.014542
C	0.137017	1.176401	-2.153431
H	-0.259696	1.251216	-3.169498
H	-0.05249	2.123709	-1.644572
H	1.219686	1.022706	-2.213822
H	-3.123583	0.0	0.0
