12

C	0.0	0.0	0.0
C	-0.499779	-0.147881	-1.432732
Cl	1.783637	0.0	0.0
H	-1.597299	-0.133362	-1.392662
H	-0.2793	0.987704	0.380878
H	-0.16337	-1.116951	-1.811534
N	-0.492908	-1.113162	0.764739
H	-0.262235	-0.971473	1.741876
H	-1.513484	-1.076664	0.685824
C	-0.027259	0.911579	-2.316312
N	0.358543	1.747641	-3.0449
Br	-3.741133	0.0	0.0
