12

C	0.0	0.0	0.0
C	-0.49349	0.149158	-1.434362
Cl	1.785812	0.0	0.0
H	-0.134837	1.094624	-1.849687
H	-0.289887	0.904986	0.545577
H	-1.591291	0.175569	-1.393881
N	-0.492991	-1.228752	0.552683
H	-1.513588	-1.183673	0.470121
H	-0.272098	-1.264024	1.541508
C	-0.054057	-0.940482	-2.302434
N	0.279935	-1.788944	-3.0408
Br	-3.722747	0.0	0.0
