12

C	0.0	0.0	0.0
C	-0.449174	0.112455	-1.460869
Cl	1.84243	0.0	0.0
H	-1.547512	0.119396	-1.434807
H	-0.294956	0.897057	0.543471
H	-0.11134	-0.771472	-2.010686
N	-0.494478	-1.142387	0.693585
H	-1.49884	-0.985823	0.817893
H	-0.384632	-1.967415	0.113463
C	0.040203	1.302374	-2.149319
N	0.433482	2.223134	-2.761946
Br	-3.685099	0.0	0.0
