12

C	0.0	0.0	0.0
C	-0.213541	-0.19711	-1.537016
Cl	1.793604	0.0	0.0
H	0.38702	0.567233	-2.039113
H	-0.327284	0.990922	0.309996
H	0.265862	-1.153003	-1.780464
N	-0.530674	-0.968479	0.88969
H	-1.538457	-0.774534	0.948249
H	-0.422653	-1.8971	0.4975
C	-1.492267	-0.194556	-2.257817
N	-2.227963	-0.222409	-3.175103
Br	-3.61973	0.0	0.0
