12

C	0.0	0.0	0.0
C	-0.478734	0.41027	-1.400828
Cl	1.7865	0.0	0.0
H	-0.087897	1.394846	-1.67127
H	-0.322216	0.775605	0.694862
H	-1.575822	0.457449	-1.344375
N	-0.489287	-1.257043	0.480561
H	-0.331553	-1.974103	-0.219979
H	-1.499779	-1.147981	0.596726
C	-0.085387	-0.560376	-2.415871
N	0.217348	-1.37448	-3.206008
Br	-3.708589	0.0	0.0
