12

C	0.0	0.0	0.0
C	-0.478328	-0.446073	-1.388256
Cl	1.789421	0.0	0.0
H	-0.147111	-1.474113	-1.565301
H	-0.312504	1.030664	0.16757
H	-1.575843	-0.424225	-1.347269
N	-0.502773	-0.800194	1.076446
H	-1.511665	-0.629053	1.113045
H	-0.368792	-1.781791	0.857254
C	-0.004911	0.399831	-2.478619
N	0.375985	1.08071	-3.355968
Br	-3.713478	0.0	0.0
