12

C	0.0	0.0	0.0
C	-0.528507	0.482527	-1.341558
Cl	1.838224	0.0	0.0
H	-0.15514	1.483741	-1.567394
H	-0.285768	0.714635	0.769748
H	-1.626068	0.501628	-1.223742
N	-0.514709	-1.265633	0.310169
H	-0.238203	-1.988081	-0.338494
H	-0.371368	-1.545776	1.266854
C	-0.162092	-0.422812	-2.425536
N	0.129223	-1.151781	-3.298348
Br	-3.910213	0.0	0.0
