12

C	0.0	0.0	0.0
C	-0.480714	0.460694	-1.372846
Cl	1.839699	0.0	0.0
H	-1.576815	0.52114	-1.282069
H	-0.288508	0.744205	0.739649
H	-0.060961	1.436741	-1.629124
N	-0.537448	-1.228611	0.337475
H	-0.383777	-2.015361	-0.266332
H	-0.757089	-1.424992	1.29369
C	-0.129793	-0.498786	-2.414787
N	0.128535	-1.268856	-3.262135
Br	-3.856877	0.0	0.0
