12

C	0.0	0.0	0.0
C	-0.476566	0.385955	-1.408614
Cl	1.789516	0.0	0.0
H	-1.573932	0.40954	-1.35988
H	-0.320444	0.788115	0.681619
H	-0.105482	1.376575	-1.684234
N	-0.483903	-1.250841	0.500572
H	-0.324162	-1.976681	-0.190511
H	-1.494971	-1.145027	0.615981
C	-0.056872	-0.581729	-2.415396
N	0.248018	-1.36933	-3.231128
Br	-3.690395	0.0	0.0
