12

C	0.0	0.0	0.0
C	-0.472716	-0.634251	-1.316054
Cl	1.789711	0.0	0.0
H	-1.568857	-0.567804	-1.305186
H	-0.320885	1.041535	-0.003074
H	-0.083703	-0.083491	-2.17674
N	-0.485952	-0.617613	1.196365
H	-0.308683	-1.615965	1.160391
H	-1.499437	-0.476586	1.200088
C	-0.07165	-2.033322	-1.427375
N	0.245589	-3.159504	-1.523445
Br	-3.704596	0.0	0.0
