17
Coordinates from ORCA-job run
  C   0.35650626950866      0.64850610542147     -0.62084801469352
  C   -0.85640433884453     -0.06761277203742      0.00464984895918
  F   0.10205970095490      0.59964287143613     -1.99446437478952
  H   -1.74444196313876      0.38244609169304     -0.44206256259817
  C   1.72087083604303      0.03598574905732     -0.38776960705843
  H   1.73089941898268     -0.98646372799733     -0.76599939634843
  H   2.46027831236843      0.61648890986949     -0.94143213102096
  H   1.97142805422913      0.03920853331709      0.67068930054297
  C   0.33970978151135      2.06757286537731     -0.22275872733286
  N   0.32590385691717      3.19653829042965      0.10035725895480
  N   -0.96641914934334      0.23054503098253      1.46787451525532
  O   0.05000306426973      0.10081920077023      2.14814384751953
  O   -2.07868288330392      0.53667351156037      1.88756244609044
  C   -0.84841492076971     -1.57261085950535     -0.18740156956011
  H   -0.04336036136706     -2.03529878641434      0.38447790818116
  H   -1.80089453885391     -1.98873773867209      0.14582778777151
  H   -0.72104113916384     -1.80370327528810     -1.24584652987292
