17
Coordinates from ORCA-job run
  C   0.41980574335279      0.71852674385756     -0.37881541665032
  C   -0.75317826058139     -0.21125449737237     -0.06337194823926
  F   -0.11874779491314      1.87579756594513     -0.93063221540580
  H   -1.22128722974247     -0.48174381827689     -1.01156870746486
  C   1.35787776567121      0.10790444514728     -1.40622408929092
  H   2.10812164714306      0.85062195496232     -1.68025805193520
  H   1.86718483517064     -0.77091137836565     -1.01005872613874
  H   0.78994987706722     -0.16542183250006     -2.29764166645879
  C   1.18168038554233      1.09281149088333      0.82491773466663
  N   1.87775490727468      1.34772242671237      1.73552289532484
  N   -1.80960897911790      0.57038067462712      0.66268862845971
  O   -1.48931560184882      1.06349886226874      1.74010406150665
  O   -2.91618565346538      0.63281654215636      0.13478928435347
  C   -0.38634051973733     -1.42654169604032      0.76661767543657
  H   -1.28185969880836     -2.01761201426503      0.96748845688588
  H   0.05383127764993     -1.12313197021506      1.71728601816536
  H   0.32031729934294     -2.06046349952484      0.22915606678478
