17
Coordinates from ORCA-job run
  C   0.40894018210460      0.63102342604592     -0.60691574202128
  C   -0.85713425307037     -0.04481562266134     -0.04529551165804
  F   0.23104334819563      0.57498469901087     -1.99260458480532
  H   -1.70467270883388      0.41590070427022     -0.55508182702858
  C   1.73941786370306     -0.01827010260352     -0.29206442885868
  H   1.92693783530176     -0.01682583944825      0.77949718755213
  H   2.52657994396239      0.53860262234195     -0.80252562319890
  H   1.74260699888374     -1.04222819140274     -0.66634340588552
  C   0.41213136094627      2.05428732718855     -0.22457904876918
  N   0.41721709317007      3.18765687423683      0.08289962766883
  N   -1.05043348284898      0.28231177771322      1.40269104065576
  O   -0.07512116797305      0.16427366546943      2.14284116420298
  O   -2.18473685872107      0.59568327519466      1.75184083608751
  C   -0.87421426607088     -1.55303699920371     -0.20980651495590
  H   -1.85518910807136     -1.93984540672530      0.07218805677403
  H   -0.11647380211344     -2.02369741943783      0.41780732412047
  H   -0.68889897856450     -1.80700478998899     -1.25454854988030
