17
Coordinates from ORCA-job run
  C   0.71893042378863      0.02772219238642     -0.44503863098959
  C   -0.71405140355986      0.02331194866819      0.11851669398193
  F   1.24479419860526     -1.25232400971375     -0.35818615998487
  H   -1.17187546529660      0.98758844682324     -0.11031432822226
  C   1.66231917487472      0.97768819922395      0.26835605630932
  H   2.62761755955291      0.97251928927479     -0.23860331833652
  H   1.80497714020243      0.63866174084876      1.29528099975869
  H   1.26255242968242      1.99262857004549      0.27788731361174
  C   0.61453198721836      0.37250136300712     -1.87559419580436
  N   0.51873570462977      0.67154366253263     -3.00713456766328
  N   -0.61762625613412     -0.00194554019346      1.61535724087383
  O   -0.75563147189698      1.07385573521455      2.19658600768453
  O   -0.36948991715312     -1.08101400863310      2.14646020068571
  C   -1.54860883902900     -1.13919138781021     -0.37755465654472
  H   -1.64632666247598     -1.08561569997503     -1.46363023139867
  H   -1.08245200522202     -2.08328166097756     -0.10450929058169
  H   -2.54739659778680     -1.09564884072204      0.06012086662023
