17
Coordinates from ORCA-job run
  C   0.41592145010613      0.61878751716794     -0.60373298383498
  C   -0.86863608700129     -0.00215054628812     -0.01672564886071
  F   0.23436571699392      0.56222842872367     -1.98545770730215
  H   -1.70531393673609      0.57150822262496     -0.41846340136565
  C   1.70990476918408     -0.09199909867336     -0.26861720490391
  H   1.88458044398666     -0.09821332779872      0.80649853596132
  H   1.66902010945304     -1.11824980426779     -0.63363138281548
  H   2.53218632137344      0.42339370593520     -0.76674884727536
  C   0.49303143443664      2.04251979400207     -0.22940023945402
  N   0.57458109174730      3.17380294789001      0.07526250254107
  N   -0.90530286549043      0.24705970905536      1.46242769658680
  O   -0.17103746939239     -0.44420555538006      2.16724147915952
  O   -1.66021330531494      1.13131605717328      1.86036776238586
  C   -1.01554493996676     -1.48147479195813     -0.30560788362169
  H   -0.26617496564940     -2.06352886181512      0.22804718122468
  H   -0.91699861809214     -1.65145228373014     -1.37832047723575
  H   -2.00436914963777     -1.82134211266107      0.00786061881045
