17
Coordinates from ORCA-job run
  C   0.45045117374701      0.60288708620093     -0.59576343072015
  C   -0.86720127953835      0.01632049615341     -0.04824196397409
  F   0.31706242483050      0.53385742324183     -1.98250768635000
  H   -1.67659399910814      0.60352391055397     -0.48472213428145
  C   1.71615684551016     -0.13108986858815     -0.20681859370479
  H   1.85364809216122     -0.12643043633525      0.87366993220068
  H   1.66580126468747     -1.16119392464961     -0.55962780687316
  H   2.56582705230509      0.35979848629636     -0.68325474175886
  C   0.54531406695068      2.02875345300883     -0.23422726278981
  N   0.64162693660236      3.16112104868303      0.06184742105237
  N   -0.95000678569827      0.28316808703397      1.42628790715503
  O   -0.25738676125092     -0.41674663775641      2.16396605920105
  O   -1.69895114342963      1.18780054889350      1.78799029354705
  C   -1.03659263955171     -1.46260420402256     -0.32551565185653
  H   -2.04238703049020     -1.77712418293612     -0.04056585199112
  H   -0.31791553651078     -2.05427033831570      0.23895866123891
  H   -0.90685268121648     -1.64777094746202     -1.39247515009513
