15

C	0.0	0.0	0.0
C	-0.295647	-0.065494	-1.515919
F	1.40456	0.0	0.0
H	0.184175	0.839437	-1.912593
H	-0.363633	-0.890646	0.517169
N	-0.518023	1.186557	0.568709
H	-1.080141	1.051796	1.392304
H	0.166692	1.921502	0.647453
C	-1.768983	-0.07546	-1.910636
H	-2.341549	0.655985	-1.339218
H	-1.853718	0.118758	-2.984407
H	-2.249332	-1.024386	-1.676959
C	0.415611	-1.210383	-2.100064
N	0.953336	-2.140539	-2.57575
H	-4.139493	0.0	0.0
