15

C	0.0	0.0	0.0
C	-0.52169	0.025598	-1.427537
F	1.389772	0.0	0.0
H	-1.626652	0.062793	-1.276521
H	-0.289808	-0.967332	0.436511
N	-0.506016	1.132842	0.705143
H	-0.2893	1.019317	1.691059
H	-1.534611	1.019431	0.615862
C	-0.137232	-1.233948	-2.201997
H	0.947333	-1.367222	-2.2223
H	-0.503687	-1.185489	-3.229945
H	-0.59439	-2.101631	-1.718795
C	-0.074112	1.224417	-2.127906
N	0.262098	2.152812	-2.765203
H	-3.030087	0.0	0.0
