15

C	0.0	0.0	0.0
C	-0.240136	-0.028052	-1.54565
F	1.380117	0.0	0.0
H	0.502681	0.700982	-1.8904
H	-0.311742	-0.938998	0.471197
N	-0.569241	1.175503	0.565646
H	-1.594043	1.000661	0.468466
H	-0.382806	1.163686	1.565332
C	-1.57858	0.348274	-2.178435
H	-1.85398	1.354727	-1.86419
H	-1.461964	0.326076	-3.269235
H	-2.385155	-0.294421	-1.837494
C	0.215257	-1.331047	-2.045492
N	0.574516	-2.371163	-2.456627
H	-3.215215	0.0	0.0
