15

C	0.0	0.0	0.0
C	-0.484867	0.039229	-1.45288
F	1.389122	0.0	0.0
H	-1.591669	0.026356	-1.312229
H	-0.334959	-0.953251	0.41989
N	-0.505139	1.041902	0.830564
H	-0.367486	1.931554	0.358219
H	-1.526504	0.858716	0.830821
C	-0.013482	-1.162805	-2.268912
H	-0.3708	-2.078233	-1.788955
H	1.077202	-1.197111	-2.32277
H	-0.416125	-1.133846	-3.284363
C	-0.09519	1.292717	-2.086921
N	0.219451	2.299804	-2.606173
H	-3.016742	0.0	0.0
