15

C	0.0	0.0	0.0
C	-0.234681	-0.032048	-1.546559
F	1.380522	0.0	0.0
H	0.461023	0.746131	-1.880676
H	-0.311905	-0.938981	0.47198
N	-0.572503	1.174957	0.559881
H	-1.596905	0.990415	0.464799
H	-0.38529	1.169798	1.557869
C	-1.58885	0.250573	-2.19413
H	-1.964423	1.211879	-1.849297
H	-2.341863	-0.476073	-1.903924
H	-1.447726	0.274763	-3.281952
C	0.306713	-1.300255	-2.050447
N	0.725301	-2.318926	-2.458861
H	-3.18546	0.0	0.0
