15

C	0.0	0.0	0.0
C	-0.237374	-0.012487	-1.545287
F	1.380107	0.0	0.0
H	0.476977	0.750763	-1.877215
H	-0.311266	-0.944573	0.460783
N	-0.571677	1.16821	0.577426
H	-0.392574	1.141748	1.578039
H	-1.596284	0.992115	0.47349
C	-1.588311	0.314481	-2.180672
H	-2.36425	-0.378558	-1.868514
H	-1.458131	0.324523	-3.269812
H	-1.921967	1.294935	-1.844513
C	0.267226	-1.290267	-2.062889
N	0.656045	-2.315417	-2.484799
H	-3.206579	0.0	0.0
