15

C	0.0	0.0	0.0
C	-0.655041	0.0725	-1.355502
F	1.408657	0.0	0.0
H	-1.766435	0.092024	-1.023086
H	-0.31296	-0.930644	0.479767
N	-0.415556	1.09972	0.803086
H	-0.090192	1.96703	0.391394
H	-0.034535	1.012148	1.736693
C	-0.38181	-1.155906	-2.216734
H	-0.869216	-1.060288	-3.189697
H	0.689502	-1.316771	-2.37232
H	-0.808242	-2.03094	-1.715976
C	-0.310729	1.306532	-2.038819
N	-0.041186	2.303738	-2.604004
H	-3.17257	0.0	0.0
