15

C	0.0	0.0	0.0
C	-0.486691	0.048136	-1.452059
F	1.388806	0.0	0.0
H	-1.593323	0.045022	-1.308155
H	-0.335951	-0.95449	0.415566
N	-0.501119	1.038888	0.836833
H	-1.522345	0.858457	0.842261
H	-0.366141	1.931375	0.367721
C	-0.031663	-1.156251	-2.273509
H	1.05848	-1.202815	-2.333772
H	-0.439276	-1.119687	-3.286671
H	-0.396811	-2.069753	-1.794847
C	-0.084707	1.299435	-2.082747
N	0.240907	2.304788	-2.599367
H	-3.015336	0.0	0.0
