15

C	0.0	0.0	0.0
C	-0.201815	-0.039778	-1.562298
F	1.390425	0.0	0.0
H	0.388488	0.825339	-1.897083
H	-0.346567	-0.925013	0.461892
N	-0.583672	1.094376	0.67255
H	-1.598228	0.856142	0.705524
H	-0.497976	1.93222	0.106125
C	-1.592187	0.055653	-2.185211
H	-2.206281	-0.801637	-1.926726
H	-1.479516	0.141687	-3.273698
H	-2.137935	0.906404	-1.785159
C	0.488273	-1.222184	-2.093709
N	1.009552	-2.179433	-2.532444
H	-3.241114	0.0	0.0
