15

C	0.0	0.0	0.0
C	-0.387059	-0.007059	-1.481503
F	1.355423	0.0	0.0
H	-1.454569	-0.216693	-1.491049
H	0.181189	-0.861417	-1.872022
N	-0.414776	1.192601	0.833979
O	-0.511962	2.280221	0.281857
O	-0.456412	1.007601	2.045046
C	-0.479954	-1.218279	0.667863
N	-0.600953	-2.294209	1.126907
C	-0.030418	1.239658	-2.285185
H	-0.764999	2.024066	-2.118023
H	-0.033508	0.98424	-3.350859
H	0.957964	1.634537	-2.03558
F	-2.414163	0.0	0.0
