15

C	0.0	0.0	0.0
C	-0.376693	0.103669	-1.485894
F	1.377888	0.0	0.0
H	-0.422038	-0.92858	-1.848985
H	-1.394438	0.479921	-1.500056
N	-0.391334	1.219184	0.802817
O	-0.435841	1.085267	2.020073
O	-0.481043	2.282194	0.201318
C	-0.494415	-1.202523	0.667193
N	-0.579117	-2.26491	1.165788
C	0.609225	0.906851	-2.330299
H	0.22445	0.966168	-3.354207
H	0.705839	1.924887	-1.95034
H	1.603657	0.455731	-2.371767
F	-2.361613	0.0	0.0
