15

C	0.0	0.0	0.0
C	-0.218235	-0.003971	-1.540814
F	1.365674	0.0	0.0
H	0.593192	0.64264	-1.891953
H	0.075705	-1.024271	-1.821065
N	-0.38147	1.291623	0.67347
O	-0.386547	2.298804	-0.027588
O	-0.494151	1.272685	1.89403
C	-0.522581	-1.142838	0.739377
N	-0.594553	-2.168132	1.314557
C	-1.484629	0.383642	-2.284728
H	-1.812909	1.378467	-1.993655
H	-2.294162	-0.300748	-2.064966
H	-1.240388	0.381823	-3.358041
F	-2.28275	0.0	0.0
