15

C	0.0	0.0	0.0
C	-0.391994	0.118704	-1.472117
F	1.35574	0.0	0.0
H	0.42593	0.667064	-1.952557
H	-1.317331	0.677042	-1.51248
N	-0.372676	1.243631	0.784176
O	-0.452224	1.131414	2.001929
O	-0.39894	2.300231	0.163806
C	-0.501494	-1.180303	0.704757
N	-0.583192	-2.22166	1.247174
C	-0.596238	-1.24824	-2.110752
H	-1.492358	-1.684696	-1.67049
H	-0.745341	-1.142274	-3.189937
H	0.254536	-1.918849	-1.951626
F	-2.363307	0.0	0.0
