15

C	0.0	0.0	0.0
C	-0.366625	-0.048586	-1.486146
F	1.375559	0.0	0.0
H	-1.451945	-0.124549	-1.507634
H	0.080569	-0.996163	-1.813264
N	-0.404041	1.238616	0.764005
O	-0.510324	2.287833	0.142099
O	-0.4436	1.130584	1.98509
C	-0.484559	-1.179214	0.722712
N	-0.570616	-2.224183	1.25638
C	0.185291	1.083815	-2.34879
H	1.214257	1.342672	-2.089096
H	0.173999	0.76785	-3.397038
H	-0.425763	1.978653	-2.253847
F	-2.398032	0.0	0.0
