15

C	0.0	0.0	0.0
C	-0.213896	-0.230452	-1.523368
F	1.368948	0.0	0.0
H	0.095636	-1.27601	-1.653154
H	0.588461	0.37041	-1.964397
N	-0.37867	1.37653	0.476309
O	-0.390299	2.268781	-0.365855
O	-0.479979	1.538263	1.686871
C	-0.520155	-1.021365	0.900485
N	-0.593427	-1.949601	1.62182
C	-1.48317	0.029022	-2.315429
H	-1.81697	1.054595	-2.180038
H	-2.287931	-0.617563	-1.988672
H	-1.241505	-0.135689	-3.376676
F	-2.281309	0.0	0.0
