15

C	0.0	0.0	0.0
C	-0.193017	-0.144257	-1.536237
F	1.366909	0.0	0.0
H	0.482051	0.624561	-1.927288
H	0.3062	-1.100109	-1.74072
N	-0.39647	1.343608	0.549305
O	-0.45065	2.277079	-0.242623
O	-0.480506	1.436554	1.768475
C	-0.524646	-1.074795	0.833164
N	-0.603617	-2.04474	1.496199
C	-1.497759	-0.081588	-2.306837
H	-1.247591	-0.170037	-3.375771
H	-2.175974	-0.871932	-2.005954
H	-2.008242	0.857931	-2.122161
F	-2.287899	0.0	0.0
