15

C	0.0	0.0	0.0
C	-0.391303	0.277665	-1.450734
F	1.381321	0.0	0.0
H	0.478312	0.763275	-1.908215
H	-1.238127	0.948911	-1.430236
N	-0.358633	1.143543	0.926633
O	-0.440786	0.887379	2.121701
O	-0.382248	2.266037	0.436357
C	-0.475855	-1.258015	0.573326
N	-0.550926	-2.35412	0.994807
C	-0.792908	-0.985035	-2.202134
H	-0.028469	-1.766821	-2.161539
H	-1.715808	-1.334673	-1.740925
H	-0.980863	-0.748319	-3.253291
F	-2.341806	0.0	0.0
