15
Coordinates from ORCA-job run
  C   0.74309457271760      0.21835355292512      0.48753849059703
  C   -0.66617636786499      0.28264468967756     -0.12665667617348
  H   0.68330018480352      0.49461672551605      1.54429501936355
  H   -1.02412557918426      1.30463474421897      0.03489157877248
  N   1.60052997274601      1.29268530917511     -0.15499194815299
  O   2.55142145806635      0.94681496923685     -0.84236066715037
  O   1.22484869880632      2.43748182689949      0.07150552473714
  C   1.35726310701001     -1.09403957123157      0.34010913641743
  N   1.79301697229733     -2.18170233340799      0.25922257418803
  C   -1.60763200549145     -0.71901070120421      0.54682422964520
  H   -1.27049704139592     -1.74355820164644      0.38166781758440
  H   -1.65246131673907     -0.52786901700346      1.62158322620569
  H   -2.61305191598150     -0.61639967530248      0.13631693000981
  C   -0.58599568016983      0.05117340577790     -1.57081714475800
  N   -0.53353505962013     -0.14782572363091     -2.72712809128591
