15
Coordinates from ORCA-job run
  C   0.73685706659952      0.23301727451924      0.49004364875529
  C   -0.67313990120787      0.26657555201425     -0.12472621126594
  H   0.66882366261141      0.49618677970442      1.54963426665248
  H   -1.05799541610583      1.27707851746097      0.04692328832579
  N   1.56631875284804      1.33654496698967     -0.13958044552008
  O   1.15993621969027      2.46851790675111      0.09805979982417
  O   2.52690452169211      1.02324044293557     -0.82912191297647
  C   1.38599783350705     -1.06086238280671      0.32950036204507
  N   1.85085298345422     -2.13554748362654      0.23774618492824
  C   -1.58819146349125     -0.76624459677284      0.53807269450622
  H   -1.63842129687357     -0.58709921446480      1.61471699105717
  H   -2.59591680230313     -0.68616794272601      0.12806889718112
  H   -1.22388698375029     -1.77973099638250      0.36283705895779
  C   -0.58671801149679      0.05174536323996     -1.57104414946999
  N   -0.52942116517388     -0.13525418683579     -2.72913047300087
