15

C	-0.434708	-0.044837	-1.458585
C	0.0	0.0	0.0
F	-0.136886	1.202221	-2.047458
H	1.097545	0.0	0.0
H	-1.522781	-0.146356	-1.558677
N	0.220159	-1.120066	-2.110218
H	0.010728	-1.109944	-3.100264
H	1.225326	-1.030632	-1.974564
C	-0.483005	-1.233425	0.767032
H	-0.074591	-2.127157	0.297234
H	-0.132157	-1.188117	1.799316
H	-1.575931	-1.297803	0.769454
C	-0.493199	1.21906	0.636365
N	-0.923572	2.164438	1.184594
Br	3.486425	0.0	0.0
