15

C	-0.328435	0.020112	-1.483932
C	0.0	0.0	0.0
F	-1.70974	0.13783	-1.68578
H	1.097556	0.0	0.0
H	-0.071545	-0.96142	-1.907476
N	0.327049	1.12497	-2.109119
H	0.394166	0.97843	-3.10806
H	1.269037	1.208528	-1.735359
C	-0.525499	-1.249151	0.70143
H	-1.611605	-1.321797	0.608284
H	-0.258955	-1.22917	1.759348
H	-0.065763	-2.134661	0.256565
C	-0.488598	1.213445	0.649905
N	-0.873843	2.164891	1.220131
Br	3.493142	0.0	0.0
