15

C	-0.446284	0.002107	-1.463379
C	0.0	0.0	0.0
F	-0.119091	-1.223476	-2.025332
H	1.09541	0.0	0.0
H	0.145153	0.74068	-2.019516
N	-1.874331	0.154684	-1.593386
H	-2.19108	0.936615	-1.033581
H	-2.109536	0.341186	-2.56013
C	-0.50833	-1.221818	0.766077
H	-0.115973	-2.118103	0.286708
H	-0.136446	-1.191696	1.791703
H	-1.598854	-1.267951	0.771598
C	-0.459624	1.240467	0.619714
N	-0.895719	2.230055	1.080469
Br	3.539208	0.0	0.0
