15

C	-0.36485	-0.087882	-1.481382
C	0.0	0.0	0.0
F	-0.199529	1.189992	-2.057984
H	1.097584	0.0	0.0
H	-1.423688	-0.326571	-1.637442
N	0.458173	-1.067118	-2.086761
H	1.435491	-0.881353	-1.865781
H	0.329475	-1.075088	-3.089681
C	-0.471198	-1.239121	0.764328
H	-0.131791	-1.189466	1.80038
H	-1.562803	-1.321861	0.755645
H	-0.040069	-2.124921	0.298793
C	-0.53423	1.215706	0.600601
N	-1.018183	2.172904	1.078994
Br	3.528262	0.0	0.0
