15

C	-0.447375	0.04984	-1.457679
C	0.0	0.0	0.0
F	0.043528	-1.11332	-2.081972
H	1.095964	0.0	0.0
H	0.034244	0.886891	-1.967326
N	-1.859716	0.151647	-1.604738
H	-2.102459	0.183253	-2.586861
H	-2.308363	-0.656679	-1.192599
C	-0.472362	-1.258862	0.731784
H	-1.557578	-1.281255	0.871078
H	-0.154364	-2.136977	0.169446
H	-0.001758	-1.298168	1.71517
C	-0.459842	1.206663	0.684658
N	-0.822584	2.1734	1.244199
Br	3.538272	0.0	0.0
