15

C	-0.301083	0.009144	-1.498816
C	0.0	0.0	0.0
F	-1.682962	0.021571	-1.694321
H	1.09678	0.0	0.0
H	0.080404	-0.925827	-1.921757
N	0.275215	1.100897	-2.227865
H	0.047769	1.97098	-1.756423
H	1.286278	0.994691	-2.180932
C	-0.530495	-1.236294	0.718731
H	-0.108012	-2.129488	0.251866
H	-1.620282	-1.287154	0.664902
H	-0.222156	-1.230631	1.765769
C	-0.486293	1.233557	0.609212
N	-0.880172	2.235435	1.079881
Br	3.489259	0.0	0.0
