15

C	-0.362498	-0.185218	-1.470975
C	0.0	0.0	0.0
F	-0.145543	1.041793	-2.136409
H	1.094958	0.0	0.0
H	-1.427972	-0.397063	-1.617523
N	0.426634	-1.23591	-2.000964
H	0.296273	-1.308377	-3.00168
H	1.411227	-1.058044	-1.800105
C	-0.477926	-1.179578	0.848993
H	-0.041843	-2.097455	0.455407
H	-1.569229	-1.264638	0.833882
H	-0.150425	-1.052701	1.882109
C	-0.532368	1.25638	0.513261
N	-1.026541	2.233034	0.939422
Br	3.528182	0.0	0.0
