15

C	-0.38736	-0.09699	-1.485347
C	0.0	0.0	0.0
F	-0.381073	1.188117	-2.019755
H	1.097765	0.0	0.0
H	-1.411443	-0.476304	-1.600264
N	0.506678	-0.909865	-2.24462
H	1.460875	-0.805213	-1.904483
H	0.239441	-1.8822	-2.219998
C	-0.431233	-1.263654	0.749899
H	-1.520169	-1.377879	0.756948
H	0.020125	-2.137775	0.276122
H	-0.074453	-1.227868	1.780261
C	-0.55247	1.183875	0.643138
N	-1.043209	2.092741	1.202362
Br	3.515769	0.0	0.0
