15

C	-0.444701	-0.06514	-1.454096
C	0.0	0.0	0.0
F	-1.81955	-0.458034	-1.490897
H	1.095068	0.0	0.0
H	0.095742	-0.874508	-1.950965
N	-0.233483	1.144124	-2.146286
H	-0.723294	1.912597	-1.705648
H	-0.5127	1.064605	-3.113849
C	-0.444577	-1.234459	0.788896
H	-0.011209	-1.203298	1.789705
H	-1.530676	-1.300657	0.860168
H	-0.064179	-2.129345	0.290308
C	-0.504511	1.22169	0.621576
N	-0.955829	2.202653	1.084922
Br	3.525266	0.0	0.0
