15

C	-0.429038	-0.04482	-1.470319
C	0.0	0.0	0.0
F	-0.183591	1.208251	-2.020635
H	1.097618	0.0	0.0
H	-1.510676	-0.214558	-1.555812
N	0.263531	-1.029346	-2.234102
H	1.224227	-1.124601	-1.917131
H	-0.21072	-1.919842	-2.213361
C	-0.462208	-1.254995	0.743574
H	-0.133174	-1.216643	1.782895
H	-1.552804	-1.355468	0.725125
H	-0.011277	-2.13757	0.287011
C	-0.514989	1.193403	0.662308
N	-0.977135	2.11242	1.22951
Br	3.515982	0.0	0.0
