15

C	-0.299292	-0.018713	-1.49873
C	0.0	0.0	0.0
F	-1.680363	-0.007516	-1.69775
H	1.09832	0.0	0.0
H	0.081511	-0.961848	-1.903677
N	0.280555	1.058246	-2.24646
H	1.2915	0.951487	-2.195818
H	0.054031	1.937627	-1.791652
C	-0.532096	-1.221742	0.741877
H	-1.62203	-1.271659	0.689133
H	-0.223663	-1.196687	1.78856
H	-0.111167	-2.1243	0.291545
C	-0.487613	1.243323	0.588089
N	-0.895056	2.234564	1.06965
Br	3.488588	0.0	0.0
