15

C	-0.447823	0.054758	-1.457281
C	0.0	0.0	0.0
F	0.052747	-1.10088	-2.088166
H	1.094667	0.0	0.0
H	0.026959	0.898632	-1.962375
N	-1.860772	0.145873	-1.60341
H	-2.104242	0.185635	-2.585288
H	-2.302716	-0.669964	-1.198738
C	-0.471666	-1.261573	0.727717
H	-1.556308	-1.282586	0.870877
H	-0.156913	-2.137301	0.159977
H	0.002587	-1.306103	1.708991
C	-0.463389	1.201728	0.690755
N	-0.853413	2.146353	1.269333
Br	3.539999	0.0	0.0
