15

C	-0.445208	-0.006944	-1.464228
C	0.0	0.0	0.0
F	-0.137818	-1.243471	-2.012488
H	1.09542	0.0	0.0
H	0.159531	0.715367	-2.026598
N	-1.870074	0.168478	-1.599064
H	-2.174874	0.961626	-1.048619
H	-2.100479	0.348378	-2.568504
C	-0.511923	-1.215294	0.773761
H	-0.115457	-2.115461	0.305526
H	-0.147111	-1.175171	1.801382
H	-1.602416	-1.262044	0.772436
C	-0.456875	1.245721	0.611115
N	-0.889773	2.240527	1.063432
Br	3.529212	0.0	0.0
