13
Coordinates from ORCA-job run
  C   -0.34417614576505      0.23940248047565     -0.17964716625844
  C   1.11946235404668     -0.18010305307587     -0.16938811216978
  Cl  -1.16240370841756     -0.47311036406026     -1.62930008600347
  H   1.61936199451581      0.36039500272441     -0.97904329988288
  H   1.55552181243134      0.14429107566241      0.77768852612021
  N   -0.46180582983492      1.63731992588858     -0.05737752034083
  H   -1.43559221269483      1.91044772471533      0.00650851790644
  H   -0.01899894101863      2.11579340754873     -0.83111521212758
  N   -1.08459088901575     -0.33828604078349      1.02887230837078
  O   -0.48791962293221     -1.14822237225138      1.72617644613387
  O   -2.21913421838654      0.08580788212180      1.20103761442021
  C   1.34446957745983     -1.60902700464315     -0.35880355525322
  N   1.57780582961183     -2.74470866432274     -0.53560846091532
