13
Coordinates from ORCA-job run
  C   -0.46698088587316      0.17113133814143     -0.22969479741073
  C   0.64488329607127     -0.87002229919424      0.00226190872098
  Cl  -1.05304530697727      0.04015539678963     -1.87947829224978
  H   0.89602395175567     -0.87158229132140      1.06702488647995
  H   0.29353880102717     -1.86751419897867     -0.27618024322667
  N   -0.15925020291926      1.53075279359283      0.05889249864892
  H   0.23344881046004      1.62118587159162      0.98753707574041
  H   0.46742106005814      1.91623006875606     -0.63532809452795
  N   -1.57625259891928     -0.22399670537223      0.76826869942007
  O   -1.27357025757642      0.01059773890462      1.93497817786558
  O   -2.60404805664157     -0.74270135357768      0.36823349705837
  C   1.82775366688200     -0.51792055134978     -0.77303445051793
  N   2.77107772265265     -0.19631580798219     -1.39248086600121
