11
Coordinates from ORCA-job run
  C   0.17860606876859      0.41877166599497     -0.10788240416210
  C   -0.91824130979392      0.49181908572264      0.68522634374874
  H   -1.30422428384898      1.45318086179531      1.01069508059480
  C   0.79867784812290     -0.84923768804444     -0.61631644965866
  H   0.80539093265009     -0.85116381083177     -1.70935129427432
  H   1.83681450325278     -0.91954187013194     -0.28159989255780
  H   0.25078209909774     -1.72302712704515     -0.26267174268852
  C   0.80334565227565      1.64931762978121     -0.49996904712542
  N   1.33940420989075      2.64100113554060     -0.83871381018735
  C   -1.60766635955508     -0.67596497621994      1.12697851209351
  N   -2.18088936086052     -1.63615490656150      1.49460470421713
