11
Coordinates from ORCA-job run
  C   0.17253056102034      0.42227010091934     -0.10577178890558
  C   -0.92218030069986      0.47542734842882      0.69172819526848
  H   -1.31863280031414      1.42959166337854      1.02638484190903
  C   0.80602093383727     -0.83413390853510     -0.62638206837192
  H   0.81039827197949     -0.82625671269387     -1.71936461027820
  H   0.26853822461097     -1.71704297498550     -0.27957388232075
  H   1.84538310259158     -0.89550547348768     -0.29420913258366
  C   0.78240829581651      1.66302345162287     -0.48849329704814
  N   1.30712353138337      2.66315665600662     -0.81994824226271
  C   -1.59593276044681     -0.70432947774330      1.12656322289957
  N   -2.15665705977871     -1.67420067291075      1.48806676169388
