11
Coordinates from ORCA-job run
  C   0.15829664393315      0.07075859984524     -0.09678217346292
  C   -0.91785486728689     -0.37389733274561      0.59488095923240
  H   -1.32853219356246     -1.35600941964704      0.37801676041037
  C   0.83409579110917     -0.73200658259250     -1.17027303415622
  H   0.81267764765463     -0.19027864185368     -2.11923338730223
  H   1.88251155128292     -0.90265892421364     -0.91335926673735
  H   0.34039998696256     -1.69566265948571     -1.30175729410011
  C   0.70530867867235      1.36665828927730      0.18327840974306
  N   1.18981544285954      2.42151787517806      0.38001445597056
  C   -1.56288746935189      0.38960684181665      1.61165109681573
  N   -2.11483121227308      1.00097195442093      2.45256347358670
