11
Coordinates from ORCA-job run
  C   0.15936636550131      0.06900910870132     -0.09623587725444
  C   -0.93195615720295     -0.36072876366841      0.58092974402497
  H   -1.37892682072454     -1.31857293253440      0.32979734533442
  C   0.80508894849607     -0.71800251394409     -1.19935020997346
  H   0.79926098787815     -0.14345384007572     -2.12906519450245
  H   0.27918462104736     -1.65969131473387     -1.36200053289965
  H   1.84773310429848     -0.93248392303627     -0.95191862026155
  C   0.75419020010033      1.33194108715796      0.23152244662570
  N   1.27225559021435      2.36335142329527      0.46382514040534
  C   -1.54310065357410      0.38587146132742      1.63060190323648
  N   -2.06309618603447      0.98276020751079      2.50189385526464
