11
Coordinates from ORCA-job run
  C   0.14510263810665      0.07266472141764     -0.11449547201802
  C   -0.85012451761885     -0.37804057024233      0.68587271573495
  H   -1.08369116540323     -1.43916847968068      0.70785030946320
  C   0.96081461405511     -0.82697479541233     -0.99693425088949
  H   2.01957686606632     -0.75722274070162     -0.73515100205343
  H   0.63863005481439     -1.86412247767593     -0.89610665339078
  H   0.86054884179496     -0.52460955314492     -2.04237393366732
  C   0.46212405091167      1.47076941308317     -0.14679577681122
  N   0.75921062729184      2.60864773441888     -0.20358503494325
  C   -1.62749972598453      0.47596976964634      1.52195252693278
  N   -2.28369228403433      1.16108697829177      2.21876657164257
