11
Coordinates from ORCA-job run
  C   0.22118292265244      0.41231718546022     -0.00970849267047
  C   -0.70652807595083      0.32486725853135      0.97470329527786
  H   -0.88279123350520      1.15957275860329      1.64660894411388
  C   0.54739540488866     -0.67257077930230     -0.99332429207330
  H   0.37675933798838     -0.31736744506398     -2.01283662998384
  H   1.60239008043973     -0.94672226349412     -0.91332273119236
  H   -0.06445634135244     -1.55779932535656     -0.81810716621443
  C   0.95530266063126      1.63896617844956     -0.13026613415024
  N   1.57553444680844      2.63141283207535     -0.25607602149905
  C   -1.48729629771422     -0.85217218831924      1.17221087252689
  N   -2.13549290488622     -1.82050421158359      1.33911835586507
