11
Coordinates from ORCA-job run
  C   0.14721989151888      0.07957029658938     -0.10646023376853
  C   -0.86944265926926     -0.41584911980858      0.63853093836553
  H   -0.93330304242687     -1.48547376918270      0.81825012737206
  C   1.21735483525393     -0.78162284551979     -0.71202662993255
  H   2.20142573064342     -0.47818094803112     -0.34630778774120
  H   1.05574806702925     -1.83146967787971     -0.46464032610928
  H   1.22343769388688     -0.67064783832455     -1.79927868424001
  C   0.23720159330592      1.48973270099086     -0.35087439533454
  N   0.35080954774358      2.63903578846648     -0.57991329878872
  C   -1.88861785595516      0.40052413586516      1.21037821896959
  N   -2.74083380173057      1.05338127683458      1.69334207120765
