11
Coordinates from ORCA-job run
  C   0.05310517885677      0.32998065652036     -0.32764408718003
  C   -1.04506554348004      0.51467228117194      0.44520286785480
  H   -1.70534270385803      1.36034524281081      0.27754957194949
  C   1.03146575318140     -0.79899694901884     -0.18899251449255
  H   0.74604665508188     -1.46653395285623      0.62436196149516
  H   2.03234800756006     -0.40588954304961      0.00654959505346
  H   1.07855207662205     -1.37047636093623     -1.11956289284787
  C   0.30887805983614      1.28682413559062     -1.36563578843925
  N   0.54943121422348      2.05365269098047     -2.22569098315671
  C   -1.38315501383981     -0.38269118473651      1.50086942237615
  N   -1.66626368418389     -1.12088701647679      2.37299284738735
