11
Coordinates from ORCA-job run
  C   0.14324513989130      0.07056022555989     -0.11699703513518
  C   -0.84470899703021     -0.36504014192117      0.70046770733235
  H   -1.10920954181815     -1.41874364857644      0.71053338491694
  C   0.91314083693346     -0.83731492652736     -1.03165103331428
  H   1.97876182974744     -0.80260319552609     -0.79140655791257
  H   0.79992847950487     -0.51458315017099     -2.06960214841948
  H   0.56326803116661     -1.86636048780664     -0.94049595473556
  C   0.49795773660303      1.45997285266226     -0.13748073638038
  N   0.82379955648444      2.59001248895073     -0.19047137721079
  C   -1.57530681623848      0.49656743526333      1.57026378433157
  N   -2.19087625524431      1.18753254809248      2.29783996652737
