11
Coordinates from ORCA-job run
  C   0.17081085204250      0.07173792806887     -0.07185249712208
  C   -1.00346532664353     -0.37079556259546      0.43761411671354
  H   -1.45215421650438     -1.27881141471963      0.04457607374454
  C   0.90586205469582     -0.63378309003839     -1.17425487225146
  H   1.02460023788625      0.02793853472108     -2.03588160473639
  H   0.36722569419655     -1.52910762727117     -1.48724308245296
  H   1.90613139242533     -0.92035297695928     -0.84013491717066
  C   0.77075768534981      1.26800237734409      0.44344666800063
  N   1.29978739484954      2.24290443274400      0.83795493744274
  C   -1.69891623011415      0.29546186813752      1.48884033170952
  N   -2.28963953818372      0.82580553056836      2.35793484612259
