11
Coordinates from ORCA-job run
  C   0.15391278516845      0.07273556994123     -0.10212902204850
  C   -0.90302924570947     -0.37782292453120      0.61481266449869
  H   -1.11768895112985     -1.44241821177658      0.64532945372940
  C   1.06876410903725     -0.83295289023829     -0.87447323240997
  H   1.06302775045405     -0.56233711696458     -1.93344894379145
  H   0.75945540636680     -1.87408075724672     -0.77352805308416
  H   2.09583310021145     -0.73174983609049     -0.51491836060875
  C   0.44317446723711      1.47660839567610     -0.14809173008458
  N   0.71841057922536      2.61957524654976     -0.21301641883401
  C   -1.77464741914245      0.48174860959028      1.34543756086767
  N   -2.50821258171870      1.17169391509049      1.95502608176565
