11
Coordinates from ORCA-job run
  C   0.13681707526615      0.05778534049009     -0.13062560379962
  C   -0.80895120508876     -0.29151303478376      0.77355398600513
  H   -0.88008595140383     -1.32294874077322      1.10716476520506
  C   1.11659862964630     -0.91846233026555     -0.71404522319197
  H   2.14031705757013     -0.60786100830752     -0.49056204415716
  H   0.95403657317273     -1.91850368205950     -0.30998210234907
  H   1.01436422922519     -0.95430345307144     -1.80156573420326
  C   0.23601902071680      1.41725678348037     -0.57612044209652
  N   0.35429878257901      2.51934201367352     -0.97279348424783
  C   -1.74091033923752      0.63585583984113      1.32499798656794
  N   -2.52250387244620      1.38335227177590      1.78997789626731
