11
Coordinates from ORCA-job run
  C   0.13745748117186      0.06387161900559     -0.12801627330335
  C   -0.81726063739928     -0.32712203555004      0.74938271160794
  H   -0.86910038712825     -1.36684227661633      1.06001828339715
  C   1.15244661569347     -0.87609735937277     -0.71075655313149
  H   1.00517512312288     -1.88825439556302     -0.33177387927088
  H   2.16357903767933     -0.54681900657172     -0.45869270299321
  H   1.07404946708641     -0.89094270068893     -1.80072964606263
  C   0.21174982230071      1.43440099109925     -0.54398514016651
  N   0.31079044001121      2.54847097346550     -0.91159524441980
  C   -1.78120534270147      0.56516524435051      1.30334438468857
  N   -2.58668161983687      1.28316894644197      1.77380405965420
