11
Coordinates from ORCA-job run
  C   0.16455831340878      0.08387982723635     -0.07267281560192
  C   -0.95825982131893     -0.45381392138364      0.46045970706730
  H   -1.45359165393891     -1.27683980776113     -0.04712703811643
  C   0.78001195093213     -0.40209009129671     -1.35284043340292
  H   1.80387079852609     -0.74134702711840     -1.17669567827430
  H   0.82393824328021      0.40847891527062     -2.08455690728373
  H   0.20097449292337     -1.22621178213343     -1.77175287768036
  C   0.82510711331377      1.17020948531644      0.59098400447632
  N   1.40050009691420      2.06207162717495      1.10050689130502
  C   -1.54311701097656      0.00616564574255      1.67665090711795
  N   -2.04399252306415      0.36949712895239      2.67804424039306
