15

C	0.0	0.0	0.0
C	-0.342	-0.029401	-1.519014
Cl	1.789235	0.0	0.0
H	-1.440292	-0.139639	-1.48748
C	-0.536392	1.225684	0.625135
N	-0.700404	2.201177	1.278526
C	-0.557971	-1.130606	0.758971
N	-0.681308	-2.039811	1.503538
C	0.22644	-1.198396	-2.151454
N	0.682957	-2.109532	-2.745054
C	0.02417	1.268884	-2.230435
H	-0.241885	1.196135	-3.287864
H	1.087878	1.503714	-2.159894
H	-0.550733	2.082664	-1.780943
H	-2.236123	0.0	0.0
