15

C	0.0	0.0	0.0
C	-0.342137	-0.007359	-1.534199
Cl	1.789172	0.0	0.0
H	-1.424295	-0.18514	-1.539887
C	-0.529201	1.209975	0.637919
N	-0.568569	2.252145	1.198399
C	-0.594795	-1.17973	0.648795
N	-0.610656	-2.233841	1.189887
C	0.313253	-1.119502	-2.21608
N	0.748868	-2.012339	-2.845385
C	-0.046876	1.324427	-2.217792
H	1.001776	1.609143	-2.121312
H	-0.289909	1.249449	-3.279942
H	-0.669209	2.101742	-1.768669
H	-2.19367	0.0	0.0
