15

C	0.0	0.0	0.0
C	-0.336115	-0.05524	-1.537925
Cl	1.78943	0.0	0.0
H	-1.417217	-0.236446	-1.550553
C	-0.698471	1.148386	0.601713
N	-0.68643	2.207961	1.146694
C	-0.461624	-1.229895	0.661879
N	-0.515973	-2.281866	1.195923
C	0.325919	-1.174742	-2.19759
N	0.798895	-2.064647	-2.803288
C	-0.040522	1.267979	-2.239554
H	1.011472	1.543272	-2.158308
H	-0.648807	2.05277	-1.786276
H	-0.300473	1.186394	-3.29737
H	-2.175987	0.0	0.0
