15

C	0.0	0.0	0.0
C	-0.225767	-0.016725	-1.588815
Cl	1.789482	0.0	0.0
H	0.501821	-0.76133	-1.927224
C	-0.614343	1.165165	0.630153
N	-0.631823	2.22658	1.16412
C	-0.58489	-1.228103	0.545293
N	-0.640189	-2.325992	0.991405
C	0.211764	1.27081	-2.136688
N	0.500424	2.28992	-2.64579
C	-1.563936	-0.397732	-2.226276
H	-1.919682	-1.343359	-1.819343
H	-2.327323	0.35752	-2.060197
H	-1.3847	-0.513384	-3.30581
H	-2.016654	0.0	0.0
