15

C	0.0	0.0	0.0
C	-0.228468	0.019828	-1.58963
Cl	1.789302	0.0	0.0
H	0.468014	-0.750168	-1.939016
C	-0.592777	1.159469	0.662195
N	-0.607084	2.19446	1.243117
C	-0.596009	-1.223641	0.543876
N	-0.701328	-2.292569	1.050828
C	0.278536	1.292228	-2.113103
N	0.661637	2.294105	-2.594481
C	-1.586705	-0.27428	-2.237149
H	-1.397344	-0.364312	-3.319883
H	-1.993856	-1.211893	-1.85721
H	-2.314231	0.515057	-2.064785
H	-2.003881	0.0	0.0
