15

C	0.0	0.0	0.0
C	-0.360871	0.024285	-1.527093
Cl	1.789526	0.0	0.0
H	-1.452359	-0.096133	-1.505982
C	-0.478271	1.226365	0.639468
N	-0.534132	2.245967	1.235465
C	-0.570324	-1.164308	0.697981
N	-0.53143	-2.114958	1.403932
C	0.211702	-1.105554	-2.236833
N	0.640918	-1.974548	-2.903491
C	-0.006976	1.341249	-2.215189
H	-0.316852	1.286666	-3.261702
H	-0.543649	2.159587	-1.730625
H	1.063441	1.545275	-2.181509
H	-2.232049	0.0	0.0
