13

C	0.0	0.0	0.0
C	-0.229794	0.20151	-1.521576
Cl	1.840164	0.0	0.0
H	-0.031797	1.246164	-1.763128
H	-0.306215	-1.001743	0.287692
H	0.443832	-0.442857	-2.085554
N	-0.555205	0.945214	0.878922
H	-1.600134	0.694348	0.717118
H	-0.37844	1.876194	0.512161
N	-1.567418	-0.110838	-2.115863
O	-2.217436	0.826808	-2.564786
O	-1.828033	-1.298434	-2.277893
F	-2.675583	0.0	0.0
