13

C	0.0	0.0	0.0
C	-0.520628	-0.142036	-1.418973
Cl	1.791117	0.0	0.0
H	-1.62149	-0.192853	-1.23906
H	-0.304085	-0.885412	0.552003
H	-0.219067	0.693137	-2.049928
N	-0.547751	1.148003	0.660238
H	-1.570885	0.912437	0.602773
H	-0.38629	1.961664	0.072477
N	-0.061853	-1.371741	-2.094747
O	-0.098238	-2.423417	-1.455081
O	0.304187	-1.288546	-3.270922
F	-2.810945	0.0	0.0
