13

C	0.0	0.0	0.0
C	-0.210433	-0.118438	-1.535448
Cl	1.802846	0.0	0.0
H	0.279628	0.737054	-2.001641
H	-0.337636	-0.910096	0.48875
H	0.240805	-1.042773	-1.89477
N	-0.557136	1.116949	0.655148
H	-0.392939	1.942827	0.086372
H	-1.598632	0.839671	0.563686
N	-1.587502	-0.11414	-2.112981
O	-2.03986	0.976823	-2.447598
O	-2.088776	-1.203662	-2.369428
F	-2.68977	0.0	0.0
