13

C	0.0	0.0	0.0
C	-0.514336	0.08481	-1.436165
Cl	1.786106	0.0	0.0
H	-1.115542	0.975954	-1.569231
H	-0.274012	-0.978358	0.394763
H	0.300745	0.043273	-2.165008
N	-0.514497	1.116507	0.742627
H	-1.547568	0.89929	0.614912
H	-0.29151	0.960979	1.721544
N	-1.395806	-1.05574	-1.826037
O	-2.198409	-0.83682	-2.725917
O	-1.165465	-2.160099	-1.346785
F	-2.672704	0.0	0.0
