13
Coordinates from ORCA-job run
  C   -0.34543543198315      0.39079007084342     -0.24380286667744
  C   0.92524821010871      0.45498963850283      0.61475948629680
  F   -0.05199788939448      0.97945935242955     -1.46591673992255
  H   0.70739028238355      0.10204583279688      1.62677196757676
  H   1.24875962666785      1.49702559396296      0.68367760328700
  C   -1.38586068336586      1.20479136671147      0.41234454934768
  N   -2.21150470476931      1.83442841080108      0.96020889686758
  C   -0.84156598465945     -1.01891453542305     -0.49544134022668
  H   -1.08070498030151     -1.51836794622588      0.44548346316236
  H   -0.06850642221615     -1.58301613892094     -1.01956110976560
  H   -1.73741563615032     -0.98287104159523     -1.11627722223229
  C   1.99679832890168     -0.34956579179216      0.03333699004767
  N   2.84479528477844     -1.01079481209093     -0.43558367776131
