13
Coordinates from ORCA-job run
  C   -0.27817325308901      0.24621500677466     -0.25117534254056
  C   1.06232214678481     -0.28276735946804      0.26903991376180
  F   -0.00410020373044      1.12936507541558     -1.28548112688947
  H   1.55436753820387     -0.81474480760857     -0.55044529743862
  H   0.88902580039512     -0.99349646133147      1.08193958499016
  C   -0.97829804569050      0.99080553811288      0.81115518158783
  N   -1.55271476674647      1.54752935766236      1.67051159441034
  C   -1.15425765160664     -0.86731374533628     -0.79285737507973
  H   -0.62117031103090     -1.38579134466137     -1.59207681164629
  H   -1.41196949345500     -1.57817760492240     -0.00601262219902
  H   -2.07207378255561     -0.44241188453731     -1.20026203856390
  C   1.93333992362578      0.79355745321554      0.73502038594066
  N   2.63370209889497      1.65623077668443      1.11064395366680
