13
Coordinates from ORCA-job run
  C   -0.33099027237811      0.25465045584046     -0.16286875729925
  C   1.11125665725726     -0.16953093652025      0.13105322008926
  F   -0.27735963726845      1.40065332522493     -0.94344055383248
  H   1.11253082890175     -1.07820412612531      0.73958443256606
  H   1.59526917227109     -0.39760491282920     -0.82302851922949
  C   -1.03067867906427      0.59000491449260      1.09042666279318
  N   -1.60336175126106      0.81684295538378      2.08997512558261
  C   -1.08878452055022     -0.81178456685552     -0.93079822860679
  H   -2.09061114271980     -0.44957785370421     -1.16377508526072
  H   -1.17128346642735     -1.72908149189567     -0.34524172146244
  H   -0.56395408878236     -1.02164697138299     -1.86480789064680
  C   1.86500144334740      0.87859661533448      0.81457823573183
  N   2.47296545667412      1.71568259303690      1.36734307957502
