12
Coordinates from ORCA-job run
  C   -0.66656317557306      0.46899388049250     -0.26479419566572
  C   0.64807113276578     -0.17595784358616     -0.65666995061007
  Cl  -0.83076019221332      1.94763515511807     -1.34779094658021
  H   1.49803055077097      0.46373180658979     -0.42387862239127
  H   -1.49875223250309     -0.17285936547001     -0.54625917180900
  H   0.64971255058492     -0.45381397153400     -1.70960985850658
  N   -0.70424211655362      0.72868307836395      1.11907972622499
  H   -1.61061171153727      1.04731600831026      1.43126741402410
  H   0.00984251873848      1.38205584254713      1.41369478236724
  N   0.80379374527400     -1.43234935369990      0.13240344199181
  O   -0.03781288046945     -2.30347345488627     -0.06996493633812
  O   1.73929181071566     -1.49796178224535      0.92352231729283
