12
Coordinates from ORCA-job run
  C   -0.47118155672495      0.61486626410992     -0.25091745281049
  C   0.36675241792231     -0.52111802585587      0.32139576699891
  Cl  0.65327947777222      1.90876190129550     -0.77001990073874
  H   -0.29210309896577     -1.32615216436265      0.65524987845930
  H   -0.98071232455814      0.26723987545665     -1.14893612735994
  H   1.00734542090515     -0.17944043702292      1.13295694904226
  N   -1.43643612312765      1.15445300483592      0.66091269172538
  H   -2.22793017409767      0.53357256376229      0.76545548948231
  H   -1.03191788664539      1.36043870600506      1.56512554134669
  N   1.25598391814528     -1.11794562701209     -0.71705692036970
  O   0.70794220447848     -1.47001060485322     -1.75917698208098
  O   2.44997772489614     -1.22466545635859     -0.45598893369501
