12
Coordinates from ORCA-job run
  C   -0.63581722991128      0.62535074690140     -0.34284475876001
  C   0.63026759534427     -0.15708478053143     -0.68446980314087
  Cl  -0.57968134264341      2.10061298208541     -1.37785986446155
  H   1.52730759067315      0.41447240144437     -0.45236481519759
  H   -1.50819711286948      0.05904128942246     -0.66634660237280
  H   0.63161745381826     -0.48672503733350     -1.72314943225974
  N   -0.78992307702911      0.96872424491159      1.02819011583930
  H   -1.25637138110357      0.24598838394995      1.55579055986603
  H   0.07377601147885      1.24497727509433      1.47398384214940
  N   0.64709627317174     -1.37391918097376      0.17215602033539
  O   1.51716267092791     -1.45710271607703      1.03608456081501
  O   -0.25723745185732     -2.18533560889379     -0.01916982281255
