12
Coordinates from ORCA-job run
  C   -0.46726428448184      0.71805242822175     -0.42411737177249
  C   0.89132085888965      0.03043486029195     -0.30969142816237
  Cl  -0.10289316150234      2.42797663371404     -0.86293654446896
  H   1.41742075602063      0.01698573618406     -1.26388625020817
  H   -1.01477435833000      0.29694453373842     -1.26637446478251
  H   1.50241636449472      0.48206215774509      0.46996590109425
  N   -1.28403903033257      0.65114379007665      0.73815809265770
  H   -1.85841558990834     -0.17839278804907      0.75680343464148
  H   -0.76671375133911      0.75349185005999      1.60016527813932
  N   0.64309150761684     -1.38281594598966      0.08552175398345
  O   1.00178153469231     -1.73792341932242      1.20605550048775
  O   0.03906915418005     -2.07695983667081     -0.73066390160946
