12
Coordinates from ORCA-job run
  C   -0.41273454751865      0.60457621700480     -0.02888658072740
  C   0.43548860696592     -0.62448664162571      0.23115507595045
  Cl  0.65881244788628      2.00334670212168     -0.29934915479133
  H   -0.20646212276748     -1.47644194855661      0.46833588790150
  H   -0.96936399867124      0.47790231139336     -0.96139499951318
  H   1.15039438794230     -0.44120808637280      1.02891303422786
  N   -1.21328904210198      0.85011851583283      1.15290019302944
  H   -1.63812342766813      1.76762144282615      1.09620122461225
  H   -1.96019904715457      0.16466754963009      1.19613049652174
  N   1.19951569092878     -1.00892686976282     -0.98852224725115
  O   2.41313540525986     -1.15340535351801     -0.87882039773905
  O   0.54382564689892     -1.16476383897298     -2.01666253222111
