12
Coordinates from ORCA-job run
  C   -0.49135083000808      0.62177573933204     -0.18966307247520
  C   0.38533910493102     -0.53666481342123      0.26823611463846
  Cl  0.58981789586068      1.97955445461338     -0.62804549376689
  H   -0.24676325527435     -1.38074234600649      0.55393747004618
  H   -1.01703800290745      0.33592822049878     -1.10011657404912
  H   1.04065033206943     -0.24572115886096      1.08777441944556
  N   -1.44420022343119      1.06432838020694      0.78650956865640
  H   -1.01548539265485      1.21876150448813      1.69005139257353
  H   -2.20914422607995      0.40793549398919      0.87223409078131
  N   1.25797735659683     -1.02819632922298     -0.83702582226705
  O   0.68952698219795     -1.30876748655915     -1.88992862422100
  O   2.46067025869995     -1.12819165905764     -0.61596346936219
