14

C	0.0	0.0	0.0
C	-0.461867	-0.013733	-1.441826
Cl	1.866271	0.0	0.0
H	-1.556649	-0.005218	-1.420813
H	-0.110887	-0.915898	-1.950475
H	-0.08131	0.856376	-1.979016
C	-0.461863	1.240434	0.735101
H	-0.110899	1.227934	1.770703
H	-0.081288	2.141599	0.251835
H	-1.556645	1.226543	0.717189
N	-0.46337	-1.155684	0.665808
H	-0.192069	-2.008939	0.197477
H	-0.192077	-1.178524	1.638877
Cl	-4.056465	0.0	0.0
