14

C	0.0	0.0	0.0
C	-0.438116	-0.230521	-1.439952
Cl	1.809963	0.0	0.0
H	-0.04191	0.537833	-2.108598
H	-1.531191	-0.212472	-1.454833
H	-0.085441	-1.206229	-1.787176
C	-0.452233	1.357852	0.507089
H	-1.545329	1.377796	0.495002
H	-0.090477	1.504778	1.526051
H	-0.065078	2.153536	-0.132809
N	-0.46467	-1.010936	0.921046
H	-0.298347	-1.927081	0.51568
H	-1.479965	-0.892316	0.971356
Cl	-3.782452	0.0	0.0
