19

C	-0.273745	-0.022056	-1.515337
C	0.0	0.0	0.0
Br	0.017285	1.820181	-2.258098
H	1.096299	0.0	0.0
N	0.719923	-0.864183	-2.155058
H	1.606365	-0.638833	-1.675228
H	0.485436	-1.80672	-1.849824
C	-1.680383	-0.418309	-1.921115
H	-1.759793	-0.460886	-3.008729
H	-2.411861	0.298411	-1.539557
H	-1.891352	-1.403942	-1.497425
N	-0.354914	-1.359239	0.484108
H	-1.108152	-1.308666	1.159881
H	0.4679	-1.70884	0.96107
C	-0.634383	1.090903	0.834648
H	-0.330691	2.08265	0.50119
H	-0.310293	0.972684	1.873569
H	-1.732913	1.041334	0.812672
F	2.704831	0.0	0.0
