19

C	-0.231242	-0.000832	-1.52879
C	0.0	0.0	0.0
Br	-0.019666	1.873647	-2.216381
H	1.094583	0.0	0.0
N	0.822348	-0.77037	-2.162595
H	1.686963	-0.52613	-1.648162
H	0.624174	-1.731842	-1.896933
C	-1.59824	-0.463225	-1.99198
H	-1.63745	-0.467033	-3.083332
H	-1.758366	-1.477385	-1.615224
H	-2.386417	0.190594	-1.607328
N	-0.354462	-1.368855	0.450621
H	0.422591	-1.69241	1.016259
H	-1.182477	-1.344841	1.038726
C	-0.652199	1.075558	0.843122
H	-0.378329	0.917383	1.89153
H	-1.749868	1.045755	0.770245
H	-0.317396	2.072462	0.556083
F	2.718993	0.0	0.0
