19

C	-0.3805	0.056283	-1.47225
C	0.0	0.0	0.0
Br	0.231584	-1.801531	-2.286684
H	1.098832	0.0	0.0
N	-1.765384	0.194846	-1.670996
H	-2.235241	-0.471433	-1.064219
H	-2.033472	0.04318	-2.634557
C	0.500977	1.039378	-2.213425
H	1.519651	0.887543	-1.837454
H	0.453399	0.900162	-3.295821
H	0.163035	2.05419	-1.978473
N	-0.670622	-1.145515	0.645044
H	-0.128716	-1.969193	0.402676
H	-0.556892	-1.027193	1.647318
C	-0.451961	1.274786	0.706905
H	-0.076165	1.245152	1.73565
H	-0.013765	2.157586	0.239966
H	-1.541795	1.37687	0.724572
F	2.729858	0.0	0.0
