19

C	-0.284258	0.037002	-1.514506
C	0.0	0.0	0.0
Br	0.044246	-1.782808	-2.282589
H	1.095896	0.0	0.0
N	-1.685766	0.305203	-1.812161
H	-1.808906	0.35095	-2.818992
H	-1.896134	1.226147	-1.43794
C	0.75069	0.937117	-2.185949
H	0.516325	1.980705	-1.944159
H	1.73131	0.689637	-1.752368
H	0.73805	0.82633	-3.274029
N	-0.561664	-1.12814	0.731563
H	-1.445318	-1.389142	0.304274
H	0.071067	-1.909308	0.611184
C	-0.482015	1.29009	0.66387
H	-1.576465	1.328254	0.745516
H	-0.075615	1.297855	1.676485
H	-0.122686	2.188891	0.154653
F	2.745664	0.0	0.0
