19

C	-0.356584	0.061049	-1.479347
C	0.0	0.0	0.0
Br	0.215213	-1.819287	-2.279307
H	1.098832	0.0	0.0
N	-1.731767	0.240902	-1.705789
H	-1.983806	0.106499	-2.676419
H	-2.236972	-0.413084	-1.115799
C	0.570103	1.01218	-2.207976
H	0.263089	2.038423	-1.981534
H	1.57691	0.82995	-1.81234
H	0.536263	0.870139	-3.290523
N	-0.684728	-1.137947	0.639914
H	-0.571087	-1.022454	1.642327
H	-0.154675	-1.96891	0.395983
C	-0.45031	1.279865	0.698801
H	-0.009305	2.15916	0.228009
H	-0.077638	1.255122	1.728875
H	-1.539878	1.384528	0.712815
F	2.738467	0.0	0.0
