18

C	0.0	0.0	0.0
C	-0.594712	-0.10585	-1.425007
Cl	1.759402	0.0	0.0
H	-1.69013	-0.161847	-1.186247
C	-0.494798	1.222601	0.742228
H	-0.098403	2.11963	0.265188
H	-0.144113	1.184576	1.772137
H	-1.590683	1.162455	0.672781
N	-0.431342	-1.243571	0.79077
O	-0.699474	-2.268954	0.175366
O	-0.39968	-1.154556	2.010717
N	-0.103113	-1.111821	-2.318148
H	0.909236	-1.13905	-2.298156
H	-0.462274	-1.997286	-1.994381
N	-0.33795	1.21561	-2.09581
O	-1.213406	2.076483	-2.051081
O	0.749935	1.354869	-2.661312
F	-2.821197	0.0	0.0
