18

C	0.0	0.0	0.0
C	-0.606457	0.071081	-1.418615
Cl	1.759442	0.0	0.0
H	-1.706441	0.054024	-1.167814
C	-0.505101	1.097294	0.915197
H	-0.123405	0.921814	1.920708
H	-0.147885	2.063552	0.559209
H	-1.599994	1.019472	0.85861
N	-0.410358	-1.343045	0.640797
O	-0.899216	-2.221039	-0.053948
O	-0.160337	-1.460105	1.834349
N	-0.200547	-0.886465	-2.397658
H	0.801379	-1.030417	-2.381505
H	-0.667881	-1.752916	-2.178351
N	-0.256399	1.428611	-1.968783
O	-1.006158	2.372024	-1.720539
O	0.770878	1.516046	-2.643608
F	-2.848854	0.0	0.0
