18

C	0.0	0.0	0.0
C	-0.286348	0.056045	-1.544841
Cl	1.776242	0.0	0.0
H	0.204998	-0.820523	-1.964898
C	-0.439869	1.185118	0.823594
H	-0.026871	1.100276	1.828529
H	-1.535773	1.129145	0.807781
H	-0.05408	2.09546	0.359538
N	-0.437735	-1.309243	0.606229
O	-0.626859	-1.32857	1.814905
O	-0.458393	-2.281994	-0.137647
N	0.205525	1.254683	-2.191251
H	1.114273	1.504159	-1.828146
H	-0.459038	1.998147	-2.011838
N	-1.715048	-0.079433	-2.064056
O	-2.064217	-1.213865	-2.362012
O	-2.301393	0.948693	-2.372958
F	-2.55195	0.0	0.0
