18

C	0.0	0.0	0.0
C	-0.706991	0.141102	-1.346682
Cl	1.762755	0.0	0.0
H	-1.812124	0.196044	-0.998085
C	-0.500697	0.98579	1.032637
H	-0.111263	0.709541	2.013216
H	-0.161136	1.987139	0.776026
H	-1.594466	0.911901	0.995049
N	-0.339828	-1.434782	0.524493
O	0.220074	-2.376269	-0.024141
O	-1.103235	-1.522033	1.475845
N	-0.477039	-0.923741	-2.244709
H	0.47026	-0.926033	-2.600002
H	-1.125231	-0.863531	-3.017025
N	-0.295006	1.491222	-1.947172
O	0.381712	1.473858	-2.980127
O	-0.693004	2.523223	-1.410065
F	-2.952962	0.0	0.0
