14

C	0.0	0.0	0.0
C	-0.446123	-0.227438	-1.431646
F	1.406186	0.0	0.0
H	-0.137956	-1.245229	-1.693502
H	-0.28051	1.018378	0.302723
H	-1.539284	-0.177145	-1.381167
N	-0.547533	-1.01452	0.840922
H	-1.574039	-0.859973	0.64363
H	-0.387971	-0.733117	1.803209
C	0.146291	0.778582	-2.410632
H	-0.151754	1.798101	-2.144835
H	-0.204261	0.58987	-3.431222
H	1.23848	0.736832	-2.415889
F	-2.862187	0.0	0.0
