14

C	0.0	0.0	0.0
C	-0.185588	0.143746	-1.541736
F	1.404439	0.0	0.0
H	0.233746	-0.794615	-1.935881
H	-0.329045	0.897325	0.526905
H	0.520418	0.927013	-1.846874
N	-0.601975	-1.119635	0.62363
H	-1.621304	-0.831552	0.554317
H	-0.489004	-1.918078	0.003802
C	-1.535381	0.410256	-2.196792
H	-2.310755	-0.234816	-1.790766
H	-1.419303	0.314385	-3.285333
H	-1.880929	1.42073	-1.969607
F	-2.925463	0.0	0.0
