16

C	0.0	0.0	0.0
C	-0.375937	0.158963	-1.512592
Cl	1.797659	0.0	0.0
H	0.50807	-0.135873	-2.087112
C	-0.449188	1.132283	0.81237
N	-0.549747	2.088467	1.490821
C	-0.41317	-1.244643	0.655176
N	-0.50302	-2.217191	1.310455
C	-0.786468	1.57027	-1.858389
H	-1.722269	1.770187	-1.342795
H	-0.923068	1.66613	-2.935595
H	-0.01225	2.27137	-1.536326
N	-1.386333	-0.843331	-2.000797
O	-2.276647	-0.458766	-2.74745
O	-1.126417	-2.017879	-1.758396
F	-2.262202	0.0	0.0
