16

C	0.0	0.0	0.0
C	-0.538551	0.045612	-1.444618
Cl	1.786664	0.0	0.0
H	-1.646059	0.192237	-1.190491
C	-0.447892	1.11626	0.846216
N	-0.614327	2.010133	1.590943
C	-0.428894	-1.254386	0.633552
N	-0.5927	-2.294102	1.156021
C	-0.294646	-1.233713	-2.212416
H	0.767358	-1.494382	-2.259088
H	-0.845272	-2.04064	-1.728041
H	-0.670446	-1.123543	-3.227961
N	-0.019344	1.227747	-2.171498
O	-0.031004	1.186777	-3.405626
O	0.320942	2.215872	-1.519304
F	-2.547072	0.0	0.0
