11

C	0.0	0.0	0.0
C	-0.366494	0.313416	-1.482697
F	1.375119	0.0	0.0
H	0.579078	0.129788	-2.010601
H	-0.380134	-0.976628	0.290286
H	-0.366749	0.768142	0.676071
C	-0.649948	1.735599	-1.707118
N	-0.694798	2.889326	-1.926036
C	-1.322639	-0.561213	-2.167192
N	-1.816647	-1.307768	-2.927762
Br	-3.231526	0.0	0.0
