11

C	0.0	0.0	0.0
C	-0.500096	-0.001796	-1.4425
F	1.372627	0.0	0.0
H	-1.611834	-0.001942	-1.364921
H	-0.36198	-0.892524	0.51069
H	-0.361972	0.893849	0.508374
C	-0.055536	-1.199386	-2.159251
N	0.289258	-2.171862	-2.71926
C	-0.055673	1.194382	-2.161693
N	0.288283	2.165953	-2.723752
Br	-3.529823	0.0	0.0
