11

C	0.0	0.0	0.0
C	-0.405165	0.05407	-1.501947
F	1.375188	0.0	0.0
H	0.560395	0.066169	-2.028872
H	-0.370177	-0.906489	0.4713
H	-0.367126	0.871855	0.534134
C	-1.065301	1.299867	-1.906142
N	-1.369011	2.354903	-2.3247
C	-1.080937	-1.149697	-1.99697
N	-1.398696	-2.165928	-2.491956
Br	-3.216066	0.0	0.0
