15

C	-0.419873	0.016481	-1.46066
C	0.0	0.0	0.0
F	-1.825937	0.088655	-1.527411
H	1.09542	0.0	0.0
H	-0.138079	-0.934447	-1.923607
C	0.17856	1.181608	-2.206566
H	-0.132568	1.157086	-3.254531
H	1.268371	1.120793	-2.14179
H	-0.148469	2.113284	-1.745871
C	-0.485368	-1.230124	0.651798
N	-0.886399	-2.181682	1.212805
N	-0.45213	1.212695	0.675602
H	0.087341	1.333443	1.524491
H	-1.431834	1.128163	0.920411
Cl	3.369766	0.0	0.0
