15

C	-0.431608	-0.078128	-1.472397
C	0.0	0.0	0.0
F	-0.173262	1.167014	-2.050902
H	1.096781	0.0	0.0
H	-1.519615	-0.219784	-1.540678
C	0.327257	-1.137314	-2.236211
H	1.397688	-0.957226	-2.118001
H	0.058694	-1.103804	-3.294922
H	0.096082	-2.129871	-1.845842
C	-0.488344	-1.210813	0.671807
N	-0.937516	-2.183947	1.15215
N	-0.462766	1.186018	0.712747
H	-1.384823	1.45025	0.383461
H	0.174053	1.936429	0.477375
Cl	3.383656	0.0	0.0
