15

C	-0.431434	0.014089	-1.457149
C	0.0	0.0	0.0
F	-1.837938	0.075095	-1.512713
H	1.100225	0.0	0.0
H	-0.145067	-0.93398	-1.923493
C	0.14947	1.18622	-2.205741
H	1.239556	1.138337	-2.148734
H	-0.168115	1.159943	-3.251076
H	-0.186515	2.112509	-1.741752
C	-0.479386	-1.228318	0.657638
N	-0.871422	-2.186645	1.21347
N	-0.442438	1.21428	0.682608
H	0.157562	1.36989	1.483399
H	-1.396275	1.107446	1.004276
Cl	3.349685	0.0	0.0
