15

C	-0.463641	-0.032034	-1.453274
C	0.0	0.0	0.0
F	-0.140621	1.211653	-2.015853
H	1.101958	0.0	0.0
H	-1.557358	-0.103634	-1.494001
C	0.226823	-1.113869	-2.249704
H	-0.043662	-1.026141	-3.304591
H	1.308404	-1.008754	-2.135332
H	-0.072324	-2.102356	-1.892045
C	-0.481362	-1.215056	0.662125
N	-0.879604	-2.186044	1.189313
N	-0.572025	1.178862	0.671176
H	-0.115161	1.254495	1.574742
H	-0.245689	1.97519	0.132824
Cl	3.412072	0.0	0.0
