15

C	-0.470107	0.040272	-1.454267
C	0.0	0.0	0.0
F	-0.062878	1.250547	-2.000773
H	1.094468	0.0	0.0
H	-1.567665	0.040629	-1.488507
C	0.131359	-1.079303	-2.275329
H	-0.135817	-0.950712	-3.326684
H	-0.230082	-2.053339	-1.938148
H	1.218207	-1.047429	-2.170914
C	-0.455392	-1.258558	0.605685
N	-0.896223	-2.229906	1.09979
N	-0.472962	1.165807	0.751664
H	-1.207973	0.909492	1.39801
H	0.307557	1.5285	1.284799
Cl	3.362142	0.0	0.0
