15

C	-0.427159	-0.079158	-1.472305
C	0.0	0.0	0.0
F	-0.131772	1.156361	-2.057409
H	1.096691	0.0	0.0
H	-1.518689	-0.190716	-1.544325
C	0.30536	-1.162899	-2.226822
H	0.049717	-1.119501	-3.288307
H	1.380238	-1.018156	-2.098107
H	0.034863	-2.147967	-1.840121
C	-0.494528	-1.205499	0.676428
N	-0.948735	-2.167795	1.173807
N	-0.460088	1.191955	0.705362
H	0.206985	1.926756	0.506874
H	-1.359243	1.484955	0.339532
Cl	3.378092	0.0	0.0
