15

C	-0.506236	-0.00074	-1.43919
C	0.0	0.0	0.0
F	-0.161035	-1.213331	-2.034985
H	1.094151	0.0	0.0
H	0.033682	0.79045	-1.965463
C	-2.003391	0.172965	-1.563693
H	-2.293218	0.147325	-2.61664
H	-2.520353	-0.63837	-1.044493
H	-2.305791	1.13072	-1.138081
C	-0.502457	-1.178615	0.71871
N	-0.983565	-2.06236	1.325847
N	-0.400211	1.261166	0.641866
H	-1.232452	1.134815	1.203449
H	0.353898	1.549117	1.253246
Cl	3.349079	0.0	0.0
