17

C	0.0	0.0	0.0
C	-0.5196	-0.030892	-1.432055
Cl	1.798837	0.0	0.0
H	-1.611353	-0.048139	-1.264644
H	-0.253054	-0.960816	0.466184
N	-0.545816	1.133476	0.690139
H	-0.363944	1.025108	1.682979
H	-1.571534	0.99026	0.571173
C	-0.125315	-1.305488	-2.162709
H	-0.626051	-1.348964	-3.13548
H	-0.433142	-2.18936	-1.594159
H	0.954544	-1.362995	-2.332842
C	-0.149938	1.217601	-2.219721
H	-0.697438	1.23388	-3.168187
H	-0.409905	2.112927	-1.653657
H	0.921831	1.249265	-2.443256
H	-3.152286	0.0	0.0
