15

C	-0.289267	-0.048102	-1.48447
C	0.0	0.0	0.0
Br	-2.23855	-0.21286	-1.87066
H	1.106345	0.0	0.0
H	-0.053233	0.930809	-1.90645
N	0.396323	-1.173582	-2.065376
H	1.362115	-1.136714	-1.734901
H	0.400608	-1.100067	-3.075026
N	-0.52165	-1.19299	0.674988
H	0.137099	-1.434258	1.4082
H	-0.502325	-1.960426	0.009667
N	-0.479314	1.235205	0.584193
H	0.147728	1.499368	1.3342
H	-1.390009	1.040953	0.985691
Cl	3.442283	0.0	0.0
