15

C	-0.555501	-0.006821	-1.420204
C	0.0	0.0	0.0
Br	-0.026937	1.575991	-2.427884
H	1.097876	0.0	0.0
H	-0.082238	-0.824947	-1.976023
N	-2.002873	-0.072538	-1.367207
H	-2.376701	-0.219689	-2.296896
H	-2.210715	-0.879963	-0.785928
N	-0.468714	-1.300973	0.582202
H	-0.352495	-1.215647	1.587074
H	0.205529	-2.008431	0.297536
N	-0.485359	1.134425	0.730634
H	-1.485392	1.071113	0.871221
H	0.003547	1.2258	1.610557
Cl	3.540017	0.0	0.0
