15

C	-0.515414	-0.148927	-1.431955
C	0.0	0.0	0.0
Br	0.053422	1.462694	-2.525949
H	1.095239	0.0	0.0
H	-0.006587	-0.961236	-1.949093
N	-1.923559	-0.311346	-1.424732
H	-2.309081	0.447858	-0.872368
H	-2.318745	-0.304006	-2.354521
N	-0.399204	-1.160179	0.788452
H	-1.19464	-1.6238	0.372098
H	0.38444	-1.795715	0.856902
N	-0.630775	1.188446	0.590979
H	-0.557304	1.043576	1.589658
H	-0.069091	2.003787	0.364994
Cl	3.512436	0.0	0.0
