15

C	-0.42538	0.069707	-1.469934
C	0.0	0.0	0.0
Br	-0.191018	-1.711707	-2.40719
H	1.097541	0.0	0.0
H	-1.504455	0.226085	-1.567841
N	0.290598	1.116884	-2.102457
H	1.288864	0.974504	-1.968356
H	0.08537	1.1676	-3.090161
N	-0.496558	-1.182667	0.661195
H	-0.06899	-1.202283	1.579545
H	-1.500112	-1.095333	0.798978
N	-0.422283	1.231262	0.686139
H	-1.412511	1.386037	0.50242
H	0.078142	2.011185	0.272459
Cl	3.500726	0.0	0.0
