15

C	-0.641825	-0.010483	-1.38273
C	0.0	0.0	0.0
Br	0.277518	-1.252467	-2.567065
H	1.097698	0.0	0.0
H	-1.64507	-0.444746	-1.27286
N	-0.635248	1.309623	-1.993619
H	-0.91646	1.236005	-2.963572
H	-1.331847	1.859302	-1.500825
N	-0.440559	-1.18302	0.715024
H	0.27343	-1.463081	1.374476
H	-1.297588	-0.972084	1.214627
N	-0.494631	1.231979	0.667069
H	-0.160222	1.173838	1.624672
H	0.030003	2.000866	0.25567
Cl	3.548045	0.0	0.0
