14

C	-0.330501	-0.001478	-1.498112
C	0.0	0.0	0.0
Br	-2.269415	-0.07885	-1.810132
H	1.099269	0.0	0.0
H	0.060333	-0.933604	-1.910086
C	0.281149	1.197394	-2.193218
H	0.125292	1.13424	-3.272285
H	1.354936	1.200736	-1.975651
H	-0.162855	2.126324	-1.828259
C	-0.478366	-1.199203	0.681633
N	-0.84566	-2.175059	1.221965
C	-0.48226	1.206009	0.668007
N	-0.852708	2.188851	1.193645
Br	3.356198	0.0	0.0
