14

C	-0.466094	-0.048679	-1.471628
C	0.0	0.0	0.0
Br	0.024552	1.625834	-2.351544
H	1.097221	0.0	0.0
H	-1.557383	-0.080053	-1.518184
C	0.172753	-1.220967	-2.194256
H	1.258864	-1.164714	-2.091451
H	-0.098308	-1.211368	-3.251264
H	-0.176918	-2.159645	-1.753599
C	-0.460509	-1.216647	0.674958
N	-0.834957	-2.210601	1.177397
C	-0.508484	1.167	0.718656
N	-0.940623	2.090309	1.302154
Br	3.374305	0.0	0.0
