17

C	-0.583363	0.223854	-1.404971
C	0.0	0.0	0.0
Br	0.023058	-1.304238	-2.503715
H	1.09867	0.0	0.0
C	-2.106453	0.224389	-1.41761
H	-2.451042	-0.686077	-0.925519
H	-2.464261	1.104947	-0.877675
H	-2.488942	0.254411	-2.438788
C	-0.058213	1.399576	-2.097178
N	0.271493	2.325509	-2.743946
N	-0.428613	-1.268421	0.549637
H	0.424382	-1.766387	0.776083
H	-0.908301	-1.103764	1.425333
N	-0.408661	1.116677	0.8841
O	-0.537513	2.24012	0.386962
O	-0.540705	0.889117	2.091577
F	2.499092	0.0	0.0
