17

C	-0.233481	-0.014715	-1.52723
C	0.0	0.0	0.0
Br	-2.136247	0.387992	-2.006988
H	1.095826	0.0	0.0
C	0.72374	0.900992	-2.281057
H	1.706233	0.699571	-1.83056
H	0.462965	1.942199	-2.107761
H	0.705231	0.681	-3.350243
C	-0.028718	-1.394451	-1.968601
N	0.152022	-2.493286	-2.348353
N	-0.507653	-1.093093	0.747696
H	0.172407	-1.83906	0.739038
H	-1.413559	-1.420256	0.4412
N	-0.519067	1.290359	0.548863
O	-1.463077	1.260303	1.337187
O	0.023601	2.324799	0.15738
F	2.573157	0.0	0.0
