17

C	-0.207506	0.347416	-1.488916
C	0.0	0.0	0.0
Br	-2.127145	0.73073	-1.920697
H	1.103076	0.0	0.0
C	0.690847	1.482562	-1.963782
H	1.682005	1.232345	-1.560842
H	0.693979	1.539942	-3.054033
H	0.360243	2.428917	-1.54155
C	0.105392	-0.866505	-2.24376
N	0.367023	-1.82588	-2.871216
N	-0.513751	-1.241794	0.457041
H	0.156922	-1.967894	0.250014
H	-1.426491	-1.469771	0.083812
N	-0.540717	1.116609	0.829272
O	0.04049	2.201649	0.766201
O	-1.544536	0.907727	1.51018
F	2.567509	0.0	0.0
