17

C	-0.583567	0.04038	-1.427309
C	0.0	0.0	0.0
Br	0.066062	-1.583716	-2.342947
H	1.089426	0.0	0.0
C	-2.10735	-0.007324	-1.425312
H	-2.420243	-0.875301	-0.842829
H	-2.496258	0.908969	-0.970419
H	-2.498515	-0.088794	-2.440755
C	-0.110652	1.143397	-2.262361
N	0.170551	1.985021	-3.033781
N	-0.428978	-1.186849	0.693218
H	0.410848	-1.599998	1.081474
H	-1.034526	-0.93483	1.463671
N	-0.447872	1.229677	0.716662
O	-0.85386	1.129001	1.880489
O	-0.36605	2.303007	0.11762
F	2.509494	0.0	0.0
