15

C	0.0	0.0	0.0
C	-0.444118	-0.106602	-1.467842
F	1.389118	0.0	0.0
H	-1.541995	-0.149778	-1.427725
H	-0.345347	0.962796	0.386633
N	-0.466801	-1.02552	0.872214
H	-0.346806	-1.931101	0.428893
H	-1.470339	-0.872867	0.988134
C	0.050254	-1.359715	-2.038438
N	0.436439	-2.369685	-2.49827
C	0.009007	1.09157	-2.30268
H	-0.414688	2.003496	-1.874547
H	1.097832	1.172229	-2.305127
H	-0.342673	1.006419	-3.33282
Br	-3.694637	0.0	0.0
