15

C	0.0	0.0	0.0
C	-0.476393	-0.070942	-1.447766
F	1.408499	0.0	0.0
H	-1.576554	-0.086276	-1.387098
H	-0.330667	0.941635	0.443779
N	-0.491588	-1.081624	0.752089
H	-0.087106	-1.960594	0.463243
H	-0.414853	-0.944462	1.746735
C	-0.01433	-1.328951	-2.036837
N	0.35716	-2.346637	-2.490571
C	0.017514	1.121737	-2.269093
H	1.108177	1.166807	-2.266977
H	-0.332848	1.054679	-3.300824
H	-0.378376	2.043175	-1.835766
Br	-3.920055	0.0	0.0
