15

C	0.0	0.0	0.0
C	-0.277198	-0.104899	-1.523322
F	1.380299	0.0	0.0
H	0.321308	-0.976359	-1.81319
H	-0.3065	0.974259	0.40041
N	-0.525118	-1.131735	0.692098
H	-1.523603	-1.180814	0.490517
H	-0.455405	-0.970418	1.689992
C	0.342526	1.060526	-2.166188
N	0.808389	1.996276	-2.700796
C	-1.702053	-0.283405	-2.036132
H	-2.142803	-1.206434	-1.661879
H	-2.364918	0.516748	-1.718253
H	-1.685996	-0.326352	-3.128002
Br	-4.402934	0.0	0.0
