15

C	0.0	0.0	0.0
C	-0.285644	-0.711586	-1.350175
F	1.390817	0.0	0.0
H	0.221713	-1.682511	-1.256564
H	-0.338942	1.037762	-0.028238
N	-0.533862	-0.630053	1.152378
H	-1.502343	-0.341912	1.270261
H	-0.517862	-1.638497	1.056179
C	0.402204	0.010516	-2.427039
N	0.940455	0.609561	-3.281331
C	-1.749666	-0.931433	-1.706034
H	-1.821157	-1.465373	-2.657005
H	-2.299395	0.004476	-1.779108
H	-2.263273	-1.508277	-0.939589
Br	-4.524569	0.0	0.0
