15

C	0.0	0.0	0.0
C	-0.295122	0.332377	-1.485216
F	1.390756	0.0	0.0
H	0.212264	-0.465942	-2.045868
H	-0.334916	0.807755	0.65589
N	-0.533777	-1.226722	0.469633
H	-0.546462	-1.924909	-0.263813
H	-1.490767	-1.080483	0.780943
C	0.382362	1.582663	-1.847395
N	0.889378	2.588155	-2.180153
C	-1.764922	0.389615	-1.881212
H	-2.275002	-0.544085	-1.654903
H	-1.851533	0.587398	-2.952972
H	-2.306193	1.156574	-1.331351
Br	-4.567658	0.0	0.0
