15

C	-0.279859	-0.011347	-1.489099
C	0.0	0.0	0.0
Cl	-0.200759	1.687162	-2.178371
H	1.094209	0.0	0.0
H	-0.312614	-0.983055	0.368765
N	0.593966	-0.922157	-2.093535
H	1.538961	-0.774469	-1.714526
H	0.576135	-0.860688	-3.102312
N	-1.712112	-0.436033	-1.840297
O	-2.538372	-0.464652	-0.932545
O	-1.937695	-0.735486	-3.008607
N	-0.555684	1.111784	0.739281
H	-1.306995	0.803724	1.337768
H	0.181118	1.506431	1.308984
H	2.904301	0.0	0.0
