15

C	-0.353045	-0.009967	-1.471044
C	0.0	0.0	0.0
Cl	-0.144926	1.632495	-2.155112
H	1.092787	0.0	0.0
H	-0.404906	0.873305	0.515849
N	0.402245	-0.938055	-2.242923
H	0.214251	-1.845796	-1.822856
H	1.379785	-0.724105	-2.019481
N	-1.851276	-0.328788	-1.632187
O	-2.600769	0.193247	-0.811683
O	-2.207189	-1.069913	-2.541889
N	-0.421637	-1.287519	0.551751
H	0.326387	-1.632026	1.143413
H	-1.259064	-1.182158	1.110949
H	2.897472	0.0	0.0
