15

C	-0.317097	-0.063192	-1.48191
C	0.0	0.0	0.0
Cl	-0.019107	1.510532	-2.241029
H	1.099936	0.0	0.0
H	-0.336291	-0.95346	0.421008
N	0.463671	-1.057474	-2.166361
H	0.237703	-1.949854	-1.737793
H	1.435855	-0.851094	-1.912749
N	-1.796198	-0.430447	-1.677351
O	-2.612715	0.406086	-2.03322
O	-2.059556	-1.597926	-1.384877
N	-0.660029	1.103125	0.694304
H	-0.649904	0.887708	1.684239
H	-0.070055	1.921316	0.583511
H	2.939818	0.0	0.0
