15

C	-0.637545	-0.001338	-1.369193
C	0.0	0.0	0.0
Cl	-0.046318	-1.37707	-2.336743
H	1.091415	0.0	0.0
H	-0.335397	-0.931745	0.465157
N	-2.051508	-0.032055	-1.286927
H	-2.456458	0.192706	-2.187547
H	-2.297344	0.671194	-0.594423
N	-0.19908	1.257783	-2.168415
O	0.674503	1.975975	-1.702862
O	-0.810362	1.464955	-3.218275
N	-0.544069	1.153391	0.746465
H	0.186545	1.858065	0.741074
H	-0.666356	0.876885	1.712388
H	2.977963	0.0	0.0
