15

C	-0.569925	0.022658	-1.398432
C	0.0	0.0	0.0
Cl	-0.037899	1.445696	-2.307937
H	1.096912	0.0	0.0
H	-0.352594	-0.929127	0.460301
N	-0.259537	-1.14434	-2.127821
H	-0.716089	-1.163276	-3.030516
H	-0.489097	-1.967246	-1.587589
N	-2.133711	0.156756	-1.223073
O	-2.649174	-0.854625	-0.744071
O	-2.737703	1.168837	-1.540232
N	-0.540282	1.138455	0.760666
H	-0.498922	0.889779	1.741483
H	0.128506	1.894183	0.64852
H	2.960228	0.0	0.0
