15

C	-0.618281	-0.002834	-1.382526
C	0.0	0.0	0.0
Cl	0.232651	-1.251704	-2.413985
H	1.091843	0.0	0.0
H	-0.371696	0.889478	0.512984
N	-2.012832	-0.193064	-1.325177
H	-2.388829	-0.422369	-2.235735
H	-2.162315	-0.938344	-0.65239
N	-0.408034	1.313388	-2.117691
O	-0.932964	1.403533	-3.224465
O	0.207606	2.202755	-1.545199
N	-0.489813	-1.215506	0.689496
H	0.256988	-1.899039	0.606044
H	-0.552038	-1.003708	1.677654
H	2.945269	0.0	0.0
