16

C	0.0	0.0	0.0
C	-0.219984	-0.013345	-1.572649
F	1.365698	0.0	0.0
H	0.56631	-0.711529	-1.889821
C	-0.517195	1.132649	0.744927
N	-0.547111	2.127213	1.384131
N	-0.384095	-1.286501	0.664379
O	-0.336023	-2.298886	-0.04745
O	-0.478347	-1.29939	1.893385
N	0.028294	1.362928	-1.993184
H	-0.170028	1.395943	-2.985014
H	0.999763	1.605149	-1.837772
N	-1.440809	-0.446001	-2.186769
H	-1.491838	-1.449637	-2.048194
H	-2.172545	-0.078693	-1.557852
H	-2.226691	0.0	0.0
