16

C	0.0	0.0	0.0
C	-0.482921	-0.143203	-1.466923
F	1.348106	0.0	0.0
H	-1.32337	-0.831816	-1.431143
C	-0.501014	1.164371	0.729519
N	-0.528064	2.176924	1.33708
N	-0.344597	-1.25696	0.801148
O	-0.453539	-2.311069	0.183856
O	-0.275495	-1.153138	2.023797
N	0.578915	-0.721101	-2.270507
H	0.16483	-1.175095	-3.073394
H	1.1859	0.023923	-2.592508
N	-0.870338	1.18873	-1.934605
H	-1.717564	1.393683	-1.395411
H	-1.169137	1.075933	-2.899884
H	-2.496596	0.0	0.0
