16

C	0.0	0.0	0.0
C	-0.189802	0.12857	-1.566595
F	1.368929	0.0	0.0
H	0.53034	-0.622871	-1.915211
C	-0.459439	1.160515	0.764622
N	-0.585705	2.199706	1.31039
N	-0.640738	-1.20597	0.531909
O	-0.636711	-1.335655	1.784277
O	-0.636605	-2.205587	-0.256654
N	0.247877	1.428448	-2.054622
H	-0.429343	2.11199	-1.728826
H	1.144669	1.655759	-1.643729
N	-1.511121	-0.088061	-2.111087
H	-1.382181	-0.156006	-3.11814
H	-1.824359	-0.990054	-1.768653
H	-1.953902	0.0	0.0
