18

C	-0.568836	0.005037	-1.403048
C	0.0	0.0	0.0
F	0.026323	-1.032317	-2.122623
H	1.095408	0.0	0.0
N	-1.973377	-0.091444	-1.415482
H	-2.295572	-0.307455	-2.349757
H	-2.195747	-0.839812	-0.766229
N	-0.20776	1.2251	-2.241543
O	-0.695153	1.235166	-3.373483
O	0.528386	2.085562	-1.776454
N	-0.451894	-1.306671	0.555848
H	0.271962	-1.972639	0.298734
H	-0.389671	-1.225296	1.565167
C	-0.530345	1.121191	0.872662
H	-1.606656	1.025621	1.04137
H	-0.007187	1.077217	1.832483
H	-0.319366	2.094994	0.435509
H	2.936509	0.0	0.0
