18

C	-0.264479	0.147637	-1.507523
C	0.0	0.0	0.0
F	-1.456881	0.779785	-1.779093
H	1.094565	0.0	0.0
N	0.775514	0.799671	-2.230545
H	1.669128	0.567201	-1.769642
H	0.631316	1.797108	-2.126442
N	-0.420797	-1.259827	-2.090523
O	0.615415	-1.873977	-2.306943
O	-1.559616	-1.703839	-2.224909
N	-0.497131	-1.196327	0.657099
H	0.140356	-1.960723	0.469323
H	-1.418942	-1.451414	0.32262
C	-0.467887	1.249316	0.7277
H	-0.101	2.157895	0.242093
H	-0.058824	1.215288	1.738839
H	-1.559367	1.299833	0.786011
H	2.892023	0.0	0.0
