18

C	-0.49141	-0.010407	-1.431373
C	0.0	0.0	0.0
F	-1.895586	-0.306656	-1.442035
H	1.091748	0.0	0.0
N	-0.203527	1.134256	-2.167412
H	-0.408443	1.977465	-1.660307
H	-0.628436	1.108376	-3.082614
N	0.029886	-1.183801	-2.269635
O	0.613825	-2.10606	-1.718983
O	-0.223862	-1.122639	-3.474287
N	-0.456109	-1.150473	0.776629
H	0.217862	-1.892642	0.635923
H	-1.35499	-1.46985	0.436709
C	-0.438767	1.291062	0.688989
H	0.127461	2.153507	0.324863
H	-0.20239	1.173947	1.746274
H	-1.514508	1.477013	0.59123
H	2.914017	0.0	0.0
