18

C	-0.36442	0.11167	-1.468016
C	0.0	0.0	0.0
F	-1.666146	0.53818	-1.6807
H	1.094386	0.0	0.0
N	0.537153	0.977607	-2.103823
H	1.480268	0.802137	-1.745176
H	0.517253	0.883179	-3.10824
N	-0.366555	-1.311565	-2.090116
O	0.733227	-1.738731	-2.427347
O	-1.428009	-1.913311	-2.188838
N	-0.431994	-1.256995	0.590934
H	0.3172	-1.585278	1.186481
H	-1.262072	-1.130435	1.152671
C	-0.461711	1.244524	0.743752
H	0.004581	1.249002	1.732765
H	-0.155183	2.149602	0.216316
H	-1.551026	1.260243	0.85931
H	2.85422	0.0	0.0
