18

C	-0.589112	-0.010847	-1.405504
C	0.0	0.0	0.0
F	-0.041914	-1.058484	-2.084972
H	1.097781	0.0	0.0
N	-2.012486	-0.116472	-1.50249
H	-2.269138	-0.768016	-0.765012
H	-2.412425	0.78978	-1.29506
N	-0.193278	1.246715	-2.174872
O	0.755937	1.182076	-2.939389
O	-0.871871	2.253047	-1.952391
N	-0.482757	-1.273833	0.587588
H	-0.370722	-1.191303	1.593087
H	0.191925	-1.980533	0.302906
C	-0.481027	1.160651	0.847672
H	-1.565612	1.140449	1.00237
H	-0.200927	2.119405	0.412463
H	0.014962	1.092473	1.820565
H	2.918776	0.0	0.0
