18

C	-0.306884	0.162065	-1.487568
C	0.0	0.0	0.0
F	-1.51791	0.786197	-1.739575
H	1.094393	0.0	0.0
N	0.737111	0.866214	-2.09294
H	1.636103	0.620433	-1.657883
H	0.769543	0.752856	-3.096386
N	-0.516065	-1.247827	-2.10261
O	-1.657213	-1.65988	-2.273915
O	0.512481	-1.867233	-2.355451
N	-0.468586	-1.268012	0.540028
H	0.298465	-1.68472	1.053347
H	-1.243636	-1.127203	1.176128
C	-0.469481	1.223819	0.767316
H	-0.158025	2.140052	0.262432
H	-1.559973	1.237705	0.870113
H	-0.01343	1.208443	1.761003
H	2.872563	0.0	0.0
