18

C	-0.325035	-0.126475	-1.478086
C	0.0	0.0	0.0
F	0.025469	1.023115	-2.122041
H	1.096566	0.0	0.0
N	0.294027	-1.227082	-2.132025
H	1.293931	-1.084968	-1.966998
H	0.032194	-2.044448	-1.590393
N	-1.840739	-0.248604	-1.656436
O	-2.487873	0.797185	-1.716443
O	-2.325981	-1.377512	-1.628842
N	-0.367801	-1.247172	0.66726
H	0.38683	-1.490638	1.296902
H	-1.223017	-1.144554	1.200333
C	-0.524125	1.258364	0.664253
H	-0.063021	1.344128	1.652571
H	-0.258162	2.145719	0.087768
H	-1.614496	1.23988	0.782857
H	2.84505	0.0	0.0
