18

C	-0.511033	0.060572	-1.426304
C	0.0	0.0	0.0
F	-0.058056	-0.997809	-2.159054
H	1.093925	0.0	0.0
N	-1.931213	0.054676	-1.518059
H	-2.214973	0.100129	-2.490525
H	-2.302477	0.863122	-1.038329
N	0.073592	1.298546	-2.157128
O	-0.559753	2.349672	-2.010076
O	1.093658	1.166433	-2.814612
N	-0.374616	-1.28798	0.598609
H	-1.151724	-1.697171	0.095424
H	0.431623	-1.89525	0.491023
C	-0.496184	1.144407	0.869798
H	-0.280277	2.125204	0.441396
H	-1.569438	1.061074	1.078323
H	0.032737	1.06328	1.820755
H	2.885266	0.0	0.0
