14

C	0.0	0.0	0.0
C	-0.343693	-0.010339	-1.499451
F	1.3567	0.0	0.0
H	0.318852	-0.721191	-1.991692
H	-1.381757	-0.26367	-1.660859
C	-0.55741	1.108916	0.779181
N	-0.684916	2.064878	1.461825
N	-0.547713	-1.272628	0.575874
O	-0.56196	-1.358374	1.815001
O	-0.542121	-2.251766	-0.200791
N	-0.104193	1.299916	-2.176231
O	0.531772	2.178862	-1.602327
O	-0.554431	1.384918	-3.318127
H	-2.176617	0.0	0.0
