14

C	0.0	0.0	0.0
C	-0.559783	0.121999	-1.394699
F	1.346231	0.0	0.0
H	-0.421599	-0.813288	-1.931137
H	-1.719935	0.264174	-1.05806
C	-0.514487	0.93685	1.006663
N	-0.680533	1.67892	1.909414
N	-0.304612	-1.4516	0.462162
O	0.32354	-2.317481	-0.163228
O	-1.03621	-1.622593	1.433427
N	0.128296	1.155055	-2.142775
O	0.31287	2.238969	-1.565948
O	0.42681	0.930582	-3.327249
H	-2.639529	0.0	0.0
