14

C	-0.618894	-0.019586	-1.375777
C	0.0	0.0	0.0
Br	0.069415	-1.443037	-2.501203
H	1.092091	0.0	0.0
H	-1.699452	-0.14966	-1.356068
H	-0.315863	-0.93182	0.48454
N	-0.436012	1.306028	-2.07236
O	-1.426897	2.043421	-2.036157
O	0.647662	1.589958	-2.558283
C	-0.472607	1.204951	0.810806
H	-0.05748	2.128739	0.401286
H	-0.082473	1.107941	1.826855
H	-1.562334	1.30589	0.856392
H	2.958028	0.0	0.0
