14

C	-0.377739	0.060449	-1.437596
C	0.0	0.0	0.0
Br	-2.322396	0.212739	-1.798788
H	1.096867	0.0	0.0
H	0.076663	0.897155	-1.964469
H	-0.360726	-0.929625	0.444173
N	0.066136	-1.166134	-2.189058
O	-0.137327	-2.258657	-1.672514
O	0.590072	-0.975497	-3.284015
C	-0.44676	1.226369	0.780826
H	-1.532267	1.289443	0.898335
H	0.01641	1.200181	1.770124
H	-0.096306	2.139727	0.290742
H	2.864605	0.0	0.0
