15

C	-0.26983	-0.030937	-1.517785
C	0.0	0.0	0.0
Br	0.070478	1.862756	-2.225345
H	1.097003	0.0	0.0
N	0.651049	-0.960708	-2.035037
H	0.679408	-0.948462	-3.046849
H	1.585996	-0.786124	-1.630619
N	-1.656216	-0.262747	-1.846018
H	-1.801476	-0.107613	-2.837064
H	-1.841184	-1.242788	-1.643664
C	-0.450663	-1.257419	0.577626
N	-0.804478	-2.280125	1.039255
C	-0.569167	1.120948	0.719413
N	-0.985047	2.014743	1.360598
H	2.567897	0.0	0.0
