15

C	-0.284244	-0.012299	-1.51258
C	0.0	0.0	0.0
Br	0.1065	1.873612	-2.205012
H	1.096912	0.0	0.0
N	0.607774	-0.965247	-2.046846
H	1.550201	-0.808582	-1.65621
H	0.627317	-0.938931	-3.057296
N	-1.678937	-0.203753	-1.829165
H	-1.834376	-0.033763	-2.816753
H	-1.893021	-1.177961	-1.630236
C	-0.449634	-1.259808	0.5721
N	-0.795567	-2.283378	1.03792
C	-0.561811	1.116706	0.732393
N	-0.970071	2.001923	1.390061
H	2.561068	0.0	0.0
