15

C	-0.325137	0.009825	-1.500899
C	0.0	0.0	0.0
Br	0.091101	-1.858992	-2.219088
H	1.096909	0.0	0.0
N	-1.735255	0.163451	-1.767862
H	-1.927464	-0.020412	-2.746162
H	-1.970625	1.131987	-1.56375
N	0.521118	0.991117	-2.058222
H	1.478631	0.859011	-1.701901
H	0.504958	0.972265	-3.070279
C	-0.544525	-1.121789	0.740297
N	-0.936726	-2.009237	1.404562
C	-0.449128	1.253462	0.587864
N	-0.792688	2.270686	1.069191
H	2.561562	0.0	0.0
