15

C	-0.353158	-0.069582	-1.48015
C	0.0	0.0	0.0
Br	0.310462	1.88792	-2.270743
H	1.095353	0.0	0.0
N	0.419587	-1.055787	-2.061481
H	0.333406	-1.095515	-3.067078
H	1.393458	-0.943066	-1.762746
N	-1.730422	-0.127486	-1.756967
H	-2.198492	0.621636	-1.261529
H	-1.911686	-0.006679	-2.746875
C	-0.423989	-1.227567	0.659285
N	-0.705076	-2.224474	1.216841
C	-0.54483	1.150397	0.691284
N	-0.957306	2.073717	1.293418
H	2.501098	0.0	0.0
