15

C	-0.47647	0.019723	-1.458033
C	0.0	0.0	0.0
Br	0.51547	-1.474005	-2.401719
H	1.093745	0.0	0.0
N	-1.889882	-0.177598	-1.552443
H	-2.178308	-1.011554	-1.052013
H	-2.157672	-0.273112	-2.526584
N	-0.048781	1.239407	-2.093131
H	0.083625	1.106877	-3.085714
H	-0.75575	1.946453	-1.922766
C	-0.494783	-1.163353	0.711648
N	-0.900883	-2.116605	1.270796
C	-0.440762	1.22106	0.651715
N	-0.766075	2.237419	1.147814
H	2.503797	0.0	0.0
