16

C	0.0	0.0	0.0
C	-0.31928	-0.004595	-1.55815
F	1.377733	0.0	0.0
H	-0.398335	1.041528	-1.858049
C	-0.47587	1.22242	0.64785
N	-0.555215	2.277224	1.163692
C	-0.447408	-1.221014	0.68023
N	-0.549586	-2.255877	1.228927
C	-1.43194	-0.835616	-2.172868
H	-1.263696	-0.871947	-3.255896
H	-1.422125	-1.850545	-1.774698
H	-2.379674	-0.377006	-1.923406
N	0.943572	-0.488478	-2.241514
O	1.214166	-1.681022	-2.124996
O	1.592433	0.32179	-2.903109
F	-2.275707	0.0	0.0
