16

C	0.0	0.0	0.0
C	-0.457959	0.192588	-1.463523
F	1.357513	0.0	0.0
H	-1.508237	0.508843	-1.364253
C	-0.457612	1.061068	0.920605
N	-0.588479	1.888712	1.744696
C	-0.458261	-1.299374	0.528268
N	-0.549649	-2.389664	0.959198
C	-0.326437	-1.079212	-2.27124
H	0.681714	-1.50234	-2.195723
H	-1.055395	-1.79491	-1.885469
H	-0.543998	-0.884888	-3.320213
N	0.339099	1.311112	-2.065553
O	0.653929	1.234893	-3.255497
O	0.561249	2.28937	-1.356407
F	-2.419263	0.0	0.0
