16

C	0.0	0.0	0.0
C	-0.504233	-0.115977	-1.459381
Cl	1.791653	0.0	0.0
H	0.2936	0.320079	-2.070989
H	-0.301446	0.959036	0.426099
C	-0.451452	-1.072328	0.882048
N	-0.747399	-1.965804	1.584123
C	-1.771334	0.704677	-1.671097
H	-1.578045	1.767652	-1.492097
H	-2.099908	0.598445	-2.709399
H	-2.607556	0.39132	-1.037555
C	-0.687757	-1.571944	-1.873179
H	-0.865623	-1.627361	-2.950412
H	0.195686	-2.175656	-1.643963
H	-1.554247	-2.00199	-1.36701
Cl	-4.794739	0.0	0.0
