16

C	0.0	0.0	0.0
C	-0.521401	-0.094478	-1.435274
Cl	1.793328	0.0	0.0
H	-1.607957	-0.124453	-1.295004
H	-0.343105	0.923654	0.46867
C	-0.402881	-1.140921	0.824665
N	-0.632009	-2.060203	1.518889
C	-0.069077	-1.367189	-2.142169
H	-0.568547	-1.435504	-3.112945
H	-0.336928	-2.25714	-1.566772
H	1.011601	-1.378433	-2.316312
C	-0.161506	1.154553	-2.229709
H	0.919792	1.262911	-2.355536
H	-0.611778	1.10014	-3.223808
H	-0.548808	2.053083	-1.741341
Cl	-3.544178	0.0	0.0
