16

C	0.0	0.0	0.0
C	-0.534096	0.071526	-1.462283
Cl	1.793119	0.0	0.0
H	0.353757	0.080432	-2.103265
H	-0.30896	0.87884	0.567625
C	-0.406974	-1.195817	0.73747
N	-0.652354	-2.1767	1.334172
C	-1.300889	1.379006	-1.65118
H	-0.694209	2.244391	-1.362367
H	-1.57993	1.49914	-2.702187
H	-2.222825	1.35223	-1.063501
C	-1.395124	-1.129849	-1.850254
H	-2.315654	-1.144145	-1.260951
H	-1.674523	-1.033582	-2.903549
H	-0.852722	-2.071252	-1.72625
Cl	-4.271742	0.0	0.0
