16

C	0.0	0.0	0.0
C	-0.578861	0.116435	-1.409503
Cl	1.793349	0.0	0.0
H	-1.662257	0.081382	-1.226713
H	-0.326756	0.848758	0.602841
C	-0.401748	-1.240758	0.667575
N	-0.614142	-2.267839	1.195635
C	-0.182702	-1.049327	-2.304875
H	-0.707221	-0.964972	-3.26065
H	0.893301	-1.063339	-2.505655
H	-0.467634	-2.004069	-1.856157
C	-0.234877	1.464945	-2.029699
H	-0.565867	2.284318	-1.385099
H	-0.754499	1.5699	-2.985965
H	0.839501	1.570707	-2.210374
Cl	-3.653044	0.0	0.0
