16

C	0.0	0.0	0.0
C	-0.538168	-0.171441	-1.452597
Cl	1.791773	0.0	0.0
H	0.347642	-0.244904	-2.092182
H	-0.307872	0.961535	0.413528
C	-0.410659	-1.053112	0.927979
N	-0.663986	-1.916534	1.682308
C	-1.330539	1.072784	-1.849324
H	-0.733083	1.983313	-1.725504
H	-1.625214	1.003744	-2.900817
H	-2.246096	1.13498	-1.254728
C	-1.371355	-1.437874	-1.635867
H	-0.806713	-2.334515	-1.363704
H	-1.655576	-1.523811	-2.68898
H	-2.28897	-1.380313	-1.045085
Cl	-4.265005	0.0	0.0
