15

C	-0.466504	0.103357	-1.444503
C	0.0	0.0	0.0
F	-1.868547	0.178976	-1.466876
H	1.08877	0.0	0.0
H	-0.397078	-0.90326	0.45769
C	0.096059	1.270137	-2.228631
H	-0.294806	2.199575	-1.820753
H	1.184564	1.272252	-2.139127
H	-0.198912	1.173048	-3.275155
C	-0.111589	-1.167157	-2.10736
N	0.119192	-2.186002	-2.641646
N	-0.517031	1.126295	0.811592
O	-0.147952	2.263102	0.524407
O	-1.288469	0.84875	1.73178
Br	3.444735	0.0	0.0
