15

C	-0.509475	-0.297338	-1.393187
C	0.0	0.0	0.0
F	-1.844483	0.106899	-1.517106
H	1.088524	0.0	0.0
H	-0.336748	1.003926	0.274997
C	0.325486	0.494288	-2.387169
H	-0.042117	0.316102	-3.400046
H	1.377871	0.211939	-2.302321
H	0.233558	1.557652	-2.154855
C	-0.461576	-1.731626	-1.728787
N	-0.400042	-2.860381	-2.045545
N	-0.535318	-0.908509	1.051256
O	-1.568174	-1.531866	0.799384
O	0.071782	-0.936606	2.116925
Br	3.482152	0.0	0.0
