15

C	-0.46024	-0.040179	-1.453536
C	0.0	0.0	0.0
F	-0.28042	1.228347	-2.002984
H	1.088544	0.0	0.0
H	-0.380506	-0.873115	0.532762
C	0.393042	-1.024763	-2.2305
H	0.119833	-0.992292	-3.286092
H	1.443195	-0.749567	-2.096647
H	0.24287	-2.039518	-1.852801
C	-1.897952	-0.362027	-1.593556
N	-3.021682	-0.670464	-1.746162
N	-0.570572	1.194887	0.671382
O	-1.755873	1.1159	1.009425
O	0.149871	2.173856	0.82524
Br	3.53139	0.0	0.0
