15

C	-0.48718	0.077348	-1.426479
C	0.0	0.0	0.0
F	-1.883921	0.215394	-1.426573
H	1.091609	0.0	0.0
H	-0.350206	0.880348	0.538505
C	0.128414	1.306622	-2.074923
H	-0.172015	2.195016	-1.515297
H	1.217252	1.219662	-2.049784
H	-0.220932	1.394945	-3.104836
C	-0.181399	-1.102376	-2.256385
N	0.03783	-1.946502	-3.042061
N	-0.513136	-1.164738	0.759532
O	-0.719702	-0.987431	1.958471
O	-0.67646	-2.227055	0.164532
Br	3.429443	0.0	0.0
