15

C	-0.580376	0.046689	-1.40853
C	0.0	0.0	0.0
F	-0.276867	-1.201267	-1.958256
H	1.088618	0.0	0.0
H	-0.359194	-0.904857	0.489646
C	-2.093252	0.191934	-1.439126
H	-2.393278	1.182232	-1.099183
H	-2.537973	-0.570525	-0.795354
H	-2.445296	0.043395	-2.461362
C	0.029855	1.065795	-2.28073
N	0.402726	1.871058	-3.049063
N	-0.451664	1.141067	0.825102
O	-0.651468	0.929998	2.019451
O	-0.567012	2.236745	0.273124
Br	3.427698	0.0	0.0
