15

C	-0.468332	-0.05067	-1.445576
C	0.0	0.0	0.0
F	-0.239737	1.198111	-2.016831
H	1.088547	0.0	0.0
H	-0.367763	-0.868468	0.551912
C	0.358626	-1.080172	-2.198915
H	0.097917	-1.045	-3.258367
H	1.417561	-0.847255	-2.055371
H	0.160144	-2.084645	-1.817227
C	-1.910254	-0.346776	-1.595505
N	-3.02461	-0.671072	-1.780992
N	-0.5354	1.201174	0.700372
O	-1.721976	1.469883	0.512112
O	0.222336	1.821414	1.437734
Br	3.553141	0.0	0.0
