18

C	-0.426786	0.004086	-1.445689
C	0.0	0.0	0.0
F	-0.191435	-1.175382	-2.042569
H	1.094878	0.0	0.0
N	-1.916662	0.268741	-1.569621
O	-2.6552	-0.706686	-1.424005
O	-2.274337	1.441688	-1.666083
N	0.219845	1.067782	-2.328569
O	0.778853	2.010707	-1.789999
O	0.116837	0.867623	-3.534566
N	-0.391543	-1.241659	0.655167
H	-1.329597	-1.524039	0.392263
H	0.25579	-1.968511	0.370204
C	-0.518059	1.186302	0.792316
H	-0.302738	2.135398	0.305844
H	-0.006238	1.162202	1.755392
H	-1.5973	1.110878	0.973599
H	2.722048	0.0	0.0
