18

C	-0.351539	-0.003087	-1.460657
C	0.0	0.0	0.0
F	0.287991	0.959714	-2.137224
H	1.095715	0.0	0.0
N	0.005675	-1.333713	-2.120086
O	1.19345	-1.504194	-2.327055
O	-0.912743	-2.106405	-2.373367
N	-1.844793	0.181976	-1.779398
O	-2.649208	-0.200271	-0.935782
O	-2.122036	0.704257	-2.853979
N	-0.412277	-1.251893	0.603324
H	-1.343014	-1.190502	0.991177
H	0.258519	-1.484241	1.324996
C	-0.461543	1.279457	0.679715
H	0.021386	1.330674	1.658826
H	-1.547869	1.304267	0.813823
H	-0.144959	2.160997	0.115527
H	2.792774	0.0	0.0
