18

C	-0.491321	0.006889	-1.410966
C	0.0	0.0	0.0
F	0.055632	0.988414	-2.142406
H	1.095733	0.0	0.0
N	-0.212551	-1.308421	-2.126757
O	-1.11299	-2.140564	-2.137176
O	0.901119	-1.414587	-2.616314
N	-2.015262	0.176265	-1.568805
O	-2.722089	-0.106071	-0.608201
O	-2.406792	0.586016	-2.656845
N	-0.361021	-1.242791	0.654215
H	-1.194827	-1.145581	1.217655
H	0.42536	-1.514057	1.23596
C	-0.380947	1.285721	0.725808
H	0.26212	1.35991	1.608142
H	-1.430663	1.298188	1.036497
H	-0.177092	2.164487	0.106624
H	2.732702	0.0	0.0
