18

C	-0.598925	0.033366	-1.371291
C	0.0	0.0	0.0
F	-1.95438	0.086158	-1.360116
H	1.090123	0.0	0.0
N	-0.153755	1.190658	-2.250328
O	0.760169	1.904435	-1.856205
O	-0.758839	1.293754	-3.316913
N	-0.213284	-1.194735	-2.181915
O	-1.067157	-2.04924	-2.356103
O	0.94447	-1.204399	-2.577155
N	-0.367601	-1.295494	0.567987
H	0.454845	-1.638451	1.058203
H	-1.135576	-1.209616	1.223893
C	-0.458647	1.190825	0.831532
H	-1.545906	1.202781	0.969488
H	0.024258	1.109693	1.808722
H	-0.139572	2.135328	0.38905
H	2.751131	0.0	0.0
