18

C	-0.406679	0.002525	-1.446537
C	0.0	0.0	0.0
F	-0.132167	1.168961	-2.048265
H	1.100693	0.0	0.0
N	0.273867	-1.083441	-2.27817
O	0.735391	-2.051973	-1.692105
O	0.283277	-0.884682	-3.488514
N	-1.892385	-0.262344	-1.64403
O	-2.242364	-1.419251	-1.84649
O	-2.62671	0.713242	-1.514093
N	-0.555683	-1.185659	0.664824
H	0.101316	-1.943202	0.510845
H	-0.541891	-0.994363	1.660055
C	-0.476042	1.260451	0.698054
H	0.000815	1.287087	1.682577
H	-0.159889	2.153449	0.160043
H	-1.563054	1.274856	0.820981
H	2.780281	0.0	0.0
