19

C	-0.497143	-0.130253	-1.441364
C	0.0	0.0	0.0
F	-1.839274	-0.42911	-1.437165
H	1.089214	0.0	0.0
N	-0.384105	1.264322	-2.055014
O	-1.410221	1.930253	-2.157668
O	0.746706	1.613603	-2.374717
C	0.25215	-1.096078	-2.320503
H	-0.060816	-0.959375	-3.358643
H	0.019647	-2.10988	-2.000278
H	1.324755	-0.926844	-2.214697
N	-0.434817	-1.253404	0.705371
O	-1.284869	-1.160359	1.591309
O	0.085986	-2.30719	0.347291
C	-0.519428	1.223729	0.723936
H	-0.036328	2.108143	0.305206
H	-0.236688	1.162348	1.774258
H	-1.602484	1.321327	0.650942
Br	3.453835	0.0	0.0
