19

C	-0.439844	-0.010564	-1.460884
C	0.0	0.0	0.0
F	0.115547	1.098432	-2.046324
H	1.091675	0.0	0.0
N	0.199228	-1.205554	-2.168853
O	-0.476304	-2.242702	-2.176072
O	1.338316	-1.075769	-2.581364
C	-1.918573	-0.004583	-1.760182
H	-2.069354	-0.058936	-2.840092
H	-2.339628	0.931416	-1.390924
H	-2.415624	-0.842527	-1.279966
N	-0.422293	-1.281459	0.651649
O	0.378356	-2.220771	0.621838
O	-1.619827	-1.428884	0.922471
C	-0.560618	1.170313	0.772887
H	-0.267068	2.097736	0.278839
H	-0.116831	1.170248	1.771284
H	-1.645939	1.120537	0.872591
Br	3.286812	0.0	0.0
