19

C	0.0	0.0	0.0
C	-0.378852	0.067109	-1.478839
F	1.433824	0.0	0.0
H	-0.04827	-0.898684	-1.906763
C	-0.462375	1.186411	0.808771
H	-1.545127	1.145035	0.939512
H	0.02159	1.16562	1.789783
H	-0.186668	2.105008	0.293045
N	-0.46733	-1.214497	0.563315
H	-0.319404	-1.239332	1.563413
H	-0.012177	-2.008169	0.130738
N	0.325165	1.199025	-2.088487
H	1.318379	1.003985	-2.110588
H	6e-05	1.305551	-3.042069
C	-1.874272	0.216455	-1.691298
H	-2.113513	0.081152	-2.75181
H	-2.462861	-0.493734	-1.113014
H	-2.209185	1.21191	-1.398138
Cl	-5.117044	0.0	0.0
