19

C	0.0	0.0	0.0
C	-0.40745	0.019885	-1.486271
F	1.408957	0.0	0.0
H	-1.500495	-0.015635	-1.48727
C	-0.439281	1.234058	0.759636
H	-0.186827	1.094323	1.813158
H	0.085329	2.114886	0.38722
H	-1.518667	1.363273	0.659618
N	-0.449021	-1.163337	0.714908
H	-0.341625	-1.97666	0.118886
H	-1.452992	-1.036954	0.85658
N	0.090863	-1.156047	-2.216892
H	1.026856	-1.370747	-1.889416
H	-0.501962	-1.955005	-2.030257
C	0.061624	1.272932	-2.215854
H	1.147392	1.381441	-2.136591
H	-0.41185	2.172656	-1.818818
H	-0.199538	1.179765	-3.271485
Cl	-3.735909	0.0	0.0
