19

C	0.0	0.0	0.0
C	-0.410987	-0.199335	-1.463571
F	1.419574	0.0	0.0
H	-1.500573	-0.298943	-1.43437
C	-0.445334	1.321787	0.582804
H	-1.52841	1.415248	0.480173
H	-0.178341	1.332059	1.641626
H	0.058325	2.151654	0.084931
N	-0.436101	-1.07485	0.842119
H	-1.4297	-0.921477	1.014349
H	-0.367459	-1.922878	0.286347
N	0.151041	-1.484095	-1.90228
H	-0.278884	-1.752875	-2.778859
H	1.144832	-1.363636	-2.063629
C	-0.026477	0.966782	-2.371789
H	-0.259633	0.719335	-3.412594
H	1.046138	1.172171	-2.297243
H	-0.578297	1.874209	-2.117446
Cl	-3.780244	0.0	0.0
