19

C	-0.305882	-0.013028	-1.459978
C	-0.014299	-0.174789	0.041843
Cl	0.383485	-1.614225	-2.257849
H	1.011127	-0.554506	0.09728
N	-1.687081	0.086931	-1.765307
H	-2.182374	-0.758383	-1.512663
H	-1.809719	0.251959	-2.756953
C	0.485551	1.123874	-2.068473
H	0.534336	1.02138	-3.156881
H	-0.039507	2.044486	-1.804169
H	1.477651	1.177373	-1.598173
C	-0.982405	-1.13705	0.713941
H	-1.041211	-2.096219	0.191993
H	-1.976584	-0.682731	0.766689
H	-0.64924	-1.334399	1.737689
N	-0.077069	1.152668	0.652825
H	0.910153	1.491567	0.520129
H	-0.199897	1.011335	1.651952
F	2.45643	1.402853	0.03379
