19

C	-0.445189	-0.039007	-1.407343
C	0.011661	-0.192843	0.053734
Cl	0.320497	-1.545029	-2.311505
H	1.074097	-0.463212	-0.002988
N	-1.853552	-0.079732	-1.571535
H	-2.091733	0.086355	-2.541807
H	-2.230209	-0.976893	-1.293957
C	0.158894	1.184772	-2.060407
H	0.106713	1.106703	-3.150696
H	1.183016	1.334314	-1.690213
H	-0.428497	2.040293	-1.719641
C	-0.778816	-1.262475	0.79242
H	-0.325305	-1.440386	1.772549
H	-1.804088	-0.916149	0.955134
H	-0.790949	-2.213903	0.253405
N	-0.125323	1.110763	0.702628
H	-0.130134	0.941643	1.704992
H	0.803516	1.553038	0.481265
F	2.293735	1.633517	-0.15661
