19

C	-0.71042	0.045868	-1.565287
C	0.13434	-0.015328	-0.284697
Cl	-0.049169	1.40618	-2.609121
H	1.175792	-0.147119	-0.612789
N	-0.525375	-1.159815	-2.349247
H	-1.187541	-1.1642	-3.118158
H	-0.731296	-1.949604	-1.749008
C	-2.163269	0.405002	-1.298355
H	-2.700415	0.547543	-2.241116
H	-2.632502	-0.414695	-0.746935
H	-2.214256	1.304775	-0.688077
C	-0.209348	-1.217199	0.598296
H	0.046794	-2.175491	0.133059
H	-1.265896	-1.210489	0.884448
H	0.405186	-1.06045	1.498389
N	-0.055632	1.180359	0.524098
H	0.421207	1.946755	0.05838
H	0.496328	0.965666	1.399955
F	1.43302	0.205571	2.450143
