13
Coordinates from ORCA-job run
  C   0.71073261063875      0.31213796537698     -0.16558481347818
  C   -0.53123652133179     -0.16349382092208      0.18459248059730
  N   1.75155786520210     -0.62020317887056     -0.59813138522597
  O   1.48577535939031     -1.82772797291486     -0.61004470010259
  O   2.83551654253020     -0.13983957623183     -0.90906956504002
  C   1.11315085401279      1.67193297408796     -0.20362414091432
  N   1.52577855836033      2.77265249786828     -0.27128092781548
  N   -0.96054043261405     -1.42274503606562      0.26402752146609
  H   -0.36498989159414     -2.15072363706267     -0.10162364587825
  H   -1.95300211107605     -1.56639897453406      0.37539602325754
  N   -1.60040577694139      0.81192991764604      0.58070639350357
  O   -1.27724586798141      1.97412570112038      0.78214755046496
  O   -2.73409118859564      0.34635314050202      0.67148920916536
