13
Coordinates from ORCA-job run
  C   0.72400259161391      0.30978671423925     -0.10543686192724
  C   -0.53802806222028     -0.16942013102887      0.14897631825040
  N   1.82725624678982     -0.62023867789885     -0.32494424802047
  O   2.92000930892473     -0.13499309351993     -0.59345203513476
  O   1.59859974484905     -1.83031153981671     -0.21668493701199
  C   1.07717586015794      1.67670490687297     -0.23562569071440
  N   1.42401320913644      2.79341817636032     -0.37218461030125
  N   -0.96235332888281     -1.42792779569345      0.28928795699498
  H   -0.30679062519277     -2.16370384116744      0.07023584945637
  H   -1.95982376390031     -1.57106972518455      0.23603354637007
  N   -1.65359233361521      0.81262503017477      0.32566831642315
  O   -1.37262566602377      1.93887555141731      0.71347675282619
  O   -2.77584318163674      0.38625442524517      0.06564964278896
