13
Coordinates from ORCA-job run
  C   0.71399193415773      0.32780933710714     -0.12406243032026
  C   -0.53380259285118     -0.17634317463288      0.14936583570368
  N   1.84622963128849     -0.57896869325773     -0.29803873024890
  O   2.93435932826122     -0.07102136955409     -0.54096037847457
  O   1.64089431731144     -1.79258584365072     -0.18618650868951
  C   1.02391626989052      1.69663776716310     -0.32994320095448
  N   1.33424133176856      2.81331700483740     -0.53637235899411
  N   -0.91722191524315     -1.43892924144789      0.34564321518834
  H   -1.90966704511378     -1.62095267352020      0.32568262149172
  H   -0.25030186462789     -2.16844559266442      0.14297737246462
  N   -1.67306033287898      0.77693996921141      0.30705182638296
  O   -1.41950360402519      1.92460512215252      0.65016148941218
  O   -2.78907545793778      0.30693738825635      0.09568124703833
