13
Coordinates from ORCA-job run
  C   0.80937435168491      0.06386785305311     -0.08607629056617
  C   -0.54462262898851     -0.05710057801139     -0.15143774151468
  N   1.52857584080555      0.33990513304648      1.15192266068708
  O   2.65060966126240      0.82153413151127      1.02317999849053
  O   0.97263360224800      0.05354456097271      2.20758073959149
  C   1.58656241461207     -0.10121169298724     -1.25837924639836
  N   2.13295893051833     -0.27742492061626     -2.28669777124770
  N   -1.26217037778314     -0.30768827025922     -1.26118664463675
  H   -0.77392632274706     -0.63664221515332     -2.08155130282692
  H   -2.21694486021828     -0.61018088317846     -1.14903792193593
  N   -1.40027558670354      0.17828701146608      1.02706502355001
  O   -1.39668127805246      1.30988016880177      1.49127966430384
  O   -2.08809374663829     -0.77677029864555      1.37433883250356
