13
Coordinates from ORCA-job run
  C   0.71216660756465      0.32499798038322     -0.13748698178548
  C   -0.55933032425170     -0.16009799928133      0.06481696467161
  N   1.81089824284663     -0.60723946937059     -0.39940726960776
  O   2.92167442586355     -0.12124443563379     -0.57396965677141
  O   1.55906067127745     -1.81768621858988     -0.42731968128644
  C   1.12010353250170      1.68017842190476     -0.06219888934569
  N   1.54141833745749      2.77919535822889     -0.00929686166622
  N   -0.99646665252095     -1.41587193264354      0.00723737821739
  H   -1.94948275488888     -1.59468894248188      0.28517176362344
  H   -0.32740456846276     -2.15689703875305     -0.13736213552085
  N   -1.66570529995445      0.80049501987871      0.38350765497780
  O   -1.43291638892064      1.99961388801895      0.30320011884018
  O   -2.73601582851212      0.28924536833953      0.70410759565342
