13
Coordinates from ORCA-job run
  C   0.72448988719585      0.26051093673796     -0.18905172921943
  C   -0.56391660645320     -0.12678329776506      0.10076022990628
  N   1.84110321337249     -0.63546258126792      0.11875860630521
  O   2.96149105247746     -0.25990848042624     -0.20437208621557
  O   1.59235836242240     -1.70681290474418      0.68384588850662
  C   1.12427849494022      1.48556815406148     -0.78098381869083
  N   1.54268966390232      2.47002741959049     -1.27456445472037
  N   -0.99568501378758     -1.28448909662472      0.59664023502819
  H   -1.97715827618898     -1.36799369441605      0.81559671216955
  H   -0.31137846283007     -1.94128181536600      0.93905991837295
  N   -1.69396682896088      0.81005961039455     -0.20038032279480
  O   -1.42156389219891      1.94596197693090     -0.56645242569690
  O   -2.82174159389114      0.35060377289480     -0.03885675295089
