13
Coordinates from ORCA-job run
  C   0.70674656807788      0.33213645216618     -0.15010851398244
  C   -0.54500080690491     -0.16755431087102      0.12096666085046
  N   1.87034079453058     -0.55439212406998     -0.07039689804996
  O   1.69123750630964     -1.73619051920167      0.23852946748862
  O   2.95999947609613     -0.04982889622781     -0.31507453624911
  C   1.01764998242731      1.65642063173897     -0.55225707307181
  N   1.34526872519921      2.72946206345771     -0.91115500092782
  N   -0.90266129627536     -1.40009709828951      0.47345093084091
  H   -0.19061582855547     -2.11339424566135      0.52056397759585
  H   -1.88598012509534     -1.61130228397336      0.55271979220518
  N   -1.72558764692663      0.75185048896752      0.04253081083824
  O   -1.51652845293295      1.95786899592562      0.01804554258803
  O   -2.82586889595010      0.20502084603871      0.03218483987385
