13
Coordinates from ORCA-job run
  C   0.79619176982310      0.19049902327700     -0.02503191293074
  C   -0.50018461295072     -0.13043306703852      0.22985212197333
  N   1.30452011823203      0.46444307684404     -1.36649163185888
  O   2.25420055847668      1.23927347796769     -1.43059619162122
  O   0.76650485390252     -0.11680331485800     -2.30307874373001
  C   1.72428204389008      0.24407641218723      1.04362381169825
  N   2.41067698158292      0.23862425722386      2.00097427810618
  N   -1.03639858025604     -0.40622245592701      1.43591507967315
  H   -1.91423398120559     -0.90352142414101      1.43255389298540
  H   -0.40685244544747     -0.60958728929476      2.19873577452638
  N   -1.53199003093501     -0.08369968462999     -0.82963845652384
  O   -1.60481761549439      0.94219523396909     -1.49131054310920
  O   -2.26289905961810     -1.06884424557962     -0.89450747918880
