13
Coordinates from ORCA-job run
  C   0.77642624628104      0.17629152048359      0.01281349398028
  C   -0.57833696896268     -0.06315507811731      0.05073198302724
  N   1.69598289448859     -0.91244465772098     -0.31750180476893
  O   2.89414333442994     -0.65435673231938     -0.33065870656350
  O   1.20971583800351     -2.02296385533999     -0.56486503402814
  C   1.41289137449511      1.43521531018225      0.16226864533994
  N   2.02823013847792      2.43668535565557      0.24687052459752
  N   -1.23361611242886     -1.21227515688252     -0.10071523736987
  H   -2.24083608960307     -1.18215442560569     -0.09112926673828
  H   -0.71310046900525     -2.03230254813600     -0.37562768989899
  N   -1.51143574433955      1.07110555742904      0.35912719127619
  O   -1.03004105985304      2.14266540555108      0.70360966171940
  O   -2.70902338198369      0.81768930482033      0.24507623942714
