13
Coordinates from ORCA-job run
  C   0.74691411393485      0.24461833364321     -0.09249297569943
  C   -0.56805259902763     -0.09709080748398      0.12512995219893
  N   1.72683854253427     -0.80441663981694     -0.37496782066671
  O   1.29695339088293     -1.91410456236187     -0.71645572942442
  O   2.91135939271650     -0.50938378356654     -0.28160409251991
  C   1.28217260326840      1.55638449663112     -0.17445769644098
  N   1.81804837358269      2.58614026980973     -0.37269649504261
  N   -1.14695558231933     -1.29016098892996      0.01856528508682
  H   -0.60645779554272     -2.06284331834788     -0.33437868598630
  H   -2.10729306713430     -1.38071427741900      0.30397200667038
  N   -1.53709705033638      0.96706047822271      0.53206231952095
  O   -2.71765981303064      0.62616290166854      0.57541421044381
  O   -1.09877050952866      2.08034789795087      0.79390972185947
