13
Coordinates from ORCA-job run
  C   0.77047323473932      0.18474458334533      0.02187054423201
  C   -0.51897930985319     -0.21804045344545      0.18393560521278
  N   1.36926627236402      0.62719458896749     -1.25049222687428
  O   1.43832218087525      1.83961392344669     -1.41511897370021
  O   1.79821352618510     -0.25152597801294     -1.98643986450264
  C   1.64516349008729      0.18386077534834      1.13311882334106
  N   2.31452637819699      0.15877834627489      2.10328683684838
  N   -1.05077584358839     -0.74581182363787      1.30876284883524
  H   -0.52364256631049     -0.66622705774232      2.16485176907772
  H   -2.05664192436471     -0.72644292060261      1.37706714549279
  N   -1.48281682475267     -0.15102632833080     -0.93829897970902
  O   -1.06051694101472      0.22527768533025     -2.02607981486277
  O   -2.64259167256379     -0.46139534094098     -0.67446371339109
