13
Coordinates from ORCA-job run
  C   0.80193757514363      0.17109190029108     -0.07461851988338
  C   -0.48483542204809     -0.10789400579814      0.26458751713925
  N   1.23468291474751      0.34969490984413     -1.45849826087023
  O   2.18763534303769      1.10535836248183     -1.62710223985430
  O   0.63784135529479     -0.28338683655789     -2.32282836624562
  C   1.78933451055169      0.24848595710032      0.93702827702491
  N   2.53157618742687      0.27851863575233      1.85137174894797
  N   -0.96185731387427     -0.32142165066011      1.50693916017772
  H   -0.30187292849622     -0.53413948518440      2.24075133580918
  H   -1.85649388122510     -0.78508554586005      1.56245888682237
  N   -1.57772501552589     -0.05766377632740     -0.73452649279771
  O   -1.62435331178013      0.92608265180405     -1.45944145854937
  O   -2.37787001325247     -0.98864111688577     -0.68712158772065
