13
Coordinates from ORCA-job run
  C   0.81439805741423      0.06197659475440     -0.07637562503136
  C   -0.49390615332903     -0.13131259427475      0.24264665077145
  N   1.24810521231019      0.62812402132162     -1.35070321170937
  O   2.36129636834206      0.28549074396576     -1.73763448918958
  O   0.48559312840041      1.40968858317657     -1.90972683663149
  C   1.82088637418377     -0.26610515166371      0.86413573166413
  N   2.57555362920416     -0.56279588079286      1.71873724501103
  N   -0.97171419397123     -0.61715362518947      1.40360958859307
  H   -1.95083269018187     -0.46928593150050      1.59415268121099
  H   -0.35213937290546     -0.65368541336350      2.19998793340915
  N   -1.57017771337436      0.07063797016978     -0.75267214469647
  O   -2.51567852467361      0.75644552969331     -0.37352569774592
  O   -1.45238412141927     -0.51202484629665     -1.82163182565563
