13
Coordinates from ORCA-job run
  C   0.71499324483090      0.30008225179254     -0.17678849357255
  C   -0.53040714127164     -0.14821755064007      0.18646739173323
  N   1.84554576738998     -0.62396829423442     -0.20724028687821
  O   1.65458281217206     -1.78595006862766      0.16884688758974
  O   2.91819716443980     -0.17940453690636     -0.59849580448939
  C   1.01559592537842      1.61388674850889     -0.61925413885074
  N   1.30543231488681      2.68217549536330     -1.01979022717555
  N   -0.91519016496140     -1.35411310862859      0.60993527812120
  H   -1.90568320020001     -1.54557192621709      0.59281691879837
  H   -0.24118370462148     -2.10292764165459      0.55172970969186
  N   -1.66763791003355      0.81820184014396      0.16895622468704
  O   -1.41925642744164      1.99991866231650      0.37208153433479
  O   -2.77598868056826      0.32588812878358     -0.03026499398979
