13
Coordinates from ORCA-job run
  C   0.69747318155008      0.30697863867662     -0.21973522866819
  C   -0.54911797577527     -0.16135011927947      0.12034425238940
  N   1.80401327129650     -0.63440025515549     -0.39827726984715
  O   1.59131694840214     -1.83139567497354     -0.17858152610639
  O   2.87890840734149     -0.16761478960213     -0.75558466064160
  C   1.06314494913996      1.66424135356568     -0.40758222204296
  N   1.45277238627009      2.76514824419442     -0.56057876745267
  N   -0.96097932997323     -1.41686271951995      0.29774240295363
  H   -1.86808882797043     -1.53918350739905      0.72182978741144
  H   -0.26080772971444     -2.14275323495206      0.32891410419503
  N   -1.66730127500794      0.81827381197745      0.30410173640441
  O   -2.66465233048936      0.38426301571310      0.87541967302778
  O   -1.51568167506958      1.95465523675442     -0.12601228162272
