13
Coordinates from ORCA-job run
  C   0.73656323100390      0.31918989345224      0.00442290497946
  C   -0.55512274991123     -0.09410593872637      0.07425959215003
  N   1.71874528282754     -0.75321585709796     -0.25374918328282
  O   2.47922268936895     -1.02629549470476      0.66759816967486
  O   1.67187929872451     -1.29275277590966     -1.35846826679868
  C   1.27850779441879      1.61765512476734      0.09658558004652
  N   1.83460620139224      2.65624494873799      0.13993831068076
  N   -1.00432056019588     -1.35064291733306     -0.13271130403819
  H   -0.49579119381187     -1.93180350807438     -0.78068438058770
  H   -2.00684635354075     -1.45984441603667     -0.11010471451455
  N   -1.61648525832775      0.86999912799904      0.45576389894426
  O   -2.77321746569567      0.46174218737860      0.36469758908931
  O   -1.26574091625277      1.98282962554765      0.83045180365674
