13
Coordinates from ORCA-job run
  C   0.70899808632605      0.38788118847432     -0.15074002227722
  C   -0.54016731963066     -0.10864614486836      0.05649298560203
  N   1.80328024636174     -0.50357136843194      0.30097688970028
  O   2.08992067636877     -1.45632724547302     -0.41444502019216
  O   2.28807651455577     -0.23339389724991      1.38855789020868
  C   1.10045227330127      1.60205245562849     -0.74566817992385
  N   1.49793699355603      2.56756216158595     -1.28540224732316
  N   -0.82961601958390     -1.33606346028261      0.56559627689443
  H   -1.80742101505997     -1.58638161472210      0.58245586136450
  H   -0.19117701280682     -2.08621216909210      0.35606458273756
  N   -1.73037412356291      0.71585156920521     -0.17665063787485
  O   -1.58748827814495      1.93227157181449     -0.27192272840514
  O   -2.80142102168042      0.10697695341156     -0.20531565051110
