13
Coordinates from ORCA-job run
  C   0.73143313656443      0.31802838745450     -0.11476541301633
  C   -0.53135971756234     -0.10645797288745      0.09285672229089
  N   1.67616557087679     -0.69962044038582     -0.62634071742041
  O   2.20194533504098     -1.41513123376798      0.21556764963320
  O   1.83107964160358     -0.71607621197078     -1.83911476936898
  C   1.31496299334629      1.59333105511922      0.08330513289472
  N   1.91550554386010      2.59903708919430      0.21607355486669
  N   -0.89188833828708     -1.42899321524765     -0.12575609113938
  H   -1.78346182730471     -1.48379114449452     -0.60445997895543
  H   -0.96170907069612     -1.94944563139277      0.74220276317063
  N   -1.56966598411099      0.86190689847569      0.55513460792704
  O   -2.71525362042296      0.41860281415190      0.60521124001477
  O   -1.21875366290797      2.01060960575136      0.80208529910257
