13
Coordinates from ORCA-job run
  C   0.80715059338995      0.02640596726271     -0.12167082580466
  C   -0.48745887438341     -0.12731007056447      0.26268090793605
  N   1.20165948527113      0.63832702363837     -1.38726770430865
  O   0.49291795918978      1.54065406759811     -1.82186455258765
  O   2.23974841031517      0.21407562021610     -1.88696297300570
  C   1.84762702262024     -0.39403990645737      0.74203082672025
  N   2.63307714607439     -0.75641161492871      1.54168514183520
  N   -0.92271496448590     -0.66456755460090      1.42061483472719
  H   -1.87324773211648     -0.44856901165955      1.68225063629181
  H   -0.26217011340661     -0.75853797702075      2.17818411483029
  N   -1.60666566728761      0.18034764417796     -0.65600528574605
  O   -1.53583323590789     -0.26815855302809     -1.79175822000340
  O   -2.53409002927275      0.81578436536657     -0.16091690088467
