13
Coordinates from ORCA-job run
  C   0.78339248963666      0.08805416171607     -0.09431544119021
  C   -0.56196400116616     -0.11406683529392     -0.14147667924512
  N   1.50201435942346      0.75074912383577      1.00725651139773
  O   1.40363882849742      1.96873446733639      1.07793659825266
  O   2.18272849061600      0.01453498472668      1.71268428174401
  C   1.58774904145832     -0.33227192710193     -1.17842102208546
  N   2.19151200550787     -0.70725556383745     -2.11908305214556
  N   -1.25797983943345     -0.56940336199891     -1.20544527935698
  H   -2.17641367382738     -0.94113867541043     -1.02077095538846
  H   -0.74475229562283     -0.95130010478032     -1.98484412488358
  N   -1.41987958060737      0.19833071698785      1.02454717110463
  O   -2.62684626319046      0.02325663813797      0.87058480891871
  O   -0.86419956129208      0.57277637568224      2.05134718287762
