13
Coordinates from ORCA-job run
  C   0.76843044018693      0.14897730586875      0.16674136241064
  C   -0.56917477645390     -0.13057559971348      0.06737901626429
  N   1.75378387836437     -0.86376108646170     -0.18538188866955
  O   1.33807201970349     -2.00064685913160     -0.44320693374798
  O   2.93284138978364     -0.52980458804593     -0.22774948203090
  C   1.29256129519506      1.45224204042390      0.35528232237533
  N   1.70850616919563      2.54828453241604      0.42755795339134
  N   -1.21785216965862     -1.26381759174902     -0.22325431139581
  H   -0.64755138848841     -2.02609668364839     -0.56260977994158
  H   -2.17035219872198     -1.15726594966303     -0.53762869150289
  N   -1.49667307129379      1.00039287269856      0.32681369406885
  O   -2.35205145481561      1.19368418120835     -0.53138213783536
  O   -1.33854013299680      1.62738742579755      1.36843887661361
