13
Coordinates from ORCA-job run
  C   0.69823323486369      0.25626003790019     -0.28035618627399
  C   -0.54782806701704     -0.14966070373427      0.13013989004551
  N   1.83116345500286     -0.66185709068317     -0.19173344308943
  O   1.61475357109930     -1.81465677015098      0.19838880658008
  O   2.92906684386429     -0.22517024180174     -0.51526013988653
  C   1.03477949421294      1.55706744180475     -0.73523991197121
  N   1.37891855820213      2.62212557118515     -1.10073176435026
  N   -0.95346149851904     -1.34305680831383      0.56729473078809
  H   -0.24599278036794     -2.03787391910785      0.75447055358851
  H   -1.85169708570532     -1.37745277514028      1.02601766756760
  N   -1.67715482796248      0.82641974606317      0.06370567716123
  O   -1.59884027080751      1.74219184129507     -0.74496110124297
  O   -2.61294062686588      0.60466367068377      0.82926522108335
