13
Coordinates from ORCA-job run
  C   0.70416533988356      0.32556880770931     -0.17501959393108
  C   -0.53011511574278     -0.15848925871002      0.18054681722166
  N   1.88280590994059     -0.53134473555533     -0.07313196030732
  O   2.94210470321039     -0.07421709707757     -0.48501239808457
  O   1.74075305493079     -1.65403315208049      0.42450992895172
  C   0.95389388610762      1.60225331282129     -0.74051294683752
  N   1.21326001999939      2.63988505520204     -1.23260890574195
  N   -0.86443758233343     -1.33560928037474      0.71320105505816
  H   -0.14908674632872     -2.04563464917372      0.76264744370001
  H   -1.84084132047163     -1.58820471817614      0.67950531684657
  N   -1.71812676486873      0.72938990406976      0.01617766776669
  O   -1.54446977156850      1.93921240022573      0.09025044855840
  O   -2.78890561275856      0.15222341111989     -0.15955287320078
