13
Coordinates from ORCA-job run
  C   0.68670204989891      0.27995865589747     -0.27989843445181
  C   -0.54796448010064     -0.15735869430703      0.12897428398710
  N   1.79333571223467     -0.66563122989628     -0.40405176848767
  O   1.55863373115762     -1.86190294689074     -0.20041622905631
  O   2.88815883297875     -0.20592339040180     -0.70568052618005
  C   1.04425892391296      1.63007610815525     -0.52724811720549
  N   1.41714593231852      2.73136413310060     -0.71619521624569
  N   -0.97306098437589     -1.39545846818205      0.38930109982466
  H   -1.83807352272077     -1.47907456434457      0.90229541955946
  H   -0.27953492205063     -2.12843252353091      0.41908355948851
  N   -1.64023980704952      0.84674898238305      0.29070215245649
  O   -1.59612756671419      1.85732800036537     -0.39973385691385
  O   -2.51423389948978      0.55130593765163      1.10286763322467
