13
Coordinates from ORCA-job run
  C   0.71448013935413      0.22737047620434     -0.26235775180801
  C   -0.55876134219468     -0.12107954323170      0.11968065506682
  N   1.80432252764037     -0.73867070743075     -0.13191563151238
  O   2.92852665067103     -0.35491749852420     -0.43198776722659
  O   1.52863695003721     -1.87737279644634      0.26236281049646
  C   1.12470957755889      1.50270267540388     -0.72816485608674
  N   1.53769672153643      2.53812221744240     -1.10787164175880
  N   -1.01825370420288     -1.28926255930612      0.56735638684391
  H   -0.34828429553434     -2.01651819905856      0.76800322498142
  H   -1.94234670156210     -1.29682286573974      0.97220686287203
  N   -1.64852611338843      0.89764561867244      0.01355004036366
  O   -2.64918837729626      0.67498475405449      0.69067726483437
  O   -1.47401203261938      1.85181842795988     -0.73353959706615
