13
Coordinates from ORCA-job run
  C   0.77376667861484      0.26660255401267     -0.02215534830088
  C   -0.48655602885736     -0.18437272462742      0.21825908808036
  N   1.25692387225634      0.63876556067834     -1.34600382454308
  O   2.25982479762327      1.34641438227523     -1.37073795922859
  O   0.65230509603185      0.19616841450915     -2.31696122909041
  C   1.70168476756414      0.33908796338303      1.04687949092671
  N   2.39475714158488      0.35945493775712      1.99862574611391
  N   -0.98494190586517     -0.56147252928750      1.41251086919647
  H   -1.81209062087831     -1.13746915663982      1.39518199390505
  H   -0.33274114239460     -0.73981845663699      2.16289682740312
  N   -1.53411411355202     -0.17505247452251     -0.82719195322679
  O   -2.07607414050757     -1.25708047215483     -1.03233122774953
  O   -1.81274440162030      0.90877200125353     -1.31897247348633
