13
Coordinates from ORCA-job run
  C   0.80908548711046      0.21617175792532     -0.08856354139937
  C   -0.49981084236451     -0.08120267826541      0.16167450617886
  N   1.72568739067773     -0.86313508600673     -0.44715769027128
  O   1.45114328439468     -1.96827391410097      0.02150383819335
  O   2.63016418267829     -0.61647678728178     -1.22965451894553
  C   1.27814191624813      1.55403295464004     -0.04183450511264
  N   1.60542439173655      2.68032791366866      0.04129598534810
  N   -1.10790663724276     -1.26626271358082      0.34245925480935
  H   -2.09286590749236     -1.31975250699730      0.14892506829681
  H   -0.56027862555083     -2.10715259192385      0.21876256151152
  N   -1.46515124998057      1.02953913694398      0.27231217428280
  O   -2.01091125853890      1.31133272720275     -0.79531415158013
  O   -1.76272213167592      1.42985178777609      1.39559101868817
