13
Coordinates from ORCA-job run
  C   0.81774043639095      0.02967395073943     -0.05824246172477
  C   -0.50445340615653     -0.09347752261130      0.23495256075084
  N   1.31225275915546      0.40976876719284     -1.37798301209438
  O   0.57714980958134      1.09493764309413     -2.08128590422930
  O   2.44471972345395      0.02609146461846     -1.65583069244956
  C   1.77901878491957     -0.17668958289235      0.96131306537678
  N   2.48365873937866     -0.35029356566549      1.88918181472932
  N   -1.03178469986862     -0.41960677427019      1.43138476729342
  H   -2.00579815011848     -0.19908212612747      1.57273957959902
  H   -0.43528352602376     -0.36952429390168      2.24442560437417
  N   -1.54405063140393      0.00405219517223     -0.81285684860673
  O   -2.46475526167735      0.77872622573184     -0.56747310347421
  O   -1.42741457763126     -0.73457638108044     -1.78032536954461
