13
Coordinates from ORCA-job run
  C   0.79939635470848     -0.01570906109660     -0.19595398590823
  C   -0.55475412633331     -0.04111659247308     -0.05597171338241
  N   1.69558870679584      0.59206195541615      0.77701897031566
  O   2.89465206992855      0.50098011107061      0.53156867028503
  O   1.18940810768650      1.13800830379219      1.75190985945350
  C   1.38301641790152     -0.63651835094503     -1.32882037059475
  N   1.72815791127299     -1.19574228821728     -2.30603739499427
  N   -1.42882110473499     -0.52839723963117     -0.95648237789335
  H   -2.36320533366389     -0.74756946920268     -0.64940061310144
  H   -1.07190300783283     -1.06783034580179     -1.73211565917109
  N   -1.23641458487732      0.53871566099080      1.11549529948582
  O   -1.60670304598980      1.69885642810063      1.00274413377128
  O   -1.42741836486175     -0.23473911200274      2.04604518173424
