13
Coordinates from ORCA-job run
  C   0.81687311552939      0.04888188261351     -0.07335457830690
  C   -0.49639654618113     -0.13316429751698      0.23458627327103
  N   1.28330646610222      0.48659269223222     -1.38558997910614
  O   0.52839081342808      1.18286259590897     -2.05640051761852
  O   2.41149735040241      0.12253030429689     -1.70391297174001
  C   1.80411096927274     -0.19134102482544      0.91372883924594
  N   2.50753855280976     -0.29864004255297      1.85436408136839
  N   -0.98979732133795     -0.54558039299966      1.41409272351199
  H   -0.36321034736383     -0.62578756018008      2.20266316169948
  H   -1.96306115206760     -0.35708964658036      1.60347252531113
  N   -1.57247959500172      0.06367191813701     -0.76928553428428
  O   -1.50142110480346     -0.58895450908201     -1.79931229341609
  O   -2.46535120078893      0.83701808054891     -0.43305172993601
