13
Coordinates from ORCA-job run
  C   0.81062633591403     -0.02337359981073     -0.14188714467833
  C   -0.54600784976811     -0.11787946913689     -0.04731277876458
  N   1.60282277195464      0.92367759876497      0.63143970395068
  O   1.05644631044660      1.95777190493161      1.00037973550387
  O   2.77557625241740      0.60862401285102      0.81740398397543
  C   1.48584986948402     -0.79588831421252     -1.11902466256486
  N   1.92355306794820     -1.47279141352990     -1.97825651471941
  N   -1.34233415410907     -0.83740741249565     -0.84793945652910
  H   -0.94985250792509     -1.35579883626349     -1.62042460619000
  H   -2.32964870426488     -0.89643521612685     -0.66337512042950
  N   -1.29686674851669      0.53242403523941      1.05367021986702
  O   -0.83350179673601      0.41242808953480      2.18031716046303
  O   -2.35666284684505      1.06564862025421      0.73700948011576
