13
Coordinates from ORCA-job run
  C   0.78495587703104      0.23144527984805     -0.05978397578315
  C   -0.46560415204940     -0.21095626036145      0.23873401863963
  N   1.13740387720972      0.79511937324841     -1.36126186673571
  O   0.48796255632677      0.42013760517030     -2.33237070146355
  O   2.08364979384214      1.57675286405249     -1.36847394344593
  C   1.80365585518493      0.16532744476144      0.92118885768300
  N   2.56022437305557      0.06582446410066      1.81792569851857
  N   -0.87245405238034     -0.72417914412952      1.41545714385454
  H   -1.72460468803261     -1.26275798576364      1.41747343796061
  H   -0.16570463991272     -1.00378807190665      2.07977560601856
  N   -1.58837841703010     -0.05261098559100     -0.71113506158984
  O   -1.86146792081406      1.08817316110282     -1.05611760257005
  O   -2.18163846243094     -1.08748774453191     -0.99941161108668
