13
Coordinates from ORCA-job run
  C   0.75900300999043      0.28096240822610     -0.04026104028425
  C   -0.49796583378509     -0.16969834421292      0.22883228379967
  N   1.22050470172607      0.64537612020704     -1.37773627919330
  O   2.37566684737775      1.05123500133277     -1.44678465343997
  O   0.44320578071395      0.50724241120749     -2.31558355120987
  C   1.70819847485910      0.37981158449430      1.00635894159251
  N   2.42944260326155      0.39905958239128      1.93625559023060
  N   -0.98212861972853     -0.44800135611279      1.45096086920755
  H   -1.79878741560224     -1.02696603475282      1.53767769294820
  H   -0.33313571243919     -0.49962183061646      2.22496402495274
  N   -1.51766919218127     -0.32429774892947     -0.82943242354773
  O   -2.23715517230653      0.64235613614537     -1.03509601387216
  O   -1.56917947188601     -1.43745792937990     -1.34015544118402
