13
Coordinates from ORCA-job run
  C   0.80102296217638      0.16821370960681     -0.05825992077577
  C   -0.48263998011848     -0.17212012755903      0.23722725290070
  N   1.21870660911981      0.61957383050107     -1.38334023185864
  O   0.51593377337830      0.29603562243834     -2.33534965955832
  O   2.25678691337825      1.27354637133386     -1.42494042262639
  C   1.78700657201891      0.14344730011127      0.96023706062459
  N   2.52877879217954      0.08396732117859      1.87314109165992
  N   -0.95097905836902     -0.55204599919486      1.44065161735874
  H   -0.28062878871237     -0.82620056561213      2.14415627021833
  H   -1.83247625581634     -1.04367168524464      1.45406225825822
  N   -1.57145314700074     -0.02948929984796     -0.75090657609802
  O   -1.82742288828421      1.10416476644256     -1.12518931787635
  O   -2.16263550395004     -1.06642124415387     -1.03248942222704
