13
Coordinates from ORCA-job run
  C   0.78642939891913      0.22778619845812     -0.04720741908183
  C   -0.47322831728787     -0.20083129604073      0.23196972891084
  N   1.18830378584787      0.71475801269840     -1.36255561344817
  O   2.38333810257912      0.62302846398682     -1.62610036076606
  O   0.31560216774084      1.20151743103003     -2.07406570411672
  C   1.77260196634666      0.20857771693293      0.96912225249581
  N   2.51332890528972      0.15088922900892      1.88346259334809
  N   -0.91762391680327     -0.66437073970267      1.41798505182811
  H   -0.35069750159652     -0.48946062904615      2.23532363574065
  H   -1.91684575965790     -0.65998412150862      1.55788188606113
  N   -1.50380564924843     -0.32531118761856     -0.82026563040296
  O   -1.23249546314509     -1.03547063618544     -1.77793897334223
  O   -2.56390771898426      0.24887155798694     -0.58761144722666
