13
Coordinates from ORCA-job run
  C   0.78555480878538      0.21615543159845     -0.07304263282062
  C   -0.48735264447476     -0.13229395193755      0.25498218355705
  N   1.19592442065635      0.58230759038736     -1.42413990266027
  O   2.22808010616248      1.24296060111250     -1.50753128945278
  O   0.50703266431741      0.17993433500730     -2.35542073375296
  C   1.79232764227564      0.17921918713602      0.92388431373268
  N   2.53893744481587      0.07280871396979      1.82806925928800
  N   -0.92825527416382     -0.48377852610512      1.48236945744164
  H   -1.76746262431592     -1.04378210131025      1.51014921360915
  H   -0.22206012821682     -0.72712178894955      2.16458482153443
  N   -1.59400391445378     -0.04677307130629     -0.71873902587049
  O   -2.23161835614843     -1.08663714458411     -0.86867436543512
  O   -1.81710414523958      1.04600072498145     -1.21749129917071
