13
Coordinates from ORCA-job run
  C   0.76565354677672     -0.06628160101542     -0.25471745893856
  C   -0.55301948904926     -0.20142272394416      0.04256772589799
  N   1.66447120463411      0.90574469621516      0.38998532881387
  O   2.71360880318238      0.44886769711738      0.83091069620599
  O   1.30082103266356      2.07683373443133      0.41123525290153
  C   1.37677825152546     -0.83250609468256     -1.27477389761875
  N   1.83786679780126     -1.40299545394374     -2.19910472753346
  N   -1.43788843779888     -0.88157986154372     -0.71510221796628
  H   -2.34324840331373     -0.99963332549632     -0.29554194534471
  H   -1.46823927700382     -0.60878248429134     -1.68591820319644
  N   -1.13115592112260      0.40090564238925      1.27967368723928
  O   -2.36189928344334      0.46731928912633      1.28270095797100
  O   -0.36274882485185      0.69253048563780      2.18908480156853
