13
Coordinates from ORCA-job run
  C   0.78303579030209      0.25092296822013     -0.03758515268925
  C   -0.48049005862548     -0.17273015476609      0.23152305063729
  N   1.22534383344682      0.63702680542398     -1.37314630172169
  O   2.18059599519401      1.40699743928283     -1.41908161093959
  O   0.63081141453746      0.14676705715806     -2.32831635987043
  C   1.73904947182958      0.29112614052692      1.00705309545532
  N   2.44301862017891      0.28301971355108      1.95105041850975
  N   -0.95180093617718     -0.56500578843640      1.43281481032947
  H   -1.79700052568612     -1.11715325267101      1.42200826735922
  H   -0.28611848268433     -0.77052830914262      2.16389366733592
  N   -1.55088893826159     -0.13682098931017     -0.78646891038829
  O   -2.15566615685447     -1.19403609474220     -0.94521640970811
  O   -1.77989002719972      0.94041446490549     -1.31752856430960
