13
Coordinates from ORCA-job run
  C   0.77455454744596      0.27126672005763     -0.03875858364293
  C   -0.48712127498926     -0.16662513018719      0.22242350674332
  N   1.23619056876413      0.64772250448064     -1.36769401586619
  O   0.51907040485987      0.36104915313522     -2.32069355624501
  O   2.32333047400414      1.21581794986374     -1.41665048093878
  C   1.71824782212573      0.31843356601748      1.01804907704622
  N   2.40285037653711      0.29280884287481      1.97600242204702
  N   -0.96743147330156     -0.51965222223843      1.43098438490833
  H   -0.30646069820834     -0.66038622212739      2.18181388569400
  H   -1.79530353290135     -1.09465287391514      1.45551518925312
  N   -1.53510669884384     -0.20635939227241     -0.81634239565425
  O   -1.88216236524447     -1.33022696362418     -1.16371120944917
  O   -2.00065815024812      0.86980406793522     -1.16193822389570
