13
Coordinates from ORCA-job run
  C   0.67944269697341      0.27905595058621     -0.30398910597355
  C   -0.53816630659731     -0.13935181339002      0.17861863144996
  N   1.72117093835491     -0.70431493644569     -0.60152296587039
  O   1.46192430139023     -1.89954454247584     -0.42416745800581
  O   2.79208419230865     -0.27336682125634     -1.01189098973409
  C   1.08630200579476      1.62390213865728     -0.49762492821449
  N   1.49760397333313      2.71488967379181     -0.66393885394063
  N   -0.98489625714327     -1.37790423343938      0.38349159901151
  H   -1.85054936317039     -1.47458306738154      0.89272795192933
  H   -0.33290100785396     -2.14199450073570      0.29421234757418
  N   -1.58029004121629      0.88544064160156      0.50193579116893
  O   -1.43509852341093      2.01765611128354      0.06086842592898
  O   -2.51762660876293      0.48811539920410      1.19027955467608
