13
Coordinates from ORCA-job run
  C   0.81336263446716      0.01339558142547     -0.08929389038979
  C   -0.49643162368018     -0.09560150725074      0.25700401313903
  N   1.25574080275525      0.46900084430056     -1.40531100418462
  O   2.31838586288187      0.00204050728205     -1.80392557084084
  O   0.55351334601811      1.29371659858725     -1.98113697802316
  C   1.81746214026504     -0.28964479823480      0.86189577637180
  N   2.56881138859468     -0.55051536878972      1.73071286120894
  N   -0.98141714612549     -0.48310334731231      1.45382988519421
  H   -0.35374575694683     -0.47725087859368      2.24424170869987
  H   -1.94400255122939     -0.24779357299166      1.64287551106699
  N   -1.57409617832584      0.08940125226659     -0.74010789013708
  O   -2.50802752702377      0.80152442984869     -0.38023310392573
  O   -1.46955539165061     -0.52516974053770     -1.79255131817963
