13
Coordinates from ORCA-job run
  C   0.79710947864140      0.04212661238133     -0.08634680365688
  C   -0.51427748883686     -0.06533137029142      0.26918085114943
  N   1.28037127284275      0.32405416233222     -1.44848063814298
  O   1.19008120134706      1.48096303450019     -1.84010946213170
  O   1.78117030031570     -0.62565676353441     -2.04153288771792
  C   1.79646715856067     -0.09154820360805      0.90522587726577
  N   2.55258376935611     -0.23272199582188      1.79927620234136
  N   -0.98542730025311     -0.25681574842521      1.51243851239789
  H   -1.97710797063587     -0.35437615755257      1.64515758327176
  H   -0.36009105712199     -0.33884650093925      2.29926421978596
  N   -1.58358449446081      0.01567631753219     -0.75519474749937
  O   -2.73305956073194      0.09635397550901     -0.32701918943571
  O   -1.24523530902311      0.00712263791785     -1.93185951762761
