13
Coordinates from ORCA-job run
  C   0.79763449877613      0.22743085921801      0.03455316236924
  C   -0.50094456214944     -0.15273898326834      0.18817494815891
  N   1.38417208156851      0.48238755051735     -1.27155553727333
  O   2.39987463446047      1.17225305537881     -1.29003126711629
  O   0.81632034079916     -0.01028241868980     -2.24380046952484
  C   1.62368205883225      0.35268042060310      1.17591728180757
  N   2.23095855375160      0.42527597759386      2.18206121986461
  N   -1.12260490696970     -0.41221311732632      1.35158772136742
  H   -0.56819682272187     -0.52805175007286      2.18636433885679
  H   -1.99507998670088     -0.91428406254643      1.30883500566864
  N   -1.44063980685481     -0.20203584392842     -0.94984731620171
  O   -1.71275909266164      0.86786358596421     -1.47565491741284
  O   -1.91341699012976     -1.30728527344317     -1.19760417056417
