13
Coordinates from ORCA-job run
  C   0.80952073367657      0.10497412720551     -0.05710854392931
  C   -0.49332693805356     -0.13758880420110      0.24523214458051
  N   1.24054961828397      0.64863973602335     -1.34358875673161
  O   0.46863344830764      1.40398649252368     -1.92366488531392
  O   2.36218331544173      0.31686155563011     -1.71560163240700
  C   1.81943349941242     -0.16385937641671      0.89794514267747
  N   2.59390900021718     -0.42080709412705      1.74814454430288
  N   -0.97480944342791     -0.59999064626367      1.41492492038523
  H   -0.37847967420065     -0.55980524161956      2.22799692480578
  H   -1.96475070618224     -0.48833058485345      1.57134573099875
  N   -1.55594087524448     -0.03974458723743     -0.78400475817916
  O   -1.34809939399710     -0.60193943219173     -1.85019196284115
  O   -2.57982258423357      0.53860385552805     -0.43142886834846
