13
Coordinates from ORCA-job run
  C   0.80514256690810      0.13846734000928     -0.07192733563258
  C   -0.49489001001931     -0.08185813862788      0.25946409568932
  N   1.26413557482596      0.27911974835628     -1.45108362489476
  O   2.27336425574121      0.95874051101207     -1.61215977288886
  O   0.62684850171032     -0.30607392583355     -2.32052690230206
  C   1.78349300703599      0.21263015472459      0.94949086062460
  N   2.51153148930076      0.24346601931094      1.87498463270134
  N   -0.99126784610441     -0.23289716076991      1.50388013897220
  H   -1.89712234091643     -0.67197210928015      1.57423448645757
  H   -0.34300003260224     -0.41423015184121      2.25654545607205
  N   -1.56882285865391     -0.05272588172412     -0.75738679653658
  O   -1.64295522923811      0.94630381952554     -1.45843105418417
  O   -2.32545707798795     -1.01997022486188     -0.74808418407807
