13
Coordinates from ORCA-job run
  C   0.72144531069719     -0.07550683488798     -0.33538606391890
  C   -0.57689638115139     -0.07073667578495      0.07590785830569
  N   1.79823976074566      0.74719356499857      0.24274937314252
  O   1.83960138599305      1.91920993097362     -0.10969472259843
  O   2.59159233521872      0.15910284149123      0.96806904696834
  C   1.10764281837371     -0.92340471195317     -1.39778068843714
  N   1.34043772341546     -1.64641977204375     -2.29919193266292
  N   -1.59601702666743     -0.72986398366849     -0.50615694117703
  H   -1.42363672840542     -1.37943506173524     -1.25490177343707
  H   -2.46738256009047     -0.77413269201302     -0.00638686043909
  N   -1.00243598456230      0.73171697127054      1.24547503267359
  O   -0.12868308985354      1.31517451715719      1.87737569740562
  O   -2.20490756371324      0.72810190619546      1.49992197417482
