13
Coordinates from ORCA-job run
  C   -0.26204004624870      0.21722602465770     -0.35576230915588
  C   0.45315588067744     -0.97391535457355      0.28399015637153
  H   -0.55472606548112     -0.01374792892492     -1.38099883415116
  H   0.68968749460833     -0.73428108471515      1.32663385379946
  H   -0.20394977202579     -1.84680777302480      0.28069718478082
  N   0.51627553492854      1.39141574547467     -0.30314077151662
  H   0.68256906352257      1.68643410105604      0.65023127675895
  H   0.09215733726499      2.15277846100829     -0.81488130142251
  N   -1.60486260695299      0.31113192182462      0.39784015537699
  O   -1.70112386088841      1.16848400561358      1.27110231343061
  O   -2.46044044560502     -0.51202922429471      0.08820445551512
  C   1.68554960891800     -1.28668996037880     -0.43274310403677
  N   2.66774787728213     -1.55899893372298     -1.01317307575054
