13
Coordinates from ORCA-job run
  C   -0.26338443100775      0.25188589180860     -0.28999552883176
  C   1.04524564861075     -0.46151979131428      0.00662368544295
  H   -0.75920750837556     -0.18167875527837     -1.16838301914008
  H   1.78233012928353     -0.16627918964810     -0.74688263782943
  H   1.41107333347494     -0.14385271049670      0.98383200058939
  N   -0.06090833289512      1.68007649404645     -0.33288012285904
  H   0.63180943811723      1.91334454356658     -1.03299426340500
  H   -0.93045052665707      2.13863455998250     -0.57825180294509
  N   -1.25585569943834      0.02589600982770      0.82972703794537
  O   -0.88881373345240     -0.54679581328371      1.84907277030665
  O   -2.37606639583085      0.48075377949692      0.61420661578507
  C   0.89493843167671     -1.91369390517986     -0.03246731514819
  N   0.76828964649395     -3.07777111352773     -0.10060741991083
