13
Coordinates from ORCA-job run
  C   -0.35613863356832      0.14789070340494     -0.22875231385487
  C   0.52193019882274     -0.96932744307579      0.31920712701302
  H   -0.70597575367397     -0.09670609547357     -1.24205798896890
  H   -0.01827048387562     -1.91710092331308      0.31661776184786
  H   0.78925166856678     -0.73540015655272      1.35197020480691
  N   0.28499710110601      1.42813242441472     -0.08816930886591
  H   1.20153354329823      1.41048532505952     -0.51886023333168
  H   -0.27116353550831      2.14546055602133     -0.53607596431514
  N   -1.63616898379092      0.23394253504792      0.57663416587402
  O   -1.84243534106770     -0.58905247102427      1.46261644693670
  O   -2.38636351297325      1.14821076673160      0.25087473989566
  C   1.72936384364561     -1.08023042295856     -0.49575994377029
  N   2.68943988901873     -1.12630479828205     -1.16924469326737
