13
Coordinates from ORCA-job run
  C   -0.31960976406416      0.34497024087023     -0.50012764761734
  C   0.50188220751568     -0.93738037014413     -0.62508718538807
  H   -0.91314473531143      0.48307200345246     -1.40625007172985
  H   -0.15921182827918     -1.78922571944972     -0.79253074674418
  H   1.16977109734103     -0.83320301877985     -1.48306798634432
  N   0.48811375860250      1.47389725328389     -0.24829471524485
  H   0.98242588638628      1.38920391474406      0.63174056176464
  H   -0.05578950255787      2.32581621424332     -0.23061211371958
  N   -1.38750681798466      0.07032176414269      0.58341822434543
  O   -2.20510138404780     -0.80556851516248      0.31776814772342
  O   -1.33776060099566      0.73149249347245      1.61495316177484
  C   1.29998274029081     -1.15875871822598      0.57972631056405
  N   1.93494894310448     -1.29463754244694      1.55736406061582
