13
Coordinates from ORCA-job run
  C   -0.42178309120195      0.37580154000676     -0.42134355893954
  C   0.47439687362767     -0.86485588863877     -0.60824148267895
  H   -1.00533214078998      0.52290277174777     -1.33127417356530
  H   1.12133399950709     -0.69813883570309     -1.47449726779665
  H   -0.13944889697203     -1.74680309014769     -0.81053723410235
  N   0.19973847408801      1.59863885009025     -0.04064916496552
  H   0.69417617460103      2.01613128602965     -0.81625871167527
  H   0.81520078582015      1.48660480123072      0.75460483905994
  N   -1.43903812753923     -0.00920385384949      0.63233822851311
  O   -2.33719841474973     -0.75899056927433      0.25802367902025
  O   -1.25551902728492      0.39782767869648      1.77298819397407
  C   1.31020091040887     -1.09136587825041      0.56787343589394
  N   1.98427248048503     -1.22754881193786      1.51897321726227
