15

C	-0.589938	-0.149553	-1.399135
C	0.0	0.0	0.0
Br	-0.084004	1.510449	-2.339526
H	1.088757	0.0	0.0
H	-0.357214	0.923037	0.455672
C	-0.029625	-1.253271	-2.176274
N	0.314925	-2.129312	-2.879964
C	-2.114392	-0.237768	-1.398879
H	-2.49635	-0.218717	-2.420319
H	-2.529565	0.609772	-0.849222
H	-2.42188	-1.171343	-0.924119
N	-0.443175	-1.097399	0.899862
O	-0.599191	-2.218336	0.414273
O	-0.594919	-0.814782	2.085986
Br	3.418266	0.0	0.0
