15

C	-0.45465	0.091176	-1.463264
C	0.0	0.0	0.0
Br	-0.12499	-1.701957	-2.223888
H	1.08842	0.0	0.0
H	-0.418234	-0.875878	0.488949
C	-1.896631	0.321415	-1.574839
N	-3.046199	0.536322	-1.697128
C	0.344862	1.108736	-2.271296
H	1.408559	0.900552	-2.130461
H	0.135315	2.112619	-1.897407
H	0.077369	1.04455	-3.327211
N	-0.499916	1.175697	0.763652
O	-1.370696	0.965971	1.610889
O	-0.036404	2.28109	0.493168
Br	3.472242	0.0	0.0
