13

C	0.0	0.0	0.0
C	-0.500957	0.173416	-1.430399
Br	1.937387	0.0	0.0
H	-0.156738	-0.67061	-2.02891
H	-1.621888	0.130185	-1.214346
C	-0.4535	1.050491	0.903179
N	-0.60147	1.967769	1.623674
N	-0.436431	-1.359329	0.54004
O	-0.51507	-2.268047	-0.273124
O	-0.564457	-1.451575	1.750033
C	-0.07894	1.429271	-2.013074
N	0.22536	2.444036	-2.523159
F	-2.520385	0.0	0.0
