13

C	0.0	0.0	0.0
C	-0.288429	-0.130949	-1.511244
Br	1.939234	0.0	0.0
H	0.325778	-0.953982	-1.882814
H	0.107003	0.782387	-1.968973
C	-0.487411	1.218698	0.621508
N	-0.590887	2.292631	1.092168
N	-0.416266	-1.227954	0.776701
O	-0.530124	-1.099036	1.985781
O	-0.481765	-2.271881	0.143806
C	-1.652719	-0.34174	-2.004163
N	-2.477587	-0.558022	-2.817974
F	-2.268074	0.0	0.0
