13

C	0.0	0.0	0.0
C	-0.483026	0.157241	-1.4415
Br	1.937462	0.0	0.0
H	-1.600975	0.122532	-1.25115
H	-0.131197	-0.695837	-2.022038
C	-0.459013	1.062081	0.885255
N	-0.606274	1.994123	1.586515
N	-0.437342	-1.353798	0.5499
O	-0.513738	-2.269163	-0.256004
O	-0.565856	-1.436107	1.760334
C	-0.039132	1.400576	-2.03744
N	0.289496	2.400433	-2.561284
F	-2.498755	0.0	0.0
