16

C	0.0	0.0	0.0
C	-0.460511	-0.049657	-1.458152
F	1.39383	0.0	0.0
H	-1.555447	-0.180602	-1.415914
H	-0.173795	0.87153	-1.965677
N	-0.518128	1.179036	0.625256
H	-1.545005	1.01651	0.639672
H	-0.358918	1.97808	0.016626
C	-0.440957	-1.208294	0.795374
H	0.012844	-2.115363	0.39695
H	-0.121691	-1.056537	1.828507
H	-1.53285	-1.266891	0.744245
N	0.162094	-1.142378	-2.241028
O	1.054544	-0.840477	-3.039565
O	-0.237566	-2.292961	-2.054138
H	-3.111711	0.0	0.0
