16

C	0.0	0.0	0.0
C	-0.496937	-0.111734	-1.435644
F	1.386918	0.0	0.0
H	-0.165966	0.76293	-1.991095
H	-1.59582	-0.197376	-1.371148
N	-0.513592	1.259852	0.463621
H	-1.544183	1.141886	0.376641
H	-0.329135	1.314799	1.462211
C	-0.418029	-1.183486	0.855838
H	-1.511485	-1.233796	0.832879
H	0.020134	-2.116413	0.49765
H	-0.07557	-1.002435	1.880241
N	0.059407	-1.292644	-2.130467
O	1.023098	-1.117519	-2.881804
O	-0.467678	-2.388137	-1.926652
H	-3.113857	0.0	0.0
