16

C	0.0	0.0	0.0
C	-0.665596	0.021038	-1.350556
F	1.419663	0.0	0.0
H	-0.51648	-0.910919	-1.892325
H	-1.792536	0.127095	-1.044825
N	-0.402967	1.121472	0.788024
H	-0.270559	1.972991	0.259888
H	0.168019	1.142548	1.623671
C	-0.433995	-1.278428	0.685944
H	-1.531392	-1.278972	0.68777
H	-0.06254	-1.280824	1.714876
H	-0.034527	-2.152246	0.163259
N	-0.249789	1.084469	-2.257176
O	-0.12473	0.796987	-3.459101
O	-0.098559	2.236791	-1.816752
H	-3.120384	0.0	0.0
