15
Coordinates from ORCA-job run
  C   -0.60290859010397     -0.14866108991841      0.39902612973482
  C   0.90448325411771      0.09284146887349      0.20295677154914
  Br  -0.95392115764161     -1.08291216246216      2.06080448556054
  H   1.32682912200207      0.53897661055142      1.10186827576096
  N   -1.20719916258916      1.28816938532934      0.63896760883202
  O   -2.30612065892123      1.48643297941974      0.14262101493817
  O   -0.54171084140180      2.06802813006572      1.30714138218068
  N   -1.17404778149510     -0.83108522703255     -0.67011592717197
  H   -2.17492692925867     -0.93608218621702     -0.57025709223000
  H   -0.93991854335263     -0.42697449305082     -1.56964472204958
  C   1.11522269137170      0.94846258152877     -0.95877305634360
  N   1.23425786304524      1.64635694474916     -1.89650450154017
  N   1.60743648889420     -1.23072261563400     -0.01579639293512
  O   2.09430288606327     -1.74075605445851      0.98570391819787
  O   1.61822135926998     -1.67107427174417     -1.15799789448376
