15
Coordinates from ORCA-job run
  C   -0.58165170634005      0.17901338191300      0.26895038295116
  C   0.73181188503658     -0.38870798682004     -0.27837028415609
  Br  -0.19726800645581      1.35960934765737      1.79858240432962
  H   0.51569357012958     -0.83207050819563     -1.25518489528134
  N   -1.29800900696226      0.98874927644530     -0.83141538688039
  O   -1.02196671847014      0.69115570737480     -1.98438995169315
  O   -2.15994923797007      1.76632817325746     -0.45528434459555
  N   -1.47318398944163     -0.87950645705985      0.54803073686958
  H   -1.10896049992570     -1.50665294506016      1.25615879823546
  H   -2.37221071705600     -0.51968283395807      0.85048129787511
  C   1.26509703834876     -1.39012973054704      0.63160080135197
  N   1.61039079223467     -2.22649568041222      1.38087968920190
  N   1.78025633162091      0.67521285436640     -0.55402943388202
  O   1.36469957898849      1.76879968195915     -0.90671293093933
  O   2.94625068626268      0.31537771907954     -0.46829688338693
