15
Coordinates from ORCA-job run
  C   -0.56285082160046      0.12095892176321      0.38700444691229
  C   0.75045674524773     -0.38554456547095     -0.24022401272057
  Br  -0.20828447850026      1.11686986364639      1.98594188494628
  H   0.51597826731307     -0.76711700390371     -1.23996087378314
  N   -1.24738272305090      1.04384449108362     -0.68410839714133
  O   -1.54808967398901      2.19087920520307     -0.41490434694310
  O   -1.48067399894038      0.43898112683704     -1.72669239326570
  N   -1.38491208658512     -0.99379753466605      0.67578705589540
  H   -2.17890048964474     -0.74226370834765      1.25051875674656
  H   -1.69227480280858     -1.44480521796997     -0.17938687126908
  C   1.36019452021919     -1.41962172728735      0.57864169357640
  N   1.86066233733761     -2.28181138909521      1.19942194716889
  N   1.71645095434470      0.76234635459671     -0.46749060994338
  O   1.28774535342041      1.65012328978308     -1.19534972364505
  O   2.81188089723674      0.71095789382776      0.07180144346553
