15
Coordinates from ORCA-job run
  C   -0.68017751868486      0.00309663629638      0.17236420833836
  C   0.84178557126258      0.12145870735482      0.31715993177143
  Br  -1.32830377930412     -0.93709832268013      1.83229743784302
  H   1.08121966675523      0.65593548590223      1.23441894270562
  N   -1.28790213507448      1.40690696976579      0.31180551416416
  O   -2.42421561958137      1.53156313242630     -0.11659901776124
  O   -0.59931371765168      2.26529524931739      0.84753387987391
  N   -1.09122072365033     -0.51167284227839     -1.04153846938243
  H   -0.65375590650014     -1.39486024699298     -1.26799571506304
  H   -2.09664899080646     -0.51972987787955     -1.14940558572343
  C   1.43042408325820      0.78545955808563     -0.84056726596059
  N   1.92291271856500      1.32781809982640     -1.75872174042845
  N   1.47081500180369     -1.25086470705402      0.45627689193957
  O   1.20652473516352     -2.07406558142283     -0.41429949702828
  O   2.20985661444521     -1.40924226066703      1.41727048471139
