15
Coordinates from ORCA-job run
  C   -0.60434616056198      0.21181450006138      0.36770222396539
  C   0.68707258203636     -0.35649761397574     -0.27782669627449
  Br  -0.16190770004267      1.11282873756413      2.00118901179520
  H   0.43281105113517     -0.66090566781670     -1.29856053913222
  N   -1.23357663326160      1.17631812527048     -0.66327783466934
  O   -1.47974027400124      0.61732647156099     -1.72803001772188
  O   -1.47733919663982      2.32587204516802     -0.35770483801573
  N   -1.61960945606770     -0.75536868803986      0.61182239480391
  H   -1.38025703714777     -1.37038400733523      1.37857917465098
  H   -1.83526822632694     -1.28152301615576     -0.22757768447484
  C   1.17455573834598     -1.48785275277816      0.49311565538308
  N   1.49919822207079     -2.43215202156125      1.11206707777911
  N   1.75333912409273      0.70600439894994     -0.42672265296540
  O   1.39638230021588      1.68870610187807     -1.06607155899062
  O   2.84768566615282      0.50581338720971      0.08029628386685
