15
Coordinates from ORCA-job run
  C   -0.69843923421678     -0.08669214129379      0.41304815463399
  C   0.79174326116213     -0.45441929747866      0.32579009630772
  Br  -1.17229623403881      0.07024830046915      2.28759764084129
  H   0.85545740581531     -1.51449618488182      0.59385867819139
  N   -0.90136907150268      1.33896109314886     -0.17586306907676
  O   -2.03280614404019      1.59215190999406     -0.56128345169796
  O   0.07325074113502      2.07871012319998     -0.19594485762722
  N   -1.51693319002501     -1.06479287287266     -0.18243161926764
  H   -2.49377688191208     -0.88620919730796      0.01262904190627
  H   -1.36543612525550     -1.07829991110874     -1.18459704327855
  C   1.69479588862071      0.31072113377194      1.17403048199973
  N   2.46947402430891      0.86718041679817      1.85913680237661
  N   1.30831917997090     -0.38934437130179     -1.11198917472149
  O   0.47482563188426     -0.26531241866858     -2.00297115518204
  O   2.51319074809382     -0.51840658246816     -1.25001052540533
