15
Coordinates from ORCA-job run
  C   -0.59381964722402      0.16817712719113      0.24278107221517
  C   0.74582497182699     -0.37828845327742     -0.26276373659212
  Br  -0.28611026641909      1.25419494351641      1.85676168636486
  H   0.58560048156668     -0.74607370467631     -1.28081462572102
  N   -1.24224952502857      1.04794005308872     -0.84798009547785
  O   -2.09516431456776      1.83565095327228     -0.47329841498601
  O   -0.92707233986625      0.79081425009264     -2.00043852484027
  N   -1.50663766528782     -0.89573559544555      0.40874553768495
  H   -2.41830359728331     -0.54680207143557      0.68466378317392
  H   -1.18541069173952     -1.56965250625899      1.09427792668305
  C   1.21293867549466     -1.44946165165108      0.60295537220992
  N   1.50490854840965     -2.34382411557947      1.30651131493922
  N   1.81286808875945      0.69436546416265     -0.39119563371449
  O   2.96580067327792      0.34369587792490     -0.18206029451235
  O   1.42582660808099      1.79399942907565     -0.75814536742698
