15
Coordinates from ORCA-job run
  C   -0.69036604066274     -0.03327676621107      0.32455557514961
  C   0.80011115177316     -0.38617549074079      0.37431113311273
  Br  -1.30932749493236      0.01568333041351      2.22142843346681
  H   0.88359897783367     -1.39120297728094      0.79601382919435
  N   -0.94125738678738      1.39244658945510     -0.19063644003392
  O   -0.18805411598261      2.26016759854225      0.21402517792083
  O   -1.90795790430970      1.53305045246844     -0.92740983284331
  N   -1.35068862814599     -0.92712894953971     -0.51647647780333
  H   -1.35887443119884     -1.87298369982500     -0.15822885424529
  H   -2.28062323893456     -0.61103356068897     -0.76021273022797
  C   1.67502019581058      0.51465072196378      1.11012155901662
  N   2.46467304597962      1.14715328661894      1.70676714090231
  N   1.29055843478383     -0.51449135783859     -1.05787360123371
  O   1.22554837422003      0.49583556357953     -1.74338375944427
  O   1.68763906055328     -1.62269474091650     -1.39300115293145
