15
Coordinates from ORCA-job run
  C   -0.64861521098193     -0.19716552937151      0.29147329630341
  C   0.87523602358548      0.01698316775023      0.31953103334116
  Br  -1.21205918146846     -1.41200209353595      1.69405547230760
  H   1.19521527126874      0.26666756141746      1.32981248740678
  N   -1.25393725689124      1.19138540679602      0.73123443914399
  O   -2.28514317689178      1.51927725426634      0.16347869854277
  O   -0.65801664750801      1.80740118802958      1.60474563005133
  N   -1.09902235776014     -0.64360075789332     -0.94627817514708
  H   -2.10635774639980     -0.72333750923826     -0.98513289632293
  H   -0.74851266736603     -0.09124846585898     -1.72043523856285
  C   1.23860236726703      1.06908487702785     -0.62228349336621
  N   1.48227470421495      1.92785269202284     -1.38635760229653
  N   1.57585402660049     -1.26813789638526     -0.06989003054660
  O   1.93138147801404     -1.97779064299097      0.86300510387846
  O   1.71310037431664     -1.48436925203606     -1.26695872473331
