15
Coordinates from ORCA-job run
  C   -0.63805590266999     -0.03803999758130      0.28979286697404
  C   0.88438023211090      0.10635468381865      0.17571164528721
  Br  -0.97177835373944     -1.19862947519062      1.90221840794561
  H   1.28178933715623      0.52846077968258      1.09671905323156
  N   -1.22029229738414      1.31824148858793      0.71452165896178
  O   -0.45242990458580      2.12284098023630      1.22544826799193
  O   -2.41584706758925      1.46190796164006      0.51405704696135
  N   -1.25667834192477     -0.40841641439372     -0.88821293164357
  H   -0.85764541658283     -1.23944166556247     -1.30388883040709
  H   -2.26480323814504     -0.43800436728365     -0.81549001029001
  C   1.25029043382268      0.92701205518798     -0.97331611013777
  N   1.56669040887510      1.59474342557869     -1.88639305277661
  N   1.53534372302531     -1.25429108756018      0.02342398038039
  O   1.13518818135867     -1.96066432886440     -0.89676124300350
  O   2.42184820627236     -1.52007403829585      0.82216925052469
