15
Coordinates from ORCA-job run
  C   -0.57305241290122      0.30488153387435      0.35150809549932
  C   0.65443678566692     -0.43608971732015     -0.24114217279078
  Br  -0.00180177514206      1.45459579855298      1.77555921922649
  H   0.33145395448012     -0.90233404173970     -1.17792370443237
  N   -1.21526047217166      1.10474495694677     -0.80465709382150
  O   -1.54250562670676      0.38120073037059     -1.74080311924481
  O   -1.39336545023070      2.30108283792648     -0.69703558112890
  N   -1.61517280720689     -0.54890825006715      0.81143402339966
  H   -1.35990652878818     -1.03251308311586      1.66262911677292
  H   -1.89968498417247     -1.20168664632624      0.08958994547418
  C   1.13393656285861     -1.43682642207651      0.69709905049419
  N   1.44799987389309     -2.27061144985244      1.46274948832949
  N   1.75627946160016      0.52544561598144     -0.62807929578395
  O   1.40860741853790      1.39600892777184     -1.41743055215169
  O   2.86703600028315      0.36100920907356     -0.14449741984225
