15
Coordinates from ORCA-job run
  C   -0.53833847547982      0.21849527193659      0.37665784303802
  C   0.72240649675174     -0.46106189157181     -0.19215476165187
  Br  -0.06999850403613      1.46972387292783      1.75143586094373
  H   0.42768546993902     -1.00355982555266     -1.09701856800296
  N   -1.22850223953953      0.96466512626014     -0.82073609636658
  O   -1.52981384280866      0.19376787033969     -1.72760741801870
  O   -1.47436327788070      2.15371206541063     -0.75293669535312
  N   -1.39589570626792     -0.78047650436294      0.89505816774642
  H   -1.75362396494501     -1.36851488573338      0.14953207029732
  H   -2.15766706093384     -0.38540106819385      1.43197414801875
  C   1.31888052177829     -1.36052384388584      0.78091431653015
  N   1.80247633912210     -2.11902499549631      1.53592342458973
  N   1.72803020967798      0.57546219847541     -0.65713327134424
  O   1.30705076210196      1.34118703984195     -1.51622337821842
  O   2.84367327252050      0.56254956960454     -0.15868564220821
