15
Coordinates from ORCA-job run
  C   -0.56723073107839      0.24831751110877      0.23527061903557
  C   0.70613219024943     -0.47039131562433     -0.22517620841178
  Br  -0.09895315747295      1.58137567200899      1.60746218295587
  H   0.46464203103090     -1.00008368686494     -1.15178134948467
  N   -1.22453420431880      0.96154538841657     -0.96691981351501
  O   -1.01105345719113      0.46505897868950     -2.06299700046212
  O   -1.98798782348508      1.87670314332316     -0.70625446738982
  N   -1.52969561095433     -0.70332277185486      0.63574365638449
  H   -1.20907018732837     -1.26226473957189      1.41822484499049
  H   -2.40218818375348     -0.24968246534577      0.88469955613137
  C   1.15806014433584     -1.40077705870594      0.79712774861783
  N   1.43585451760151     -2.17285501201394      1.63790600704605
  N   1.82307155290154      0.48901764684252     -0.59350671760608
  O   1.47900163084127      1.51815289588486     -1.15629547265453
  O   2.96395128862203      0.11820581370731     -0.35550358563763
