15
Coordinates from ORCA-job run
  C   -0.65042142772052     -0.03144401152298      0.26175148048108
  C   0.87793148894703      0.08575377054303      0.21528946137925
  Br  -1.07439884146398     -1.21577858607668      1.83461963148480
  H   1.24370116616963      0.48305506456298      1.16017376609768
  N   -1.22514817665791      1.32774690598423      0.68809272595968
  O   -2.40828635913606      1.49801802978041      0.44030897005281
  O   -0.46493385696758      2.10771965150610      1.24643761556122
  N   -1.22478099823069     -0.36684124836267     -0.94891368076177
  H   -2.23546412583212     -0.37799514223354     -0.91913269814241
  H   -0.82461754617243     -1.19815995698101     -1.36296558045537
  C   1.30773841307401      0.92059816760355     -0.90105564486872
  N   1.67597433925293      1.59898828096263     -1.78639060345259
  N   1.50941445373177     -1.28401054719933      0.06397666470276
  O   2.35671121895904     -1.58144907556452      0.89357802810803
  O   1.13558025204539     -1.96520130300208     -0.88577013614648
