15
Coordinates from ORCA-job run
  C   -0.69528188396405     -0.02478864005068      0.31089629800760
  C   0.79204027186300     -0.38544981436829      0.39127502660730
  Br  -1.34691546958490      0.04634000858272      2.19815613444392
  H   0.86221560736832     -1.38551549041083      0.82686394157442
  N   -0.93132135312291      1.39679261639572     -0.22042492301220
  O   -0.17332384324417      2.26309796554648      0.17836522094757
  O   -1.89495782136602      1.53678473822830     -0.96143004258170
  N   -1.34607056889507     -0.92240777093793     -0.53219294064282
  H   -1.35572014534971     -1.86793412622720     -0.17348853853179
  H   -2.27289790707148     -0.60803589588724     -0.78918889720324
  C   1.65850151199928      0.51918509023313      1.13227258296137
  N   2.43814755998131      1.14992735689231      1.74356441838406
  N   1.30573884536296     -0.53494165277016     -1.03046559538927
  O   1.27200970181372      0.47038217294524     -1.72549493158055
  O   1.68783549420973     -1.65343655817155     -1.34870775398466
