15
Coordinates from ORCA-job run
  C   -0.70107086589444     -0.08083418376606      0.40339939749647
  C   0.78881326907484     -0.45483242324889      0.33540204008300
  Br  -1.19704877115539      0.09108770640315      2.27080352410294
  H   0.84625747867187     -1.51322127267785      0.61132371050049
  N   -0.89154228530954      1.34035543604270     -0.19955241526208
  O   -2.01992913102167      1.59791194513956     -0.59068824048645
  O   0.08852485152348      2.07282526208513     -0.22334294071654
  N   -1.51637507987611     -1.06073485624625     -0.19385828443074
  H   -1.35490158539782     -1.08252726355418     -1.19419228531342
  H   -2.49448021313051     -0.87901919737324     -0.00852102932821
  C   1.68492441158999      0.31373390528810      1.18798023835822
  N   2.41819700838629      0.87248027206076      1.91539706103454
  N   1.32164568807989     -0.40160096567230     -1.09650850776382
  O   2.52890995209822     -0.52515060001782     -1.21854467038363
  O   0.49907527236090     -0.29047376446283     -1.99909759789076
