15
Coordinates from ORCA-job run
  C   -0.68721756157755     -0.08240749049939      0.32141468223221
  C   0.83200339037883     -0.26664945760545      0.40606351522306
  Br  -1.33346146166272      0.04701936685189      2.20637366551485
  H   1.01744935638399     -1.22106383699930      0.90555426924255
  N   -1.08222328772190      1.26264763359026     -0.30562126961376
  O   -2.03716801493100      1.23814477163371     -1.06996365598566
  O   -0.44134407364086      2.23716740967166      0.04635066783658
  N   -1.23557355641056     -1.10653948529473     -0.44804639804907
  H   -2.19069996925291     -0.91428686254425     -0.72154751123892
  H   -1.14523576756175     -2.01664452933891     -0.01611119333942
  C   1.59436302743648      0.77711751741292      1.07480395950398
  N   2.29965935604386      1.52923543715372      1.63716216199097
  N   1.35100046360987     -0.44917317115301     -1.00986865392043
  O   1.18314478846845      0.49360344084893     -1.77010685885628
  O   1.87530331043775     -1.52717074372802     -1.25645738054066
