15
Coordinates from ORCA-job run
  C   -0.59410697146747      0.19738997452358      0.29709491598357
  C   0.76737144878253     -0.41919514840269     -0.07868043944440
  Br  -0.37947654227511      1.53543092005225      1.65288381099981
  H   0.62176002147434     -1.01967634995273     -0.98320209745554
  N   -1.17351145656710      0.84329912957027     -1.01244018497303
  O   -1.31327387755066      0.01493478318295     -1.90780655803523
  O   -1.49483783782024      2.01587308205495     -1.03716248661841
  N   -1.44608471094483     -0.83416717438787      0.75723029340405
  H   -1.67126508102378     -1.47625245888167      0.00454536738783
  H   -2.29147799771292     -0.46937516959014      1.17771201514630
  C   1.29290201057023     -1.23232101949207      1.00492468893769
  N   1.72586778807960     -1.92226164475426      1.85096907945646
  N   1.75668928352543      0.66181537542397     -0.47158048639290
  O   1.40195499409479      1.35464570836272     -1.41805267455782
  O   2.79748892883518      0.75085999229073      0.16256475616163
