15
Coordinates from ORCA-job run
  C   -0.64538180992155      0.00672538717604      0.40583484535495
  C   0.83145961763978     -0.38767063124910      0.29568179245238
  Br  -1.02588474052800      0.17723818527185      2.35942932058757
  H   0.94335702732233     -1.36869158001520      0.76456108455421
  N   -0.92546709918201      1.40918043662798     -0.15480272544604
  O   -1.97791816461011      1.54041120030190     -0.76510939738760
  O   -0.10358250416072      2.27264289047832      0.09612633174740
  N   -1.42439786759693     -0.91055191898531     -0.29577583888356
  H   -2.37233861505893     -0.58515826296230     -0.43565626505009
  H   -1.40147816788555     -1.83864692765562      0.10542041585536
  C   1.81015714390854      0.52701956163940      0.86446582723183
  N   2.68001817097819      1.16348451929048      1.33094681852285
  N   1.13748900371948     -0.61336913826545     -1.17520581025686
  O   1.02764371555881      0.36133800837513     -1.90515335829718
  O   1.44632428981668     -1.75495173002813     -1.49076304098521
