15
Coordinates from ORCA-job run
  C   -0.62487146276751      0.16723307155436      0.15969301863722
  C   0.79183487372754     -0.35354581021184     -0.10405312935417
  Br  -0.54237909401077      1.70475089243779      1.38846197769380
  H   0.73779728039400     -1.03544711654266     -0.95799983944289
  N   -1.27313877624267      0.61261315243951     -1.16654899148473
  O   -2.26355868912457      1.31893502828723     -1.06900538250607
  O   -0.80957692492643      0.12496022246708     -2.18693234190561
  N   -1.44366919485275     -0.89623632606753      0.59801370575238
  H   -1.11333985181251     -1.29606599233566      1.46891115941466
  H   -2.40175162389977     -0.58401138884145      0.71528964721138
  C   1.29852867803661     -1.04528870406253      1.07106982069415
  N   1.62526390982041     -1.63691967508321      2.03198177218377
  N   1.76935668508707      0.72945749686972     -0.52878338419992
  O   2.94592245405526      0.51786808629277     -0.26879321332624
  O   1.30458173651607      1.67169706279641     -1.15230481936773
