15
Coordinates from ORCA-job run
  C   -0.65882735126578      0.10639731211185      0.19700609698089
  C   0.77823064506287     -0.33063560298115     -0.15783110557297
  Br  -0.73366826313585      1.33687266651230      1.73733529304693
  H   0.70732525041195     -0.90182416885248     -1.08604948083182
  N   -1.25153838081381      0.89951419448145     -0.96849757959161
  O   -2.46837014789058      0.87479812876759     -1.07572233132219
  O   -0.45957249536938      1.51098306674465     -1.67297402385671
  N   -1.43563672743033     -1.05988522938920      0.33535516099450
  H   -1.19606574792807     -1.57317742439022      1.17528575422109
  H   -2.42251295481250     -0.82725061185921      0.34040824348952
  C   1.29087517220882     -1.16941271290036      0.91763953857444
  N   1.66661747754841     -1.86445679052996      1.78699285448038
  N   1.80324519260180      0.75666994130583     -0.44162354431329
  O   2.31723309128381      0.70482258627300     -1.55080690356352
  O   2.06266523952864      1.53458464470592      0.46348202726438
