15
Coordinates from ORCA-job run
  C   -0.72317541532066     -0.03746373520597      0.32381543183767
  C   0.82766749571353      0.11344657938392      0.27908243226839
  Br  -1.17304081356668     -0.86461240982986      2.02442406712764
  H   1.17072711843474      0.72065803266878      1.11661924931029
  N   -1.21528751858905      1.43104358766986      0.36264584988947
  O   -0.76662698900593      2.12391370276249      1.26508377809589
  O   -1.96951082490393      1.78367719553547     -0.53281357576122
  N   -1.37438651182148     -0.69518681707770     -0.72692025991531
  H   -1.39443042389131     -0.14106437854362     -1.57416308045227
  H   -0.98494386296538     -1.61431830958259     -0.88884246382005
  C   1.20893135864589      0.69200721911991     -1.00168049399902
  N   1.45273410903027      1.17346301571871     -2.04559095867966
  N   1.48805473433828     -1.23551603538654      0.42906859738507
  O   2.25514975086393     -1.36154678027333      1.37437061737636
  O   1.19813779303779     -2.08650086695952     -0.40609919066327
