15
Coordinates from ORCA-job run
  C   -0.69588225291569     -0.02478872437631      0.30825519471307
  C   0.79043290114871     -0.38902412543138      0.39118160519460
  Br  -1.35319725784863      0.03703537926058      2.19332901607827
  H   0.85716808590204     -1.39147475398858      0.82181163148572
  N   -0.92727697334589      1.40023206490569     -0.21622270036097
  O   -1.88963045421115      1.54678120118273     -0.95758030067293
  O   -0.16711919970897      2.26227816578404      0.18760130104286
  N   -1.34600245652768     -0.91634102347492     -0.54218829068258
  H   -2.27078512738515     -0.59688998773365     -0.80049934409296
  H   -1.36111550813686     -1.86327019978767     -0.18734425555275
  C   1.65670165755027      0.50960022419765      1.13968180894675
  N   2.43181036835874      1.13320046234082      1.76390270894317
  N   1.30836527950442     -0.53228806447820     -1.02982291556299
  O   1.27737816759174      0.47632508191494     -1.72017557513627
  O   1.69115277002410     -1.64937570031574     -1.35192988434297
