15
Coordinates from ORCA-job run
  C   -0.61219918942184      0.20944566352739      0.15074284789240
  C   0.76149977853395     -0.41724005651841     -0.11130873570924
  Br  -0.44258617469734      1.60063523960269      1.53527294636380
  H   0.68812484174845     -0.99060834987240     -1.04036545946983
  N   -1.15086424859963      0.84628503617955     -1.14773630908313
  O   -2.04787897217567      1.66303937613879     -1.01642923991347
  O   -0.71348299003938      0.38915278171338     -2.19354438616153
  N   -1.54731560518690     -0.80658898988796      0.44428633618280
  H   -1.29734370337136     -1.32386188511863      1.27943326383416
  H   -2.47640090042886     -0.41566501757310      0.55850491744149
  C   1.13980526833154     -1.28138885945746      0.99555041748379
  N   1.35851655931637     -2.00606587483014      1.89398025178687
  N   1.85018921637276      0.61025808057502     -0.36774950125634
  O   1.50586331170129      1.62963233443913     -0.94693871700043
  O   2.98307280791662      0.29097052108215     -0.03469863239136
