15
Coordinates from ORCA-job run
  C   -0.74274762737498     -0.03359549732191      0.46382559329348
  C   0.77705219414024     -0.38429744867130      0.35274259711756
  Br  -1.15453575164952      0.01072161969133      2.34776221836712
  H   0.90386274209179     -1.39585797170142      0.74509216063079
  N   -0.88545878667914      1.37038166670866     -0.15777715238039
  O   -0.70508600622387      2.34842419170761      0.54837421646686
  O   -1.10539916872761      1.35313423935009     -1.36483920106725
  N   -1.65950270335068     -0.88048549626744     -0.19473660902079
  H   -1.69404753602116     -1.79777207076095      0.22831495961073
  H   -1.47485760704395     -0.94466432780821     -1.18774149021855
  C   1.65638572012264      0.55233206995404      1.03396275144664
  N   2.39453924083285      1.27554292988321      1.59319085806187
  N   1.15431107831622     -0.46617937753080     -1.11562051845575
  O   1.71381743684034      0.49942426522287     -1.61791270368848
  O   0.82066677472684     -1.50610879245577     -1.67663768016382
