15
Coordinates from ORCA-job run
  C   -0.75528533166855     -0.06462438569580      0.36674793302902
  C   0.77660872048194     -0.31585099574685      0.34233840935804
  Br  -1.27138519109853      0.15183950885357      2.22375790483037
  H   0.91859425952640     -1.35313376332874      0.66704326032316
  N   -1.01462192877578      1.30409707294430     -0.32627798577598
  O   -2.16306711789990      1.55057469809315     -0.64399338068035
  O   -0.03052359442077      2.02189959181325     -0.46972912609546
  N   -1.58935695212063     -1.03357657780280     -0.21345115146091
  H   -1.28019819440650     -1.31402802174833     -1.13299662914025
  H   -1.80549602335847     -1.80760243131877      0.39480428286784
  C   1.59222373149009      0.55576965254862      1.17525022554974
  N   2.25888399036205      1.20456045111326      1.89245428045120
  N   1.32254665526521     -0.28572268330140     -1.08442364860411
  O   0.51565225863327     -0.48005805739367     -1.98712682902996
  O   2.52642471799017     -0.13314405902980     -1.20439754562234
