15
Coordinates from ORCA-job run
  C   -0.65726682737808     -0.07818794693268      0.23245479579305
  C   0.87655447037942     -0.05695001470492      0.23305760942648
  Br  -1.19728797643938     -1.71604886538698      1.27248302431799
  H   1.24190864916619     -0.05197122730775      1.25812158757328
  N   -1.15565548909511      1.07318132258497      1.11801791830627
  O   -2.31871933763185      1.40185286137479      0.94600025449648
  O   -0.36214603035897      1.54733403705502      1.92018492534608
  N   -1.21931169916111      0.08315669097593     -1.01916043419402
  H   -0.85932146355531     -0.56780393670038     -1.70432293683057
  H   -2.22924085153561      0.12837593295789     -0.99848573796734
  C   1.38647309170784      1.09080138408870     -0.50815858861730
  N   1.81910346297401      2.01487840892806     -1.08999587591937
  N   1.42163280464975     -1.32243828159913     -0.39968321357065
  O   2.21230508224467     -1.96553671262447      0.27540940798247
  O   1.03997211403354     -1.58164365270907     -1.53692273614283
