15
Coordinates from ORCA-job run
  C   -0.72569856441853      0.03317927926406      0.42499614986931
  C   0.74312690605164     -0.44408249196730      0.26507259631573
  Br  -1.05754388630834      0.24109784763563      2.32454081494071
  H   0.74835443774561     -1.50439385884291      0.54318313124381
  N   -0.82373048553691      1.45645693352161     -0.19715461703601
  O   -1.94185268924150      1.89405685315954     -0.39390128600504
  O   0.24562478730855      2.01694314951080     -0.41385540641253
  N   -1.74151116696129     -0.77086510461939     -0.11570885004620
  H   -2.03866250324879     -1.52131200766239      0.48773772663799
  H   -1.54624393642653     -1.06300305728334     -1.06223199537279
  C   1.74269167801176      0.25770219974388      1.05676885830445
  N   2.56222450693810      0.75979262613801      1.73213505647386
  N   1.17618935197619     -0.43303151704587     -1.19984911907443
  O   0.28185506225771     -0.48339605911901     -2.03731670102679
  O   2.37617650185233     -0.43914479243332     -1.41541635881206
