15
Coordinates from ORCA-job run
  C   -0.69857357755364     -0.02189703323856      0.30250146338848
  C   0.78624979742222     -0.38819592769042      0.39965458391656
  Br  -1.37136569317542      0.04956613059814      2.18201295569048
  H   0.84762100879557     -1.38837947291745      0.83639658448095
  N   -0.92430296803216      1.40096623051705     -0.22963907385346
  O   -0.16222306947410      2.26295080532473      0.17088929171832
  O   -1.88551791743162      1.54659402578278     -0.97261842602862
  N   -1.34320740792810     -0.91614763775061     -0.54930806947374
  H   -1.36041406013624     -1.86182898312441     -0.19120394585535
  H   -2.26655950153439     -0.59770108495468     -0.81387128491448
  C   1.64813473989749      0.51284406016745      1.15031873491493
  N   2.42336335408514      1.13962709609826      1.77120660327187
  N   1.31576841635893     -0.54071790484320     -1.01604696928288
  O   1.29882613927675      0.46540979572520     -1.71053262310420
  O   1.69220073942958     -1.66209009969430     -1.33075982486886
