15
Coordinates from ORCA-job run
  C   -0.56815338537438      0.13999764969523      0.37123364792268
  C   0.75045870235747     -0.40313231383798     -0.21333844622458
  Br  -0.23243560446987      1.18157758019017      1.94499363233735
  H   0.53032711473892     -0.81155271183833     -1.20562300233571
  N   -1.21817307379397      1.03811506944422     -0.74236912564911
  O   -1.43875506569891      0.40399373133343     -1.77024606187357
  O   -1.51067407243081      2.19626380750217     -0.51438323852491
  N   -1.41134583957093     -0.95357648665159      0.67788492854078
  H   -2.21739682138555     -0.67172237927648      1.22122027287084
  H   -1.70122393748488     -1.43252287166350     -0.16829849643570
  C   1.32850433337047     -1.41908979727540      0.64996485241181
  N   1.80066414411777     -2.26646257072565      1.31200244337251
  N   1.73568997865377      0.72494638029750     -0.45455860939161
  O   2.81640696743793      0.67999618039459      0.11415463803627
  O   1.33610655953296      1.59216873241162     -1.22263743505705
