15
Coordinates from ORCA-job run
  C   -0.58783879380503      0.22084651443620      0.29224404969550
  C   0.77404026762275     -0.41147301069801     -0.05525580753439
  Br  -0.35771259076946      1.71729514819339      1.46798283943752
  H   0.61185571203064     -1.12033907682763     -0.87449636982881
  N   -1.22622369112388      0.69162116551002     -1.06306661769883
  O   -1.37832675651204     -0.24204623680052     -1.84571368617197
  O   -1.57425936659923      1.84653417037394     -1.21790529674794
  N   -1.39982406645461     -0.76309371674222      0.90451008717087
  H   -1.63723206901667     -1.49468567425047      0.24273180866625
  H   -2.23792094160046     -0.36529814124028      1.30933889259773
  C   1.35379327433376     -1.07662194225518      1.09930725242536
  N   1.83057015661635     -1.64988239711480      2.00668624057604
  N   1.72422409494847      0.63193628394756     -0.61174017730624
  O   2.78270973383137      0.81873600705785     -0.03024361765052
  O   1.32214503649802      1.19647090641016     -1.62237959763057
