15
Coordinates from ORCA-job run
  C   -0.54987248714451      0.20794999840013      0.36596543748781
  C   0.71386002983888     -0.47388804683344     -0.19311163442524
  Br  -0.11168715536302      1.32084069588793      1.86449609960796
  H   0.44916034499252     -0.92662081397039     -1.15482426381168
  N   -1.14382640203364      1.07995457366693     -0.79792838247105
  O   -1.34183311560927      2.26994554695072     -0.64407183551009
  O   -1.42873966009440      0.39949136369498     -1.77946158978940
  N   -1.47143388498574     -0.79331225690897      0.75252354974864
  H   -2.24699044081127     -0.41253211781417      1.27996526422706
  H   -1.80809933871417     -1.30323434846321     -0.05755914124653
  C   1.22274930599968     -1.47512669712569      0.72888881141273
  N   1.63622493948810     -2.31406583886170      1.43911086746533
  N   1.78015057008621      0.55565487261282     -0.51558635514313
  O   1.43986354646279      1.39719386856873     -1.33878317974008
  O   2.85947374788783      0.46674920019533      0.05037635218766
