15
Coordinates from ORCA-job run
  C   -0.65760906419348     -0.05521550659525      0.47610626134099
  C   0.81403257747460     -0.44842267555890      0.27470511716261
  Br  -0.95980894888698      0.18141642318181      2.37708233534966
  H   0.89419908055827     -1.49206056370390      0.59673928784966
  N   -0.89976109050423      1.34866060408590     -0.15096498339378
  O   0.06990776290801      2.08680754128888     -0.25717051489129
  O   -2.05407899093205      1.58872951385409     -0.47107910412329
  N   -1.53299175658967     -1.04669712144154     -0.00604592979323
  H   -1.48523106150412     -1.08803705931638     -1.01773879338585
  H   -2.48501533036653     -0.86020867696416      0.28129660618959
  C   1.80281147785482      0.34878743856806      0.98751348952601
  N   2.63661531160658      0.92120994307397      1.58425377168641
  N   1.19402555792096     -0.47357905923023     -1.20579390010877
  O   0.29351454370714     -0.31489497661931     -2.02322057838240
  O   2.36938993094666     -0.69549582462305     -1.44568306502633
