15
Coordinates from ORCA-job run
  C   -0.64166416103744     -0.06607145374516      0.27548029238062
  C   0.88474987744769      0.05865689074477      0.19696463009375
  Br  -1.01862020075837     -1.44421052783137      1.69546328936976
  H   1.27980557529252      0.32972418378394      1.17406180133403
  N   -1.19971461040553      1.22552202909066      0.89169282622016
  O   -0.42069868127431      1.92859578665011      1.52165753992380
  O   -2.38962682952958      1.42432989360766      0.70507919157702
  N   -1.25472654933159     -0.24321776451620     -0.94942991384429
  H   -2.26410541618447     -0.25775573687801     -0.88976028095090
  H   -0.87083077532262     -1.01365398595427     -1.48012665124822
  C   1.28242354737492      1.03126722430713     -0.81452003795557
  N   1.62438655299149      1.81867488391241     -1.61620570568544
  N   1.50748038426759     -1.27942393100171     -0.15004240918713
  O   1.10305495290658     -1.83182885175919     -1.16841836293194
  O   2.37808633356312     -1.68160864041077      0.60810379090434
