17

C	-0.300123	0.015782	-1.482177
C	0.0	0.0	0.0
Cl	0.488588	1.398577	-2.259659
H	1.092444	0.0	0.0
C	0.262133	-1.255217	-2.099943
H	-0.280144	-2.127836	-1.730793
H	0.189854	-1.202352	-3.186515
H	1.306597	-1.301181	-1.780712
N	-1.800036	0.076588	-1.793232
O	-2.551158	-0.326699	-0.909824
O	-2.142083	0.43106	-2.915227
C	-0.393909	-1.225689	0.662375
N	-0.632494	-2.272253	1.141521
N	-0.526725	1.154841	0.760277
O	-1.115762	2.048188	0.150354
O	-0.320369	1.141742	1.972082
F	2.46009	0.0	0.0
