17

C	-0.528216	0.011067	-1.434491
C	0.0	0.0	0.0
Cl	0.237061	-1.37427	-2.264076
H	1.091847	0.0	0.0
C	-2.027031	-0.0871	-1.599227
H	-2.496873	0.798838	-1.172222
H	-2.283881	-0.151933	-2.654486
H	-2.378895	-0.981543	-1.083835
N	-0.011208	1.250435	-2.181487
O	-0.690173	1.623788	-3.136384
O	1.046343	1.73487	-1.81813
C	-0.485422	-1.161466	0.712566
N	-0.896612	-2.108413	1.277095
N	-0.416528	1.206991	0.758134
O	-0.931515	2.145144	0.140999
O	-0.167438	1.214512	1.96038
F	2.423725	0.0	0.0
