17

C	-0.404349	0.052161	-1.453673
C	0.0	0.0	0.0
Cl	0.532144	1.265811	-2.33616
H	1.097762	0.0	0.0
C	-0.164921	-1.299681	-2.103805
H	-0.351804	-1.227197	-3.175862
H	-0.818674	-2.053413	-1.660571
H	0.878455	-1.561096	-1.918522
N	-1.900749	0.365792	-1.623961
O	-2.62406	0.028122	-0.692453
O	-2.28117	0.827022	-2.691965
C	-0.426725	-1.200565	0.685523
N	-0.709679	-2.21635	1.206054
N	-0.421281	1.184276	0.783092
O	-0.304211	1.107207	2.00335
O	-0.806239	2.180083	0.171413
F	2.437349	0.0	0.0
