17

C	-0.446934	0.012092	-1.450081
C	0.0	0.0	0.0
Cl	0.163132	1.39979	-2.376165
H	1.095371	0.0	0.0
C	0.040673	-1.254118	-2.121409
H	-0.171211	-1.216834	-3.187798
H	1.114717	-1.300361	-1.930793
H	-0.452206	-2.12587	-1.688771
N	-1.978852	0.098901	-1.554796
O	-2.505975	-0.40584	-2.54221
O	-2.569502	0.687312	-0.654838
C	-0.49898	-1.199256	0.644912
N	-0.888286	-2.211378	1.100877
N	-0.378645	1.18255	0.830634
O	-0.818974	0.966016	1.958387
O	-0.144653	2.293479	0.371006
F	2.452703	0.0	0.0
