17

C	-0.264547	-0.024605	-1.510475
C	0.0	0.0	0.0
F	0.127569	1.223825	-2.014999
H	1.088256	0.0	0.0
N	0.626118	-1.039789	-1.969407
H	1.544041	-0.841689	-1.547411
H	0.696622	-1.001536	-2.977672
N	-1.641873	-0.134147	-1.89353
H	-1.987995	-1.023475	-1.563337
H	-1.703686	-0.093097	-2.904681
N	-0.448945	-1.239744	0.691612
O	-1.402238	-1.889008	0.255098
O	0.178249	-1.531483	1.707031
N	-0.614626	1.139547	0.707383
O	-1.513152	0.904367	1.519696
O	-0.177968	2.25364	0.442288
F	2.542988	0.0	0.0
