17

C	-0.255727	-0.041393	-1.516274
C	0.0	0.0	0.0
F	-0.14422	1.30846	-1.933977
H	1.088268	0.0	0.0
N	0.802189	-0.82577	-2.035317
H	0.865858	-0.723177	-3.038044
H	1.68288	-0.571184	-1.55697
N	-1.588778	-0.404883	-1.920291
H	-1.697661	-1.391387	-1.733754
H	-1.663103	-0.240772	-2.91753
N	-0.460063	-1.187166	0.751688
O	-0.298954	-1.133272	1.967702
O	-0.912403	-2.161015	0.152895
N	-0.62935	1.187345	0.619477
O	0.052989	2.201173	0.706579
O	-1.806947	1.084675	0.969372
F	2.568965	0.0	0.0
