17

C	-0.210168	0.082872	-1.52747
C	0.0	0.0	0.0
F	0.085804	-1.230585	-1.948863
H	1.10387	0.0	0.0
N	-1.514431	0.477272	-1.914175
H	-1.541195	0.508351	-2.925776
H	-2.173967	-0.20774	-1.567845
N	0.775676	0.914443	-2.138669
H	0.564067	1.867976	-1.868607
H	1.6633	0.673799	-1.675442
N	-0.614778	-1.184785	0.633659
O	-0.052296	-1.639717	1.625393
O	-1.662434	-1.629481	0.157145
N	-0.541129	1.190479	0.678204
O	-0.115717	2.278203	0.30169
O	-1.378424	1.038267	1.570164
F	2.533962	0.0	0.0
