17

C	-0.255542	0.009911	-1.515225
C	0.0	0.0	0.0
F	-0.131546	-1.391603	-1.863362
H	1.103955	0.0	0.0
N	-1.542918	0.465751	-1.899752
H	-1.565612	0.645492	-2.895395
H	-2.232315	-0.228247	-1.639684
N	0.793793	0.73011	-2.132001
H	1.653495	0.568883	-1.58389
H	0.923674	0.362668	-3.066661
N	-0.633378	-1.161738	0.660104
O	0.018966	-1.746919	1.519178
O	-1.784287	-1.454626	0.330926
N	-0.501117	1.220067	0.668077
O	-1.240289	1.089765	1.644412
O	-0.098646	2.286695	0.225204
F	2.556822	0.0	0.0
