17

C	-0.275404	0.066818	-1.516119
C	0.0	0.0	0.0
F	-1.433028	0.848663	-1.769335
H	1.103499	0.0	0.0
N	0.850399	0.697216	-2.102024
H	0.983442	0.395748	-3.058302
H	1.694343	0.516202	-1.534152
N	-0.515745	-1.259315	-2.015278
H	-0.420022	-1.246849	-3.022697
H	-1.457923	-1.543134	-1.776319
N	-0.618573	-1.173562	0.653267
O	-1.805632	-1.404534	0.404227
O	0.074251	-1.827226	1.426808
N	-0.465823	1.203299	0.72701
O	-1.126413	1.047366	1.756451
O	-0.102446	2.281706	0.276287
F	2.567564	0.0	0.0
