17

C	-0.229001	0.090769	-1.524864
C	0.0	0.0	0.0
F	-1.422261	-0.575887	-1.874669
H	1.087784	0.0	0.0
N	-0.257358	1.454085	-1.907977
H	-0.105498	1.487002	-2.907136
H	-1.136718	1.878546	-1.648563
N	0.847743	-0.553523	-2.225833
H	1.70174	-0.31189	-1.695086
H	0.724605	-1.54955	-2.082433
N	-0.486246	-1.276613	0.559549
O	-1.184205	-1.254825	1.573228
O	-0.12452	-2.298243	-0.018984
N	-0.614877	1.085172	0.79243
O	0.011386	1.497143	1.764949
O	-1.731099	1.489944	0.450651
F	2.551044	0.0	0.0
