17

C	-0.198896	0.025592	-1.526799
C	0.0	0.0	0.0
F	-1.482445	-0.354094	-1.890598
H	1.10395	0.0	0.0
N	-0.029302	1.368739	-2.046133
H	-0.745545	1.987341	-1.683578
H	0.884065	1.693909	-1.744624
N	0.76667	-0.858189	-2.082264
H	0.933807	-0.563332	-3.036805
H	1.631976	-0.765918	-1.5352
N	-0.537831	-1.168562	0.72364
O	-0.895335	-0.982175	1.88932
O	-0.53204	-2.252196	0.153123
N	-0.583056	1.205793	0.632388
O	0.170609	1.963447	1.23941
O	-1.793064	1.390881	0.477114
F	2.558174	0.0	0.0
