17

C	-0.545916	-0.101678	-1.42061
C	0.0	0.0	0.0
F	0.12192	0.822265	-2.198521
H	1.104415	0.0	0.0
N	-0.173581	-1.404701	-1.944956
H	-0.985511	-1.998124	-2.017774
H	0.265041	-1.276072	-2.846913
N	-1.936831	0.263275	-1.481215
H	-2.4568	-0.359095	-0.876049
H	-2.262583	0.164096	-2.436245
N	-0.474373	-1.13063	0.834095
O	-1.463292	-1.785066	0.474459
O	0.147549	-1.343436	1.868817
N	-0.495724	1.235799	0.656374
O	-1.311393	1.144518	1.577656
O	-0.056577	2.288193	0.208288
F	2.478555	0.0	0.0
