15

C	-0.477615	-0.035591	-1.427895
C	0.0	0.0	0.0
Br	0.306399	1.580248	-2.378582
H	1.087929	0.0	0.0
H	0.053001	-0.851409	-1.912804
N	-1.875024	-0.164533	-1.580992
H	-2.132315	-0.243945	-2.556956
H	-2.340395	0.628672	-1.158613
N	-0.347834	-1.267581	0.649082
O	-0.023741	-2.275254	0.009091
O	-0.855645	-1.277718	1.773607
N	-0.482409	1.117339	0.797416
O	-1.398473	1.834506	0.358102
O	0.112118	1.318548	1.859916
H	2.400931	0.0	0.0
