15

C	-0.415899	0.042038	-1.434078
C	0.0	0.0	0.0
Br	-2.481961	0.520574	-1.565064
H	1.089779	0.0	0.0
H	-0.003195	0.947405	-1.86961
N	-0.077669	-1.085853	-2.16541
H	-0.25513	-0.977527	-3.151447
H	-0.493408	-1.92408	-1.783743
N	-0.400642	-1.156597	0.761533
O	0.039408	-1.226339	1.91529
O	-1.025622	-2.075446	0.195203
N	-0.333596	1.26279	0.672378
O	0.066222	2.265086	0.071628
O	-0.926036	1.272417	1.749545
H	2.343545	0.0	0.0
