15

C	-0.415574	0.064756	-1.46494
C	0.0	0.0	0.0
Br	-0.14065	-1.716938	-2.261277
H	1.088148	0.0	0.0
H	-1.477593	0.272055	-1.583733
N	0.37797	1.017066	-2.192385
H	1.348525	0.89657	-1.89883
H	0.078018	1.935747	-1.884836
N	-0.52319	-1.179686	0.740769
O	0.240184	-1.798527	1.473814
O	-1.717397	-1.439446	0.565829
N	-0.458488	1.159608	0.744084
O	-0.873115	2.14953	0.112883
O	-0.296871	1.134895	1.973065
H	2.516413	0.0	0.0
