15

C	-0.35782	0.134064	-1.472355
C	0.0	0.0	0.0
Br	-0.507396	-1.792645	-2.296441
H	1.086963	0.0	0.0
H	-1.370294	0.484089	-1.662024
N	0.640808	0.905297	-2.029078
H	0.587996	1.036785	-3.026725
H	1.576067	0.651801	-1.682223
N	-0.595361	-1.171124	0.683178
O	-1.811313	-1.11638	0.88296
O	0.143017	-2.09882	0.992371
N	-0.463121	1.179644	0.765355
O	-0.180258	1.161904	1.964019
O	-1.044204	2.097788	0.182592
H	2.629909	0.0	0.0
