15

C	-0.438367	-0.004316	-1.427386
C	0.0	0.0	0.0
Br	-2.523199	0.387448	-1.5254
H	1.09039	0.0	0.0
H	-0.072442	0.907806	-1.889106
N	-0.067863	-1.133833	-2.140735
H	-0.435798	-1.979077	-1.726736
H	-0.281378	-1.059708	-3.123446
N	-0.372327	-1.142285	0.79694
O	-0.967363	-2.09511	0.254124
O	0.075952	-1.171084	1.949731
N	-0.340966	1.276102	0.640702
O	0.028061	2.267189	0.002027
O	-0.910366	1.310723	1.729942
H	2.338901	0.0	0.0
