15

C	-0.288572	-0.043726	-1.470962
C	0.0	0.0	0.0
Br	-2.236524	-0.069013	-1.926391
H	1.092355	0.0	0.0
H	0.032318	0.916339	-1.880693
N	0.34674	-1.209912	-2.006089
H	0.472302	-1.101061	-3.004072
H	1.267589	-1.276854	-1.565738
N	-0.500414	-1.190745	0.715253
O	0.253645	-2.161231	0.755144
O	-1.636062	-1.145592	1.192727
N	-0.399088	1.223109	0.678231
O	-0.394702	1.20518	1.910835
O	-0.53893	2.238072	-0.015358
H	2.487495	0.0	0.0
