15

C	-0.398693	0.044751	-1.477706
C	0.0	0.0	0.0
Br	-0.325249	-1.788538	-2.202319
H	1.088302	0.0	0.0
H	-1.437319	0.354734	-1.599524
N	0.483496	0.875861	-2.243213
H	0.257179	1.834279	-2.001309
H	1.435355	0.696166	-1.913322
N	-0.580387	-1.141583	0.749989
O	0.178459	-1.947396	1.276327
O	-1.812665	-1.194414	0.771262
N	-0.436582	1.19961	0.701123
O	-0.449226	1.154725	1.936405
O	-0.651743	2.226096	0.035658
H	2.543101	0.0	0.0
