15

C	-0.523018	-0.029724	-1.412835
C	0.0	0.0	0.0
Br	0.13943	1.647435	-2.34394
H	1.08789	0.0	0.0
H	0.030967	-0.804823	-1.938523
N	-1.916553	-0.230074	-1.513383
H	-2.216879	-0.288617	-2.476178
H	-2.406466	0.514183	-1.034563
N	-0.376503	-1.251359	0.662065
O	-0.964112	-1.225224	1.748163
O	-0.01115	-2.273429	0.072504
N	-0.484163	1.119278	0.816354
O	-1.496334	1.744418	0.461629
O	0.188925	1.386698	1.810764
H	2.447115	0.0	0.0
