13

C	-0.334417	0.017187	-1.47146
C	0.0	0.0	0.0
Br	-2.313819	0.297063	-1.727538
H	1.097204	0.0	0.0
H	-0.209371	-0.988325	-1.881822
H	-0.330065	0.946992	0.446744
N	0.379558	1.067605	-2.126278
H	1.325144	1.09301	-1.746989
H	0.432231	0.905172	-3.122765
N	-0.501259	-1.199486	0.655705
H	-1.414425	-1.025321	1.054251
H	0.132608	-1.4442	1.405277
Br	3.613546	0.0	0.0
