13

C	-0.401313	-0.080516	-1.458191
C	0.0	0.0	0.0
Br	-0.268948	1.824513	-2.29866
H	1.101693	0.0	0.0
H	-1.462926	-0.26536	-1.618156
H	-0.319577	-0.956673	0.43053
N	0.414212	-1.008678	-2.110236
H	1.397257	-0.856223	-1.896149
H	0.262466	-1.055241	-3.107013
N	-0.65553	1.07562	0.738595
H	-0.253741	1.951438	0.422507
H	-0.379055	0.97716	1.709394
Br	3.680901	0.0	0.0
