13

C	-0.577117	0.022217	-1.409578
C	0.0	0.0	0.0
Br	-0.078363	-1.620349	-2.33839
H	1.097356	0.0	0.0
H	-0.111522	0.826288	-1.986074
H	-0.36906	-0.892945	0.515339
N	-2.021944	0.171863	-1.477095
H	-2.43605	-0.666234	-1.078064
H	-2.2175	0.926646	-0.821775
N	-0.509185	1.209938	0.691536
H	-0.569657	1.010036	1.68214
H	0.207424	1.923376	0.601494
Br	3.700863	0.0	0.0
