13

C	-0.341396	-0.132762	-1.484824
C	0.0	0.0	0.0
Br	-0.406373	1.786231	-2.306389
H	1.095347	0.0	0.0
H	-1.370722	-0.438301	-1.6818
H	-0.392855	0.922227	0.424815
N	0.576688	-0.980814	-2.1043
H	1.538675	-0.745209	-1.864188
H	0.454092	-1.076045	-3.101529
N	-0.449941	-1.151104	0.778081
H	0.084895	-1.960072	0.485753
H	-1.427977	-1.343578	0.58996
Br	3.665108	0.0	0.0
