13

C	-0.460799	-0.062649	-1.445372
C	0.0	0.0	0.0
Br	-0.243778	1.712758	-2.300067
H	1.102207	0.0	0.0
H	-1.534782	-0.248802	-1.513891
H	-0.31199	-0.962101	0.431244
N	0.261567	-1.026541	-2.236083
H	-0.039837	-1.955987	-1.96188
H	1.252822	-0.942579	-2.016701
N	-0.641948	1.06411	0.773894
H	-0.339661	0.956548	1.73635
H	-0.245071	1.943405	0.459954
Br	3.691872	0.0	0.0
