13

C	-0.580206	0.030024	-1.408388
C	0.0	0.0	0.0
Br	-0.072731	-1.599553	-2.354138
H	1.09734	0.0	0.0
H	-0.123059	0.842362	-1.978341
H	-0.367538	-0.896437	0.509712
N	-2.026514	0.169397	-1.471212
H	-2.432882	-0.67595	-1.080233
H	-2.226563	0.917071	-0.808335
N	-0.510261	1.204324	0.699249
H	0.205857	1.919389	0.615828
H	-0.571665	0.99739	1.688642
Br	3.705438	0.0	0.0
