13

C	-0.34538	-0.112791	-1.489919
C	0.0	0.0	0.0
Br	-0.334627	1.808072	-2.336783
H	1.094814	0.0	0.0
H	-1.383783	-0.369997	-1.704295
H	-0.322471	-0.953224	0.436276
N	0.543741	-0.989404	-2.099915
H	1.512824	-0.800188	-1.849516
H	0.423686	-1.09073	-3.096073
N	-0.532883	1.098645	0.777828
H	-0.004448	1.931115	0.5529
H	-1.493975	1.280642	0.516265
Br	3.65943	0.0	0.0
