14

C	-0.338123	0.040433	-1.491494
C	0.0	0.0	0.0
Cl	-0.029245	-1.525144	-2.232851
H	1.092946	0.0	0.0
H	-0.321175	0.950994	0.436719
N	-1.82972	0.394975	-1.636793
O	-2.640173	-0.454412	-1.976007
O	-2.091977	1.557552	-1.332785
N	0.390427	1.049808	-2.204011
H	1.380269	0.843685	-2.068489
H	0.202888	1.942181	-1.757908
C	-0.599224	-1.099565	0.735821
N	-1.116274	-1.962522	1.341484
Cl	3.273979	0.0	0.0
