14

C	-0.309795	-0.265762	-1.472894
C	0.0	0.0	0.0
Cl	-2.060754	-0.508378	-1.759267
H	1.094023	0.0	0.0
H	-0.398683	0.954561	0.341548
N	0.060393	1.03508	-2.224816
O	0.813379	0.949005	-3.182231
O	-0.446934	2.062995	-1.789966
N	0.41201	-1.336245	-2.062743
H	0.122264	-2.203314	-1.623491
H	1.40395	-1.190024	-1.867786
C	-0.47879	-1.097906	0.822844
N	-0.864293	-1.995131	1.474571
Cl	3.260581	0.0	0.0
