14

C	-0.574137	0.01617	-1.419069
C	0.0	0.0	0.0
Cl	0.087545	1.36525	-2.325542
H	1.093621	0.0	0.0
H	-0.331067	-0.924881	0.482423
N	-0.160943	-1.317505	-2.070788
O	-0.651178	-2.295246	-1.507525
O	0.549665	-1.333186	-3.059208
N	-2.010347	0.031798	-1.54244
H	-2.352076	0.93259	-1.228377
H	-2.388629	-0.691159	-0.939858
C	-0.538069	1.132534	0.73937
N	-1.033563	2.039505	1.297159
Cl	3.285466	0.0	0.0
