14

C	-0.529713	0.005052	-1.426135
C	0.0	0.0	0.0
Cl	-0.216578	-1.515247	-2.264394
H	1.091815	0.0	0.0
H	-0.320548	0.936752	0.470333
N	-2.106147	0.132978	-1.286644
O	-2.831194	-0.843061	-1.412186
O	-2.478013	1.271489	-1.005372
N	0.001129	1.078554	-2.149395
H	0.038074	1.93022	-1.610901
H	-0.439106	1.215153	-3.047776
C	-0.531007	-1.105575	0.785251
N	-0.974114	-1.974802	1.438123
Cl	3.298469	0.0	0.0
