14

C	-0.322696	0.075031	-1.495793
C	0.0	0.0	0.0
Cl	-0.046266	-1.483159	-2.26422
H	1.092926	0.0	0.0
H	-0.319237	0.943659	0.453472
N	-1.802336	0.471505	-1.651295
O	-2.632229	-0.34475	-2.024846
O	-2.036985	1.63193	-1.32153
N	0.437747	1.077898	-2.182241
H	0.264997	1.966434	-1.723397
H	1.420721	0.849857	-2.031921
C	-0.607179	-1.112493	0.70994
N	-1.131372	-1.986384	1.294352
Cl	3.276546	0.0	0.0
