14

C	-0.566216	0.029113	-1.422967
C	0.0	0.0	0.0
Cl	0.119809	1.372205	-2.318677
H	1.093054	0.0	0.0
H	-0.334501	-0.928526	0.472122
N	-0.167147	-1.306589	-2.07467
O	-0.683351	-2.279855	-1.528461
O	0.564229	-1.327552	-3.048894
N	-2.001347	0.066145	-1.555182
H	-2.329434	0.972509	-1.244563
H	-2.394173	-0.649917	-0.952817
C	-0.540615	1.127219	0.744362
N	-1.04032	2.032246	1.301482
Cl	3.281675	0.0	0.0
