14

C	-0.31936	-0.06619	-1.480266
C	0.0	0.0	0.0
Cl	-2.076792	-0.291968	-1.799475
H	1.093294	0.0	0.0
H	-0.304672	-0.968482	0.40614
N	-0.016118	1.291095	-2.192764
O	-0.024691	2.317083	-1.527915
O	0.18657	1.2135	-3.401627
N	0.422882	-1.114348	-2.047284
H	1.391036	-1.047873	-1.726454
H	0.383232	-1.068316	-3.057738
C	-0.618263	1.049509	0.788023
N	-1.121541	1.837092	1.498086
Cl	3.265141	0.0	0.0
