18

C	0.0	0.0	0.0
C	-0.487128	-0.131767	-1.441948
Br	1.982388	0.0	0.0
H	-0.059956	0.692912	-2.024273
H	-1.572933	0.024295	-1.389162
C	-0.455133	1.33129	0.574574
H	-0.115505	2.162407	-0.049213
H	-0.069719	1.47485	1.587323
H	-1.550479	1.320407	0.599177
C	-0.472313	-1.146317	0.876295
H	-0.165852	-0.985232	1.912971
H	-1.567217	-1.160533	0.824003
H	-0.073166	-2.106285	0.544981
C	-0.20502	-1.462353	-2.129078
H	-0.770452	-2.271479	-1.663003
H	-0.517515	-1.411652	-3.175807
H	0.858361	-1.714712	-2.103521
Br	-4.066814	0.0	0.0
