19

C	-0.173066	-0.028443	-1.52353
C	0.0	0.0	0.0
F	0.001336	-1.415341	-1.914664
H	1.1028	0.0	0.0
C	-1.535131	0.325876	-2.078846
H	-1.758498	1.376706	-1.892043
H	-1.557785	0.146147	-3.158718
H	-2.290917	-0.299961	-1.600449
N	0.881357	0.758279	-2.050041
H	0.997132	0.580029	-3.039772
H	1.747779	0.537003	-1.523533
N	-0.661112	-1.15447	0.625652
H	-0.255289	-1.974948	0.190873
H	-0.342757	-1.172194	1.590233
C	-0.51452	1.288187	0.610867
H	-0.194207	1.351854	1.657115
H	-0.092175	2.145484	0.084236
H	-1.609318	1.337325	0.588215
F	2.791408	0.0	0.0
