19

C	-0.282674	-0.058216	-1.503536
C	0.0	0.0	0.0
F	-0.048944	1.249767	-2.030156
H	1.0957	0.0	0.0
C	0.730281	-0.956321	-2.183678
H	0.498266	-2.004457	-1.986032
H	0.720767	-0.7848	-3.265418
H	1.706842	-0.710681	-1.746266
N	-1.639245	-0.428603	-1.812146
H	-1.753043	-0.442911	-2.820155
H	-2.256508	0.287037	-1.442513
N	-0.400415	-1.256848	0.65764
H	-1.13203	-1.705474	0.118049
H	0.413078	-1.859951	0.653393
C	-0.627406	1.192736	0.695112
H	-0.297958	1.193685	1.73625
H	-1.725806	1.135719	0.701531
H	-0.321242	2.129468	0.226376
F	2.762854	0.0	0.0
