19

C	-0.058631	-0.017449	-1.531647
C	0.0	0.0	0.0
F	-1.358889	-0.355047	-1.99077
H	1.098618	0.0	0.0
C	0.3397	1.31614	-2.123353
H	0.419348	1.211335	-3.206978
H	-0.384433	2.095505	-1.880327
H	1.318546	1.56496	-1.703932
N	0.857269	-1.019693	-2.058897
H	0.550998	-1.914853	-1.687628
H	1.74093	-0.809951	-1.563444
N	-0.484922	-1.251816	0.596828
H	-1.241227	-1.628828	0.033905
H	0.274625	-1.920914	0.602384
C	-0.654484	1.188514	0.674736
H	-1.720959	1.257151	0.422122
H	-0.170093	2.129445	0.403728
H	-0.572814	1.062218	1.756337
F	2.755046	0.0	0.0
