19

C	-0.28658	-0.074402	-1.50161
C	0.0	0.0	0.0
F	-0.05027	1.227604	-2.042099
H	1.095726	0.0	0.0
C	0.72323	-0.985441	-2.172476
H	0.489009	-2.030603	-1.959652
H	0.709747	-0.829921	-3.256697
H	1.703629	-0.737496	-1.741682
N	-1.645365	-0.44414	-1.803513
H	-2.259704	0.276484	-1.439109
H	-1.76405	-0.468411	-2.810656
N	-0.401479	-1.250755	0.669084
H	0.419872	-1.843193	0.696412
H	-1.112472	-1.718206	0.118172
C	-0.626011	1.200363	0.683826
H	-1.724594	1.147166	0.688639
H	-0.315549	2.132297	0.208988
H	-0.298778	1.207884	1.725562
F	2.762627	0.0	0.0
