19

C	-0.10678	-0.036964	-1.521504
C	0.0	0.0	0.0
F	-1.450917	-0.196143	-1.937523
H	1.099828	0.0	0.0
C	0.455328	1.227366	-2.136191
H	1.442666	1.377784	-1.690848
H	0.546922	1.08629	-3.215085
H	-0.186907	2.087301	-1.938244
N	0.649377	-1.164623	-2.03057
H	1.59142	-0.989003	-1.658585
H	0.314902	-1.956146	-1.483633
N	-0.477105	-1.272944	0.553229
H	0.079855	-1.483467	1.372989
H	-1.444445	-1.182429	0.847516
C	-0.605066	1.218146	0.676821
H	-0.462892	1.144724	1.760199
H	-1.683201	1.292246	0.476968
H	-0.128325	2.14478	0.349661
F	2.743987	0.0	0.0
