15
Coordinates from ORCA-job run
  C   0.30799804407220      0.54635880324505     -0.21714908647627
  C   -0.19898555331773     -0.85157899870349      0.18410303675083
  Br  1.13086869445606      0.47214132450345     -1.98353034164153
  H   -0.60412157051340     -0.71312812105979      1.20687862497084
  N   -0.86891923260904      1.40157556675784     -0.33958330341355
  H   -0.65656077292710      2.22350905488519     -0.89186280430724
  H   -1.14477691546962      1.70725103675213      0.58944235700374
  N   1.34180819995197      0.92950926149258      0.71063363668065
  H   0.96133552841774      1.00625698562672      1.64869355298310
  H   1.75903101517910      1.81376896035540      0.44670078095204
  C   0.90648936464246     -1.80847874816336      0.30347356349681
  N   1.73610587491870     -2.62785925046110      0.43535989945107
  N   -1.17710423411942     -1.33440248782558     -0.76944490164098
  H   -1.86127239056069     -0.59969964010189     -0.90870252464521
  H   -1.63289605212123     -2.16522374730314     -0.41401249016431
