15
Coordinates from ORCA-job run
  C   0.10135292161863      0.68522657805614      0.06161224928533
  C   -0.52620690864923     -0.70756761081494     -0.07636537891628
  Br  -0.31908056343692      1.44044546604349     -2.06628015680660
  H   -1.56820514265265     -0.57061037458860     -0.39341702348712
  N   -0.59874634230126      1.52864537564632      0.90296216637952
  H   -1.54567385814445      1.69007417443886      0.58949273755777
  H   -0.13238916239176      2.40774154880820      1.08211090849642
  N   1.44885241078553      0.61823230215381      0.25480874241262
  H   1.86779285854489     -0.11680843624892     -0.30205606487089
  H   1.94876686622163      1.49407841484107      0.21692665148377
  C   -0.53086492213241     -1.34515202157655      1.24882900658502
  N   -0.55934473575374     -1.89822493284032      2.28380803179041
  N   0.27896031655704     -1.51027631881884     -0.98741844948943
  H   0.06220058405916     -2.49296464627885     -0.87921269188645
  H   0.07158567767553     -1.22383951882087     -1.93780072853410
