15
Coordinates from ORCA-job run
  C   0.07880586028304      0.66953725082670      0.09102511593143
  C   -0.53814578370875     -0.73914136927025      0.19964140931638
  Br  -0.59639203466273      1.63056761616405      1.84415384551044
  H   -1.62201990697727     -0.59528667852205      0.31452006284487
  N   1.47362052132665      0.63588342413384      0.02762668986953
  H   1.87932020324056     -0.05676185733485      0.64231671682046
  H   1.89389798702200      1.53986152368997      0.19762575346998
  N   -0.47039342259521      1.34105852706078     -1.03227710465058
  H   0.13206253494938      2.08939486037360     -1.34951243464527
  H   -1.39277644319321      1.70678542840141     -0.83675513112466
  C   -0.04896940229610     -1.43265461630732      1.39883193325661
  N   0.36775741137521     -2.02989876046126      2.31962839326771
  N   -0.14107511083924     -1.50204890470171     -0.97704400586615
  H   -0.70794195935446     -2.33843772225694     -1.04942362625029
  H   -0.30775045456987     -0.91885872179598     -1.78935761775046
