15
Coordinates from ORCA-job run
  C   0.10375073596318      0.68472464820397      0.06067217857496
  C   -0.53057697259299     -0.70572934910074     -0.07353234963111
  Br  -0.32341621218945      1.44196954488476     -2.06472329810873
  H   -1.57421571604661     -0.56488716340238     -0.38305826324408
  N   -0.58799803205655      1.53099323023342      0.90567067430081
  H   -0.11413795876928      2.40461462846715      1.09020536947943
  H   -1.53436018816360      1.70114150773369      0.59578998011147
  N   1.45200647078665      0.61132098758563      0.24795745118482
  H   1.86448228514267     -0.12603861794384     -0.31075635750198
  H   1.95587234626075      1.48462370425421      0.20605084492503
  C   -0.52752364644243     -1.34271862522722      1.25209088691406
  N   -0.54893194856711     -1.89515843324543      2.28750398493907
  N   0.26528153105046     -1.51074951668119     -0.99054149936266
  H   0.04476245751566     -2.49256616280866     -0.88234848235603
  H   0.05300484810872     -1.22154038295335     -1.93898112022506
