15
Coordinates from ORCA-job run
  C   0.00207256476233      0.70765209178430     -0.11624988680526
  C   -0.52886955665006     -0.73905018810521     -0.13679205644183
  Br  -0.41093971899121      1.40632289648982     -2.00976513659512
  H   -1.58080635029547     -0.67718499409869     -0.43996228978640
  N   -0.81641986259103      1.51561289960744      0.74888372241351
  H   -0.85408077194084      2.47683871324267      0.43884844123854
  H   -0.41937198062713      1.47706952657386      1.68241200623242
  N   1.36400089665013      0.69831158251034      0.18726213870576
  H   1.80368485819694      1.60531914199507      0.11679556448390
  H   1.85885706881902     -0.01619584946341     -0.33395911586861
  C   -0.49201911199356     -1.24659323189536      1.24076890671614
  N   -0.47868761832076     -1.66564905809994      2.33710986278662
  N   0.31559380743390     -1.57404673327916     -0.98534881795176
  H   0.17220260260814     -2.55406837268171     -0.77611113996451
  H   0.06478317293959     -1.41333842458003     -1.95389219916340
