15
Coordinates from ORCA-job run
  C   -0.01543638210471      0.69265298519708     -0.29226967947177
  C   -0.66952326781785     -0.70376479601410     -0.24971736940740
  Br  -0.25149318177911      1.42954640463812     -2.08345111427164
  H   -1.73031330047509     -0.57235710467468     -0.47637252779689
  N   -0.74487884030620      1.55885808199753      0.60749259195893
  H   -0.44139963646761      2.51895637056482      0.49610552626324
  H   -0.57903983514897      1.27576324111614      1.56893282613213
  N   1.41576740945967      0.51722104039885     -0.09305535501367
  H   1.92355149341194      1.34195654517999     -0.38884766272228
  H   1.59523885549454      0.36764175661611      0.89618216574065
  C   -0.55023728182511     -1.16900881043406      1.15393634249909
  N   -0.39370828170739     -1.53357366409693      2.26079475388625
  N   -0.06145902160311     -1.59123083168216     -1.21381042943465
  H   -0.43681379164425     -2.52691135767812     -1.12682327444723
  H   0.93974506251326     -1.60774986112860     -1.05909679391477
