15
Coordinates from ORCA-job run
  C   0.20337133082143      0.71755705212680     -0.09842654245396
  C   -0.21019644830782     -0.72493356931975      0.27280525602316
  Br  0.58036983255193      0.64245969795107     -2.12026992653913
  H   -0.40621271172546     -0.67831264223259      1.35108774307114
  N   -0.84588604160447      1.57208729649581      0.25171695063514
  H   -0.66157864779052      2.52317983970798     -0.03808137192262
  H   -1.73150188994563      1.22836753750835     -0.09670865413553
  N   1.41691812814719      1.20183153581667      0.47290552627851
  H   2.21345201907698      0.62634959315720      0.23261132879282
  H   1.31109129848175      1.27710727067582      1.47833208335265
  C   0.91466569236064     -1.65473810613235      0.06920186240076
  N   1.78930878252395     -2.42539715483285     -0.07721511386298
  N   -1.45187475130613     -1.09272817119103     -0.38432509926568
  H   -1.84760339666525     -1.91924047731735      0.04665528600436
  H   -1.27432319661858     -1.29258970241378     -1.36228932837866
