15
Coordinates from ORCA-job run
  C   0.30964439626429      0.50760159643166      0.15265044842663
  C   -0.50889709709368     -0.78824408109819     -0.07771109115412
  Br  1.95100796141719      0.06443150096833      1.12695349636850
  H   -1.39926651019025     -0.46019130347269     -0.63883357702566
  N   0.73409200797990      0.97150161130550     -1.16230201453931
  H   1.50234802039224      1.62701971211359     -1.08275116407415
  H   -0.04657921267581      1.45061406246447     -1.60274215526963
  N   -0.45315345282683      1.39274008860472      0.98793964958858
  H   -1.36193456985946      1.57704234919488      0.57541691022558
  H   0.03073943588904      2.26870891500867      1.14418815858329
  C   -0.98469845125965     -1.34279288998618      1.19323361562821
  N   -1.36741117588897     -1.83004088656239      2.18970805819102
  N   0.13961845840546     -1.81931970645713     -0.85956914912858
  H   0.86372573091695     -2.25573451981362     -0.30076409159156
  H   0.59076445852958     -1.36233644870160     -1.64541709422882
