15
Coordinates from ORCA-job run
  C   -0.11799174073889      0.78692283921357     -0.27934963547965
  C   -0.27334785504209     -0.75158766627922     -0.33558719693827
  Br  -1.52988477047734      1.56833793675221     -1.38406127996381
  H   -0.09236515473420     -1.05630438250593     -1.37068395629921
  N   -0.31950903119657      1.19709917620472      1.08547741965515
  H   -0.30788428509510      2.21099023640400      1.11951206337516
  H   0.48306534568934      0.87572577831453      1.62061381170729
  N   1.14316747037844      1.24447199073632     -0.82080572413989
  H   1.18220848075133      1.10292439066401     -1.82423199950926
  H   1.87324261612763      0.68437653817264     -0.38720287735854
  C   -1.61951493869529     -1.19988161082141      0.04928504677105
  N   -2.65295999952387     -1.63920237952254      0.39380740034440
  N   0.77355229129228     -1.32599803264135      0.51436602093562
  H   0.41377799177426     -1.46036089739080      1.45248151228083
  H   1.04644357949007     -2.23651391730074      0.16637939461913
