15
Coordinates from ORCA-job run
  C   0.00520696667910      0.70891495918022     -0.11424584996143
  C   -0.53245854130702     -0.73528554102673     -0.13980258560524
  Br  -0.40434842432198      1.41608280759854     -2.00391639986271
  H   -1.58392720328247     -0.66743477196518     -0.44305838226485
  N   -0.80943888217693      1.51694553755679      0.75465931499948
  H   -0.41290569684401      1.47108666004006      1.68809645696396
  H   -0.84009593324915      2.48032268700239      0.45012908832169
  N   1.36744496229075      0.69187150998351      0.18932648567994
  H   1.85836640947615     -0.02170626050050     -0.33723265000490
  H   1.81086776942660      1.59729655255722      0.12170183508016
  C   -0.49801653494694     -1.24893459461441      1.23539861748546
  N   -0.48639896391209     -1.67296453759854      2.32987974925773
  N   0.30774097288721     -1.57112253796991     -0.99210829514759
  H   0.05158767726130     -1.41228931891591     -1.95964062908874
  H   0.16637542201948     -2.55078315132754     -0.78018675585296
