15
Coordinates from ORCA-job run
  C   0.12609143135424      0.68370820219175     -0.00058457911618
  C   -0.55308757177844     -0.69189599368645     -0.01098502730029
  Br  -0.28484086744694      1.26468559286813     -2.18236366525719
  H   -1.59279666776711     -0.54501695983668     -0.33072957257831
  N   -0.53504655919978      1.62296829023464      0.76804742565648
  H   -1.47634704711533      1.79523504642808      0.44418223315293
  H   -0.03308716972905      2.49444410410960      0.87133535431168
  N   1.47185573773705      0.58328751548425      0.19160227764468
  H   1.85874467516673     -0.21300759529820     -0.30055297930847
  H   2.00363587493605      1.43297761522395      0.07496408125039
  C   -0.56556476408609     -1.20915318228419      1.36576714236038
  N   -0.60151630493180     -1.66656516396854      2.44618117273006
  N   0.21312328479244     -1.60001388654217     -0.85400362285720
  H   0.00533580594764     -1.39067559630885     -1.82417908136292
  H   -0.03649985787961     -2.56097798861531     -0.65768115932605
