15
Coordinates from ORCA-job run
  C   0.00892368688467      0.68132447132761      0.29660676607573
  C   -0.56296399883222     -0.73096265487485      0.07132791273389
  Br  -0.92298500760924      1.44834248854036      1.90589054523033
  H   -1.64713023697465     -0.62872477772649     -0.08948773953289
  N   1.38764041304977      0.57360905765418      0.61609976917357
  H   1.84427504453011      0.01665230430198     -0.09788879273241
  H   1.83334684518163      1.47401704520244      0.73139693117407
  N   -0.28754438774952      1.45456313327158     -0.87704669637243
  H   0.23452845553035      2.32264602465569     -0.86895576699475
  H   -1.27486806844952      1.68154108935788     -0.92853146752659
  C   -0.36817598797235     -1.58555629166876      1.24559965937693
  N   -0.24570272445647     -2.34238184657371      2.13394794500827
  N   0.16425834388955     -1.30400311906108     -1.05996876421966
  H   -0.08338797011194     -2.27789277994107     -1.18363848056753
  H   -0.08021440691017     -0.78317414446577     -1.89335182082652
