15
Coordinates from ORCA-job run
  C   0.19334725994841      0.55646108404314      0.00954888288863
  C   -0.45639939989532     -0.85286203779253     -0.05941095630707
  Br  1.92165844671886      0.35701649159162      1.04390355430285
  H   -1.34353616311032     -0.69560202198907     -0.68776086288326
  N   0.58051845208148      0.92829696076532     -1.33208336934230
  H   1.40159685597920      1.51787502858427     -1.33612146443480
  H   -0.19434795785195      1.42839497491756     -1.75663501625446
  N   -0.70164595601399      1.47875786093784      0.59743598180170
  H   -0.30656910560171      2.41006710130513      0.63667359932765
  H   -1.00111868353047      1.20015345449584      1.52464431076162
  C   -0.93564814171694     -1.25391107613195      1.26717730894602
  N   -1.31879554493178     -1.52422148927823      2.34372383034415
  N   0.33580364400665     -1.89926734651182     -0.65881310038705
  H   0.70297687809446     -1.53402051074446     -1.53119119047867
  H   1.12315941582342     -2.11613847419266     -0.05909150828503
