15
Coordinates from ORCA-job run
  C   0.11241431152959      0.75173268984311     -0.12329267828952
  C   -0.52036773450146     -0.66198409322026     -0.12810948769056
  Br  -0.30983930944434      1.42153016358592     -2.05759781358200
  H   -1.57122164674635     -0.54675625988448     -0.42757084161105
  N   -0.49336935008780      1.73044168235026      0.71458599317108
  H   -1.47564589604485      1.85805632998983      0.51338699334933
  H   -0.34688968390228      1.48356760891265      1.68709678308447
  N   1.46173502042731      0.65336470186701      0.16671209862178
  H   1.94352791650885      1.53938771768934      0.11666638080141
  H   1.91612443821119     -0.09128801095672     -0.34488315406110
  C   -0.50271890820804     -1.16245905823998      1.25292023245629
  N   -0.52040876436045     -1.55243243018298      2.36011469007229
  N   0.25513770027377     -1.55526449093537     -0.98118258886244
  H   0.01308064598505     -2.52138339761804     -0.79886664453091
  H   0.03944126035980     -1.34451315320029     -1.94897996292907
