15
Coordinates from ORCA-job run
  C   -0.15823399417050      0.70545854355471     -0.31595756856572
  C   -0.40274417283590     -0.81330201076868     -0.26069156369410
  Br  -1.57587922020304      1.50323295376781     -1.41221073288985
  H   -0.51234605753714     -1.15684835309287     -1.29550538967325
  N   -0.25823935193864      1.23143274830495      1.01076576766940
  H   0.00770080592740      2.20767835035910      1.04260191682477
  H   0.34659660580480      0.68311889163654      1.61479962033307
  N   1.09202771418790      0.89130039102071     -1.04815363173847
  H   1.84976611744340      0.84039632582189     -0.37461661019264
  H   1.11763121699241      1.80492284562247     -1.48391819816678
  C   -1.62992607840673     -1.14266588068463      0.46739993103265
  N   -2.60529630871258     -1.48097991654069      1.02575514160113
  N   0.75678594448026     -1.40120346164174      0.42330621153096
  H   0.50428553915480     -2.27057308950308      0.87602510531687
  H   1.46787123981357     -1.60096833785649     -0.26959999938803
