15
Coordinates from ORCA-job run
  C   0.15568877826695      0.67493508206177      0.11627086654090
  C   -0.25843997912702     -0.79555599954838      0.25084124541728
  Br  0.91527425940528      0.76384160364688     -1.93633479569790
  H   -0.66233772816434     -0.85931289871621      1.26808086877672
  N   -0.96194551545084      1.48869347797339      0.22983163978684
  H   -1.72298870434013      1.10957907539082     -0.32096229346854
  H   -0.78361598620994      2.45522473847329     -0.00679929733722
  N   1.19763196656022      1.00947145483402      0.98154399523042
  H   1.36457437943544      2.00608606745928      1.02551687198838
  H   2.05690503662546      0.52693222174616      0.75230234239807
  C   0.92003699115068     -1.67704419580473      0.18917414645515
  N   1.83613161167153     -2.41161120086230      0.15495749741790
  N   -1.32621512881134     -1.10897340714933     -0.67843261245810
  H   -1.78158301391674     -1.97246440715084     -0.41104325810090
  H   -0.94911696709522     -1.21080161235384     -1.61394721694899
