15
Coordinates from ORCA-job run
  C   0.09199839917939      0.60575412022873     -0.17604274928331
  C   -0.46796160850414     -0.82849720557846     -0.35481651795707
  Br  -1.32990931252555      1.83312746542528     -1.13605546844568
  H   -0.64665579137760     -0.98282781786990     -1.42365648189161
  N   0.20652989964542      0.93308021119666      1.18431602274403
  H   0.62467607289673      1.84282508124951      1.33287696409633
  H   -0.69215516567062      0.90466219378802      1.65048983096971
  N   1.33161022213395      0.71615653372116     -0.84691872924453
  H   1.81436471862390      1.57517313810665     -0.61388566114647
  H   1.19861689124400      0.68780401279148     -1.84980017402519
  C   -1.75112677067988     -0.94600402403092      0.34682341797372
  N   -2.73425939960582     -1.03547585473282      0.98191017394617
  N   0.43242852072558     -1.85992055358714      0.12735019663918
  H   0.59875447619555     -1.70871911046493      1.11637939871088
  H   1.32308884771908     -1.73613819024332     -0.34097022308617
