15
Coordinates from ORCA-job run
  C   -0.00637229171596      0.76960626751674     -0.22404313517004
  C   -0.26757745837002     -0.74805562832283     -0.39848426015869
  Br  -1.39911745861476      1.69041201991459     -1.36577378460074
  H   -0.27091867207683     -0.96566169920187     -1.46937478242043
  N   -0.08326514972419      1.09154378120336      1.14696705683320
  H   0.24262392869202      2.03745941462473      1.29853799382138
  H   -1.01028789616071      0.96574916529127      1.53434874467496
  N   1.26877435233255      1.20494311659029     -0.71864130890875
  H   1.27871523444606      1.18880789967604     -1.73047818970792
  H   1.95987659191729      0.54349298707973     -0.37453243348221
  C   -1.58087782065789     -1.11725455121292      0.16130641599196
  N   -2.58405478928441     -1.43816252207917      0.68300321923655
  N   0.84721103171920     -1.45221333240874      0.22045721458157
  H   0.80123736292968     -2.44180078036630      0.01044517160778
  H   0.80303303456799     -1.32886613830491      1.22526207770138
