15
Coordinates from ORCA-job run
  C   -0.05540360484782      0.80066323526825      0.34720947610847
  C   -0.65445843365871     -0.60876070753956      0.10065501125786
  Br  -0.74520411403363      1.38881003478740      2.10506245428195
  H   -1.74191372625397     -0.50302943282328      0.12404171351759
  N   1.38078783139768      0.85574174057458      0.44190646619656
  H   1.79273635755345      0.59555730111579     -0.44718026483910
  H   1.74901510146738      0.28007320196116      1.19029940691358
  N   -0.57373639129947      1.65199520620960     -0.66987048333188
  H   -0.07422765450416      2.53289694894364     -0.66076895894725
  H   -0.46016019300648      1.18625096850399     -1.56423159552796
  C   -0.23320378675657     -1.54648248748868      1.15164907322900
  N   0.17608341674481     -2.33755712356509      1.91792567048415
  N   -0.24989276890847     -1.05378501597489     -1.23432854590506
  H   -0.94034296852000     -1.68867759075260     -1.61466219030448
  H   0.62992093462596     -1.55369627922032     -1.18870723313345
