15
Coordinates from ORCA-job run
  C   0.01195122889795      0.71485258996151      0.19522720127316
  C   -0.67625075866809     -0.68397505625959      0.16357456854084
  Br  -0.64589813697860      1.59791667165852      1.88668733537114
  H   -1.76042829445220     -0.52563403388636      0.20950228186811
  N   1.44074918460302      0.72064290699954      0.26879468471716
  H   1.77664717530007      0.26257516973062      1.10655253372315
  H   1.82382319425488      0.27617447511213     -0.55765962990077
  N   -0.36190615364549      1.41920071757055     -0.97663101496418
  H   0.14081481756736      2.29775256773279     -1.01791488589159
  H   -1.35799132931708      1.59878923643575     -1.00775239729699
  C   -0.27532439911591     -1.45879501618890      1.34023969486670
  N   0.11973222721576     -2.09321167334405      2.24538933068738
  N   -0.36742501070513     -1.45526548436170     -1.03028318407243
  H   0.57470114778480     -1.82381232601827     -0.98582372794355
  H   -0.44119489274136     -0.84721074514254     -1.83790279097813
