15
Coordinates from ORCA-job run
  C   0.08300354495928      0.66717082867056      0.10587687571044
  C   -0.54238325764166     -0.73957460381710      0.18212031660818
  Br  -0.58987543897685      1.59222584110360      1.88097874828150
  H   -1.62558996194391     -0.59150987088770      0.29822506362023
  N   1.47726290963742      0.62752801432164      0.04382338062687
  H   1.87882755014703     -0.08218959294410      0.64140915457802
  H   1.90291097570180      1.52494439834910      0.23385265134890
  N   -0.46161157159495      1.36759098429914     -1.00165625560774
  H   0.14714547556484      2.11651228612902     -1.30483808968342
  H   -1.38083614415878      1.73656590642079     -0.79788773416024
  C   -0.06024430329487     -1.46393820533394      1.36569037176352
  N   0.35049842361676     -2.08649996651236      2.27225837998842
  N   -0.14779961580139     -1.47825866815260     -1.01087570293947
  H   -0.71500625978781     -2.31301444035165     -1.09912327374970
  H   -0.31630232642692     -0.87855291129440     -1.81085388638552
