15
Coordinates from ORCA-job run
  C   0.09399464920790      0.60944198529177     -0.15787101551651
  C   -0.69352884969672     -0.73014415429276     -0.10390975579998
  Br  -0.05971033844237      1.25713945465833     -2.07412865778791
  H   -1.75010294942867     -0.51777821645867     -0.30339936642772
  N   -0.44792999488646      1.52963656318178      0.76456396452195
  H   0.05685980689285      2.40699438000408      0.77201061519926
  H   -1.43459344031161      1.70463788421906      0.61755783780121
  N   1.49342029593053      0.33868783471838      0.04745236703993
  H   1.66648159900390      0.28886896875132      1.04725937809207
  H   2.07967406313505      1.05417505801265     -0.36104768605495
  C   -0.57898594872172     -1.22450645504863      1.27980414241755
  N   -0.44447280453794     -1.62213799764917      2.37602376074812
  N   -0.24838498672982     -1.76724651251314     -1.00445649602834
  H   -0.49666481584609     -1.51511791555611     -1.95268613927605
  H   0.76394371443117     -1.81465087731892     -0.94917294892862
