15
Coordinates from ORCA-job run
  C   0.21283018384994      0.66312138057098     -0.17841929872198
  C   -0.16930796909007     -0.81525305034302      0.07515167654276
  Br  1.08488145323086      0.80454281301644     -1.92171652498661
  H   -0.65727483078196     -0.79386218546648      1.06967897221326
  N   -1.02797370338476      1.40055427132810     -0.24141454127731
  H   -1.44724926398004      1.41425099041319      0.68541221735704
  H   -0.82044394312743      2.35978730938040     -0.49782128571471
  N   1.14003985675767      1.21229477747056      0.78404077584816
  H   0.76948909948076      1.09844636818484      1.72303239432938
  H   2.04356671661423      0.75507613581702      0.73255665981704
  C   1.04149471711472     -1.63073374919483      0.23126183657038
  N   2.00583591798602     -2.27933121433611      0.39681686093550
  N   -1.00837329842889     -1.33919011568162     -0.98149693200334
  H   -1.71958319325559     -0.64664867106367     -1.18559065906111
  H   -1.44893174298547     -2.20305506009582     -0.69149215184847
