15
Coordinates from ORCA-job run
  C   -0.00378076935705      0.69182683168486     -0.29512727605975
  C   -0.68291704804087     -0.69248507418707     -0.24427356461789
  Br  -0.23394464494162      1.42546113499568     -2.08853876885030
  H   -1.74203323390325     -0.54217355063873     -0.46702505714155
  N   -0.71417702562545      1.57463700357752      0.60376017951420
  H   -0.39537050064864      2.52906132031203      0.48637323191420
  H   -0.54905521137417      1.29339792452768      1.56610733087986
  N   1.42440265972046      0.49134491828039     -0.10114958638911
  H   1.94648323156583      1.30646952199859     -0.39890713721947
  H   1.60526818381442      0.33753760063342      0.88736361232043
  C   -0.56768632410844     -1.15421276061327      1.16096058673356
  N   -0.41515263185142     -1.51883305337175      2.26834509299731
  N   -0.09474900667286     -1.59463243853956     -1.20709258546283
  H   -0.48329059078373     -2.52408609073487     -1.11145095197748
  H   0.90700291220679     -1.62531328792490     -1.05834510664119
