15
Coordinates from ORCA-job run
  C   0.11400964269198      0.75324295859819     -0.11038851230700
  C   -0.52017704582321     -0.65910947744768     -0.14110872864149
  Br  -0.29596636034105      1.45222843566872     -2.03913652816316
  H   -1.56860782248672     -0.53794822004123     -0.44655549389647
  N   -0.49610929995305      1.72011386542516      0.73747704081808
  H   -1.47805931989605      1.84846226637917      0.53446243930193
  H   -0.35235107280858      1.46142725713025      1.70729814813087
  N   1.46164243876453      0.64959863446622      0.18515262370849
  H   1.94479114745768      1.53571039143085      0.14954244881808
  H   1.91748189452790     -0.08862236401711     -0.33444896636997
  C   -0.51401848048720     -1.18088535557779      1.23213359004939
  N   -0.54042090167089     -1.58873728953598      2.33275170369217
  N   0.26041939842330     -1.54060188429902     -1.00163652397810
  H   0.05261894188352     -1.31478484858586     -1.96773533305772
  H   0.01574683971784     -2.50909436959389     -0.83580790810509
