15
Coordinates from ORCA-job run
  C   0.01809662595390      0.70727315369192     -0.11791119048373
  C   -0.54775666971269     -0.72629963763995     -0.12979621761072
  Br  -0.39572953240912      1.41151690120472     -2.00872641828547
  H   -1.60046747193659     -0.63961067695753     -0.42367674023414
  N   -0.77241450251155      1.53637632175890      0.75332351732765
  H   -0.36640401536199      1.49117303641300      1.68267583612377
  H   -0.79059034700396      2.49750132592332      0.44116961823299
  N   1.38238895383831      0.66541467043808      0.17298328502283
  H   1.85414147736354     -0.06202349264821     -0.35177108730570
  H   1.84342504277020      1.56121937407782      0.09505031962899
  C   -0.50986721352360     -1.23217678665386      1.24824559228863
  N   -0.49580957869143     -1.64960674865942      2.34521102831133
  N   0.26821771161676     -1.58313099067161     -0.98483519881084
  H   0.00982903415467     -1.41971509671711     -1.95106527993038
  H   0.10394048545356     -2.55891135356007     -0.77087706427520
