15
Coordinates from ORCA-job run
  C   0.08378929463754      0.68573607869221      0.18203283168841
  C   -0.68003111271471     -0.63471723131974     -0.01717787325881
  Br  -0.86711657148983      1.52657993679271      1.87408104574618
  H   -1.75157765740095     -0.42153401022176      0.02249017382954
  N   1.44321136746845      0.44473674537230      0.47109391826156
  H   1.59095710364247      0.10013129117109      1.41098941030416
  H   2.01632997755193      1.25939563597035      0.29643481686159
  N   -0.05598599016365      1.53241376663482     -0.92970405167296
  H   -0.92215545510580      1.38439226232892     -1.42707821530771
  H   0.05874356720960      2.50712231537299     -0.68840249981024
  C   -0.35903643181092     -1.55437233613578      1.09188042269630
  N   -0.07282359907792     -2.34255842976583      1.91470707524493
  N   -0.35527039519768     -1.15807860198159     -1.33525764804209
  H   -0.78044983872463     -2.06941835958523     -1.46012406771773
  H   0.65141574117610     -1.25982906332547     -1.40596533882313
