17

C	-0.489726	-0.012175	-1.415775
C	0.0	0.0	0.0
Br	-2.446367	0.839739	-1.592521
H	1.088327	0.0	0.0
N	0.341525	0.896542	-2.330308
O	0.114767	0.769442	-3.532305
O	1.212856	1.590868	-1.828367
N	-0.427203	-1.260224	-2.012442
H	-0.59971	-1.18446	-3.005966
H	-1.028013	-1.926213	-1.549691
N	-0.374488	-1.206178	0.760833
O	-1.346023	-1.893894	0.413151
O	0.34432	-1.4521	1.729029
N	-0.422506	1.172039	0.78716
O	-0.278177	2.26647	0.244823
O	-0.851766	0.99328	1.929299
H	2.341747	0.0	0.0
