17

C	-0.559108	-0.030211	-1.390573
C	0.0	0.0	0.0
Br	0.798733	1.01152	-2.618231
H	1.087374	0.0	0.0
N	-0.405551	-1.417747	-1.991421
O	0.524677	-2.100377	-1.583751
O	-1.19171	-1.716291	-2.882986
N	-1.851792	0.419983	-1.583971
H	-1.929696	1.350269	-1.188294
H	-2.106907	0.395567	-2.563788
N	-0.351863	-1.220152	0.781591
O	0.417131	-1.553445	1.675727
O	-1.39706	-1.804973	0.476861
N	-0.350502	1.162256	0.740461
O	-0.667323	2.201725	0.106106
O	-0.115395	1.144839	1.965752
H	2.242357	0.0	0.0
