17

C	-0.526097	0.073718	-1.418028
C	0.0	0.0	0.0
Br	0.608016	1.260289	-2.530853
H	1.116367	0.0	0.0
N	-0.27902	-1.298308	-2.057056
O	-1.001617	-1.646637	-2.987809
O	0.687389	-1.928956	-1.622845
N	-1.881248	0.446474	-1.631491
H	-1.980976	1.42493	-1.375317
H	-2.439116	-0.111834	-0.986458
N	-0.478333	-1.179269	0.734693
O	0.321852	-1.865174	1.363233
O	-1.716396	-1.390493	0.712475
N	-0.31402	1.135984	0.772426
O	-0.260253	2.249792	0.193317
O	-0.34267	0.998482	2.015057
H	2.309392	0.0	0.0
