17

C	-0.399352	0.011966	-1.437741
C	0.0	0.0	0.0
Br	0.578549	-1.43182	-2.497901
H	1.117108	0.0	0.0
N	-1.867425	-0.329237	-1.743366
O	-2.381399	-1.182796	-1.067764
O	-2.360898	0.252825	-2.707576
N	-0.100705	1.290426	-1.930138
H	-0.313642	1.325966	-2.92243
H	0.90001	1.438462	-1.793243
N	-0.194618	-1.212194	0.801843
O	0.009848	-2.304383	0.248637
O	-0.316532	-1.056687	2.014541
N	-0.539529	1.119162	0.782054
O	-1.750954	1.262321	0.803868
O	0.269322	1.776234	1.459053
H	2.368362	0.0	0.0
