17

C	-0.565694	-0.005328	-1.405408
C	0.0	0.0	0.0
Br	0.22151	1.499467	-2.367015
H	1.083766	0.0	0.0
N	0.05047	-1.30316	-2.088793
O	-0.672097	-1.8505	-2.923926
O	1.212067	-1.580206	-1.830754
N	-1.947444	0.053003	-1.566562
H	-2.217321	0.128719	-2.541113
H	-2.416445	-0.719133	-1.106263
N	-0.438118	-1.231553	0.746995
O	-1.651512	-1.401557	0.899243
O	0.448059	-1.988794	1.126838
N	-0.442295	1.18365	0.819767
O	0.462449	1.719676	1.459509
O	-1.622426	1.519969	0.812182
H	2.672658	0.0	0.0
