15

C	-0.541437	-0.048003	-1.410071
C	0.0	0.0	0.0
Br	-0.052943	1.509046	-2.448582
H	1.086957	0.0	0.0
H	-0.331157	-0.892709	0.534491
N	-0.040223	-1.196439	-2.054042
H	-0.092466	-2.0264	-1.48262
H	-0.408563	-1.33413	-2.982816
N	-2.11081	-0.130901	-1.352437
O	-2.527856	-0.930073	-0.515672
O	-2.795207	0.45147	-2.177658
N	-0.521825	1.132346	0.807697
O	-1.443409	1.81009	0.351166
O	-0.014636	1.280685	1.913904
Cl	3.305125	0.0	0.0
