15

C	-0.333563	0.149162	-1.469962
C	0.0	0.0	0.0
Br	-2.234029	0.678965	-1.775824
H	1.096405	0.0	0.0
H	-0.434583	-0.894065	0.428983
N	0.53334	0.998071	-2.12577
H	1.47436	0.949831	-1.732945
H	0.520982	0.871753	-3.128047
N	-0.340553	-1.30726	-2.092553
O	0.070911	-1.3878	-3.243765
O	-0.774032	-2.23172	-1.418843
N	-0.471345	1.151356	0.802661
O	-1.188938	0.892045	1.771216
O	-0.104898	2.27463	0.473877
Cl	3.254277	0.0	0.0
