15

C	-0.490214	0.057992	-1.423935
C	0.0	0.0	0.0
Br	-2.611743	0.173719	-1.32897
H	1.091001	0.0	0.0
H	-0.396083	-0.86755	0.514207
N	0.091198	0.998069	-2.209212
H	-0.218131	1.032414	-3.166862
H	0.251246	1.880261	-1.74532
N	-0.364969	-1.308776	-2.099932
O	-0.330948	-1.295122	-3.323944
O	-0.331665	-2.299162	-1.384583
N	-0.426354	1.193539	0.769548
O	-0.285574	2.300958	0.247343
O	-0.848187	1.007209	1.906726
Cl	3.236701	0.0	0.0
