15

C	-0.590367	-0.037441	-1.413374
C	0.0	0.0	0.0
Br	-0.090614	-1.673098	-2.299615
H	1.08799	0.0	0.0
H	-0.37734	0.90088	0.486461
N	-2.008795	0.152936	-1.561203
H	-2.482771	-0.622597	-1.113984
H	-2.256327	0.995468	-1.050511
N	0.02705	1.176311	-2.13373
O	0.713554	1.034191	-3.127886
O	-0.295954	2.243425	-1.612726
N	-0.536646	-1.140974	0.784337
O	-1.736621	-1.081541	1.088463
O	0.212566	-2.065143	1.076599
Cl	3.315258	0.0	0.0
