15

C	-0.340406	0.093686	-1.471601
C	0.0	0.0	0.0
Br	-2.264755	0.503674	-1.787095
H	1.093421	0.0	0.0
H	-0.432636	-0.879328	0.460357
N	0.47318	0.982244	-2.148145
H	0.45647	0.835751	-3.148096
H	1.42025	0.975651	-1.768876
N	-0.252161	-1.374084	-2.05724
O	0.148431	-1.454404	-3.21214
O	-0.608589	-2.308832	-1.353075
N	-0.482729	1.17939	0.754697
O	-0.049997	2.283076	0.440447
O	-1.281762	0.962715	1.668112
Cl	3.254006	0.0	0.0
