14
Coordinates from ORCA-job run
  C   0.74647834241076      0.22082438630531      0.31159147784446
  C   -0.38937860003933      0.39444614631445     -0.72518578010028
  Br  2.46646705891846      0.45805098899861     -0.57275689332280
  H   -0.32802604380540      1.40853541917349     -1.13191183561961
  C   0.64494538204103      1.27594042340147      1.33123325093802
  N   0.52877482300589      2.08316818741158      2.17895252742133
  N   0.68300188764122     -1.12634505353712      0.84097247810634
  H   -0.10514169927644     -1.20266109715373      1.47917814804808
  H   1.52959148656126     -1.34569050642860      1.35278669566640
  C   -1.66449147645459      0.26653793268333      0.01916203247413
  N   -2.67673803426988      0.09669974574273      0.59262995710431
  N   -0.22745515817900     -0.56188834808132     -1.79347340434538
  H   -0.97294065589307     -0.46618740668886     -2.47126885011532
  H   -0.23608731266090     -1.49943081814132     -1.40990980409969
