14
Coordinates from ORCA-job run
  C   0.76310078256604      0.34316759583410      0.40965517865127
  C   -0.24245736281185      0.02293673125768     -0.73474244041165
  Br  1.83524071158445      1.88173122167841     -0.13049741984262
  H   0.36530211926771     -0.22854319740398     -1.61002736857909
  C   -0.01040685478904      0.70053084568232      1.60327453945070
  N   -0.69440249289473      0.93170571755029      2.53083874198024
  N   1.64999401810408     -0.74679067042531      0.72254116968178
  H   1.08096899620474     -1.58452932489706      0.81513448568709
  H   2.30935184459734     -0.87849248117416     -0.03684791869156
  C   -1.08865317505539      1.18035404781034     -1.06642460131430
  N   -1.83196648774514      2.05419816732173     -1.32139603503086
  N   -0.99206735371964     -1.15779502954074     -0.33040810622580
  H   -1.75417486133975     -0.89832591967416      0.28712052952582
  H   -1.38982988396881     -1.61914770401948     -1.13922075488104
