14
Coordinates from ORCA-job run
  C   0.63004174943079      0.16518550423807      0.41292357793565
  C   -0.62086870894482     -0.22629004352259     -0.39853299047419
  Br  1.01999816639982      2.06224166712181      0.12002777027305
  H   -0.78077921542064     -1.29351175482553     -0.19416918085271
  C   0.34006041517887      0.00262513567737      1.84566498793203
  N   0.21172177562909     -0.18983312900799      2.99871967546301
  N   1.75964301160419     -0.59258492735838     -0.06100343233507
  H   2.61168181717909     -0.29433228404830      0.39981500264812
  H   1.61653382836570     -1.57898859804301      0.13589642876010
  C   -0.35005452009921     -0.08449398413998     -1.84173149609085
  N   -0.24959610911245      0.05506946435230     -3.00389116449207
  N   -1.78161337933468      0.49006070396330      0.08298440243583
  H   -1.77606454639867      1.44275481419258     -0.26167213056409
  H   -2.63070428447709      0.04109743140033     -0.23603145063882
