14
Coordinates from ORCA-job run
  C   0.57285230972954      0.05446550462598      0.51566931178534
  C   -0.64995650326255     -0.23897681652869     -0.37900042279734
  Br  1.05541447762276      2.00734129684769      0.24290666690783
  H   -0.92064606294102     -1.27367916722493     -0.14023051797567
  C   0.18707573501307     -0.05773115354756      1.92036515610436
  N   -0.08402995978181     -0.19512224739201      3.05521873230499
  N   1.62789527867352     -0.83435855160130      0.22037646933476
  H   2.39957127190819     -0.74549374912825      0.86900063015703
  H   1.96249630705932     -0.72376836842137     -0.73029606623268
  C   -0.22475898063840     -0.20814777836969     -1.79336597130842
  N   0.09658062753098     -0.17414079528454     -2.92331150790476
  N   -1.76365412307427      0.61348257462193     -0.04074475700186
  H   -1.63444018465973      1.54599361981978     -0.41315954655646
  H   -2.62640019317962      0.23013563158297     -0.40442817681711
