14
Coordinates from ORCA-job run
  C   0.58182269374036      0.28346481601626      0.53401885230481
  C   -0.54542909634885     -0.30564298939787     -0.35796084573848
  Br  0.55935051382495      2.24125570557947      0.30584292667355
  H   -0.52839225455848     -1.38475109073210     -0.15843878924742
  C   0.26080109636268     -0.01633095387089      1.93061941164888
  N   0.05313906154982     -0.31959729089577      3.04649447680691
  N   1.90906220084998     -0.17273717251597      0.24375537687132
  H   2.14752438602253     -0.02516915472438     -0.73026926000698
  H   2.02555667403784     -1.14705176136559      0.49764676899886
  C   -0.17385508709642     -0.12000841946158     -1.77574265901201
  N   0.10375371237320      0.00935047496255     -2.91049323554306
  N   -1.84276747326638      0.19567129392540      0.02616377153299
  H   -1.97262411006765      1.14629207993008     -0.29718343730194
  H   -2.57994231742364     -0.38374553744962     -0.35445335798742
