14
Coordinates from ORCA-job run
  C   0.63419035541684      0.24881464828428      0.47818394506938
  C   -0.47280060484937      0.30266726924702     -0.60305745422766
  Br  2.35153162958224      0.78161233226873     -0.53758090907668
  H   -0.43767793625266      1.29763541438317     -1.06449671437871
  C   0.47148512128972      1.30902261268684      1.46634636288890
  N   0.31464648896297      2.16089253668977      2.26096251628647
  N   0.67126513255598     -1.01444385456410      1.05637916703449
  H   0.67506762177143     -1.73685018578068      0.34534515207390
  H   1.38917226507057     -1.13826639345686      1.75597836040988
  C   -1.77536215419023      0.14756551599417      0.05424238203853
  N   -2.83750412450900      0.03038326637350      0.54060000903185
  N   -0.26085788108523     -0.80161138616769     -1.53105742927187
  H   -1.12879806120615     -1.06168424883401     -1.98155398522055
  H   0.40664214744290     -0.52473752712418     -2.24029140265790
