14
Coordinates from ORCA-job run
  C   0.64426597507164      0.22251167596169      0.34181266870186
  C   -0.35264106186584      0.07041271289190     -0.84657532185069
  Br  1.81432967951031      1.80732506757261     -0.02992708958353
  H   0.26426665199593     -0.12021337299231     -1.73437922718334
  C   -0.08881567411896      0.51339509235063      1.57112487814857
  N   -0.70066840488346      0.70938225538918      2.55532535590241
  N   1.37163225248416     -0.99242198282103      0.48058419401129
  H   1.91790856981784     -1.01163049678587      1.33319438058156
  H   1.99144506317852     -1.12911639959609     -0.31059915970843
  C   -1.09360842059021      1.31508095033848     -1.06981068934912
  N   -1.73029003385786      2.28203492715691     -1.26269242135519
  N   -1.28567335868232     -1.02017436307648     -0.67448132693623
  H   -1.97202735092588     -0.79662801326046      0.03706336553373
  H   -0.78012388713389     -1.85095805312913     -0.39063960691289
