14
Coordinates from ORCA-job run
  C   0.67056981050473      0.19609231679331      0.30269146077445
  C   -0.47145405931999      0.33005722106514     -0.75748188908794
  Br  2.38507152238636      0.24328029319744     -0.63879569861342
  H   -0.36169064873994      1.30280736495490     -1.24697556358584
  C   0.65513333102634      1.35202437580620      1.20781321959593
  N   0.58824412750782      2.27271778194419      1.93752967680623
  N   0.54808167218840     -1.08943563807094      0.94945701385040
  H   -0.27581932426968     -1.09026363760740      1.54596168625820
  H   1.35947857451929     -1.27954966480743      1.52627644151894
  C   -1.73470815588939      0.33340107290203     -0.00002407428896
  N   -2.71095428856705      0.31788581508609      0.65263653020990
  N   -0.50953009903490     -0.70699177841261     -1.75609151234139
  H   0.24528272279082     -0.57460863904892     -2.41685689361877
  H   -0.38870518510277     -1.60741688380202     -1.30514039747777
