14
Coordinates from ORCA-job run
  C   0.63227246248014      0.10856467615891      0.44786733729125
  C   -0.64246090054023     -0.15974854533371     -0.43136550089451
  Br  1.22246512668389      1.95513635022999      0.10862571657682
  H   -0.93581920078067     -1.18858598002784     -0.18066485030270
  C   0.20753966737662      0.02352662550428      1.84653606325408
  N   -0.20978764172561     -0.09676454987125      2.93885037771134
  N   1.74522701708484     -0.76496101864374      0.22374095982986
  H   1.54019577636194     -1.70818710939939      0.53380748593457
  H   2.01752032268767     -0.76494981705421     -0.75304946528073
  C   -0.22420372277178     -0.15978793720305     -1.83902691684176
  N   0.15464828749746     -0.17049730603744     -2.95033637185360
  N   -1.79091523058671      0.68567175263853     -0.23942350631038
  H   -1.55733277351982      1.65704047759255     -0.40378117353285
  H   -2.15934919024775      0.58254238144635      0.69821984441864
