14
Coordinates from ORCA-job run
  C   0.62067817919818      0.15065621083391      0.43142159012552
  C   -0.61235187868263     -0.20676204612665     -0.42201727118065
  Br  0.97616668054127      2.06994118688139      0.27586287623300
  H   -0.74932291224063     -1.28968892693880     -0.30005073785048
  C   0.31714843037887     -0.12036009214793      1.84471367534017
  N   0.17275164346691     -0.43022100405340      2.97018432222429
  N   1.77085756280239     -0.55147739818118     -0.07951615036271
  H   1.66185702326392     -1.54845577611912      0.08347125933319
  H   2.61651712764908     -0.24242228510824      0.38589240853186
  C   -0.32833113169931      0.04567833057617     -1.84749529115811
  N   -0.21663442688949      0.24989151123774     -2.99907013139007
  N   -1.79456069491348      0.44528823239840      0.09629494870705
  H   -1.80479868125260      1.42274381343968     -0.16970775067542
  H   -2.62997692162244      0.00618824330806     -0.26898374787763
