14
Coordinates from ORCA-job run
  C   0.63166714189244      0.23348133672389      0.41552062918364
  C   -0.35624653839008      0.10169401480980     -0.76502799109807
  Br  1.80341578924118      1.81974323938490      0.03857688095280
  H   0.26385416755474     -0.05187070504755     -1.66461654043512
  C   -0.07628708925002      0.52005197181451      1.66046344354158
  N   -0.60506454171671      0.74886765230209      2.68437201360248
  N   1.36198421379002     -0.98304775512758      0.52994779593714
  H   1.88173855333913     -1.02992190491441      1.39781498607826
  H   2.00587121487753     -1.08691355680344     -0.24667478401567
  C   -1.12531338532620      1.33388711474789     -0.96086030475931
  N   -1.78327229884362      2.28912927135896     -1.14097524685029
  N   -1.26612917478314     -0.98072376132035     -0.43998096628473
  H   -0.74783284855699     -1.84647352994482     -0.36413835015948
  H   -1.98938520382827     -1.06890338798395     -1.14242156569326
