14
Coordinates from ORCA-job run
  C   0.68987858427851      0.22468741683161      0.40550642575894
  C   -0.44079213872424      0.24317449192721     -0.65184969141490
  Br  2.42461972561905      0.18485703027201     -0.71924484270899
  H   -0.24908089234032      1.08565868578124     -1.32818576455621
  C   0.77434358476357      1.49049371859188      1.12526568605968
  N   0.81783390553707      2.51248347874614      1.70443818027576
  N   0.52685413539497     -0.86104574289599      1.25629818254575
  H   0.35903682198160     -1.71167361033916      0.73152259166736
  H   1.24286866112475     -0.95903121897090      1.96196118754796
  C   -1.71729437968325      0.48557040894324      0.03105358834563
  N   -2.76042820334190      0.68497499412668      0.53161587656567
  N   -0.47851429366279     -1.06023292490316     -1.30392935999018
  H   -1.39482180562858     -1.23591203508654     -1.69595883365352
  H   0.20649629468155     -1.08400469302426     -2.04949322644294
