14
Coordinates from ORCA-job run
  C   0.75502195236941      0.22382127131479      0.28722130174598
  C   -0.39996705255361      0.37031877641074     -0.73231343977736
  Br  2.45881433018078      0.40631522882719     -0.64075475157824
  H   -0.33563314863100      1.36687661232782     -1.17991117300721
  C   0.68702604995558      1.31850093086021      1.26704725381669
  N   0.59936289596710      2.15850679378057      2.08588915668355
  N   0.68800792684462     -1.10097485671192      0.87006640606822
  H   -0.08837382162701     -1.14336892955588      1.52559540903016
  H   1.54203689205962     -1.30909005240779      1.37412642181163
  C   -1.66092016454349      0.28688050389803      0.04175065290835
  N   -2.66224713566022      0.15165846877749      0.64292850705147
  N   -0.27064122153074     -0.62897740960334     -1.76527513344434
  H   -0.28181272653890     -1.55063958697887     -1.34507655911000
  H   -1.02867477629219     -0.55082775093893     -2.43129405219896
