14
Coordinates from ORCA-job run
  C   0.50207132742408      0.05296228849344      0.58561331228873
  C   -0.57728178792450     -0.25069132609079     -0.47514747059943
  Br  0.83484185792995      2.05525469872069      0.53741864268679
  H   -0.77896460865963     -1.32185952885371     -0.36112208094915
  C   -0.03286900723452     -0.21986892800011      1.91742882680163
  N   -0.42812224709345     -0.48214297450380      2.99222301667976
  N   1.65978484283243     -0.71781909378576      0.35014801834873
  H   2.08963743770632     -0.49531703857319     -0.54071019671258
  H   2.34096026880343     -0.62703826050512      1.09305383349080
  C   0.00576483706743     -0.05376636760620     -1.81810028048001
  N   0.46070917223391      0.08315181619059     -2.89297036086924
  N   -1.79552344378934      0.47328008214381     -0.20542132146657
  H   -2.57193299037761      0.05903809037760     -0.70456211067395
  H   -1.71007565891848      1.44481654199256     -0.47685182854556
