14
Coordinates from ORCA-job run
  C   0.64269116727168      0.23130859994166      0.40235882632624
  C   -0.36825472696706      0.09169202364715     -0.75737597398990
  Br  1.83524818276063      1.78761427323044     -0.03058205495690
  H   0.23245166159451     -0.09352250596831     -1.66414939328514
  C   -0.03798240778034      0.55871933452947      1.65260527571689
  N   -0.54473687886549      0.82087694863868      2.67964544412224
  N   1.35317848348543     -0.99531580751265      0.53180207488637
  H   1.88832745976740     -1.03167848336040      1.39078228777068
  H   1.98033402894544     -1.12874300523287     -0.25395759406965
  C   -1.11721444390503      1.33349088378401     -0.97183691531686
  N   -1.75899299512207      2.28847940931646     -1.20429985430055
  N   -1.29201885327907     -0.96549227670602     -0.39177257584525
  H   -2.02705005260232     -1.05812178041358     -1.08133681107857
  H   -0.78798062530365     -1.83830761389408     -0.30188273597961
