14
Coordinates from ORCA-job run
  C   0.67727722656945      0.21778529105380      0.45695731785488
  C   -0.30702911030428      0.35562908097780     -0.76435618887002
  Br  2.49942560854383      0.23684778393669     -0.29834084945264
  H   -0.08612381976613      1.30768491818157     -1.25867977545926
  C   0.54509061519584      1.40109990956770      1.30667586587683
  N   0.39660786633897      2.34737570200587      1.98816521727907
  N   0.53648049570994     -0.96257061767995      1.25378444576754
  H   -0.32525818562453     -0.94397419496752      1.78835340306796
  H   0.59210947898428     -1.80034979239660      0.68837740309533
  C   -1.65928823105955      0.42520790220158     -0.19350225239953
  N   -2.71492222754688      0.46088077362388      0.31978283434913
  N   -0.26574586760779     -0.69457914384356     -1.75050598061615
  H   0.65230269223989     -0.76288234766968     -2.16998728944939
  H   -0.54092654167306     -1.58915526499164     -1.36672415104382
