14
Coordinates from ORCA-job run
  C   0.78772739515350      0.29750152304417      0.29639214118229
  C   -0.27047543201289      0.04633219021620     -0.80102475213166
  Br  1.89790966201889      1.82064743656530     -0.22661581651088
  H   0.30064366066757     -0.19727345412085     -1.70180185205552
  C   0.10379765712048      0.66304245374741      1.54768779253387
  N   -0.46511371791925      0.86760145820011      2.55706733403225
  N   1.60859372658400     -0.87550454720490      0.37790658439442
  H   0.99392206909830     -1.67556807271297      0.49770914303741
  H   2.25938542996759     -0.81365012047579      1.15166789000081
  C   -1.08625116551458      1.24473038969831     -1.05409590755141
  N   -1.81542284944620      2.14433290042380     -1.25318424192395
  N   -1.04931852135793     -1.12056281422201     -0.40701558465680
  H   -1.47653846655835     -1.54915840903358     -1.21860758863859
  H   -1.78885944780112     -0.85347093412516      0.23391485828774
