14
Coordinates from ORCA-job run
  C   0.55972447822952      0.02351650203407      0.53204272274116
  C   -0.63023389850118     -0.22532698900378     -0.41900835188160
  Br  0.94872964260969      2.01537866522798      0.48988417197900
  H   -0.85340146140573     -1.29205707420633     -0.30368601587596
  C   0.15411065834836     -0.26384985420706      1.90585709944468
  N   -0.12918073299294     -0.54062012248913      3.01201260554878
  N   1.66312896403257     -0.77536617240094      0.16517119106952
  H   2.41766919901918     -0.72214292438724      0.83750908677157
  H   2.00870346449117     -0.54352741930065     -0.75937516162577
  C   -0.18056083755941     -0.01543183415699     -1.81035994643661
  N   0.16127084309505      0.15866037603773     -2.92128397968436
  N   -1.79121786085302      0.52919896789655     -0.01433003015272
  H   -2.62699807889850      0.14857587329109     -0.43880329213434
  H   -1.70274437961480      1.50299200566466     -0.27663009976330
