14
Coordinates from ORCA-job run
  C   0.63234308141090      0.27530450865480      0.46275749120770
  C   -0.43921141237847      0.24264914272253     -0.65446085685361
  Br  2.40660957467356      0.57409921193914     -0.55456705702530
  H   -0.33389868704028      1.16328866593589     -1.24211588550693
  C   0.50581997983364      1.46685737735757      1.29449666859975
  N   0.37761130768615      2.42514091281103      1.96306015535126
  N   0.58105650319901     -0.89830776579042      1.20423881274381
  H   0.55787502544595     -1.70999721264229      0.59778432160005
  H   1.27013549185482     -0.96621770965465      1.93948306145799
  C   -1.76695095459931      0.24760894229739     -0.02863305852958
  N   -2.84524525329735      0.26017393917163      0.43552234368524
  N   -0.26561902215124     -0.98631668285372     -1.41897357083305
  H   -1.12974536929294     -1.24644578931954     -1.87685675239497
  H   0.44921973465556     -0.84783754062936     -2.12273567350231
