14
Coordinates from ORCA-job run
  C   0.74044093881349      0.34065573392333      0.45081673542169
  C   -0.21728179289374      0.04920206148140     -0.74123870898454
  Br  1.79577967810343      1.92350393221979      0.01519835238096
  H   0.42643115730698     -0.15169754326284     -1.60377229127582
  C   -0.08166509222506      0.62995010064447      1.63040336387229
  N   -0.80206963146407      0.81025383839588      2.54146872932845
  N   1.64044849288613     -0.74281555462713      0.74824576155796
  H   1.08783959266868     -1.59570884161501      0.78548147775704
  H   2.32814885039381     -0.82776097812967      0.00757151513289
  C   -1.07688125621443      1.20228723204429     -1.05402195346830
  N   -1.83099346023705      2.06980865127421     -1.29897733193774
  N   -0.95430897966014     -1.16267069784641     -0.41397418320053
  H   -1.74253707911999     -0.94559421500499      0.18675878617789
  H   -1.31335141835799     -1.59741371949733     -1.25496025276223
