14
Coordinates from ORCA-job run
  C   0.62911420766040      0.25655828122881      0.47754689755721
  C   -0.39400731504099      0.23776465728740     -0.68447880178093
  Br  2.46066784130531      0.38881392117232     -0.47060553972487
  H   -0.20281813444535      1.11944028491043     -1.30908110393735
  C   0.54724279244203      1.49360057196457      1.24609004012151
  N   0.45637510745982      2.48926887639924      1.86425182212032
  N   0.46799661592233     -0.87294109896296      1.27019942957175
  H   0.41650498078778     -1.71059512107692      0.70200970149606
  H   1.11954542343520     -0.94871677047855      2.03817160807187
  C   -1.74369950400024      0.35978248719045     -0.12055321754569
  N   -2.83726131265972      0.46540602008173      0.29333738349390
  N   -0.27077093215031     -1.03626964153726     -1.38208771341917
  H   -1.13002707747596     -1.26171351798416     -1.86673158569771
  H   0.48113730675975     -0.97939895019512     -2.05806892032690
