16

C	-0.202079	0.077149	-1.516662
C	0.0	0.0	0.0
F	-0.178653	-1.270056	-2.00685
H	1.092085	0.0	0.0
H	-1.182239	0.445921	-1.8328
N	0.860443	0.855805	-2.008344
H	1.735118	0.608715	-1.508355
H	0.950071	0.804301	-3.012857
C	-0.669784	-1.16479	0.683665
H	-0.224167	-2.085986	0.311589
H	-1.745245	-1.184249	0.495775
H	-0.498524	-1.113007	1.760706
N	-0.513539	1.275223	0.571618
O	0.268023	2.031521	1.142721
O	-1.727353	1.496426	0.457766
F	2.68786	0.0	0.0
