16

C	-0.258669	-0.017462	-1.520954
C	0.0	0.0	0.0
F	-0.602335	-1.342602	-1.87011
H	1.090782	0.0	0.0
H	-1.121399	0.591038	-1.806421
N	0.900353	0.376692	-2.25216
H	0.814536	1.350381	-2.503136
H	1.725142	0.271689	-1.642219
C	-0.575184	-1.129815	0.816895
H	-1.670221	-1.151999	0.789538
H	-0.250049	-1.042732	1.852986
H	-0.197145	-2.066005	0.408974
N	-0.401729	1.316576	0.530877
O	-0.430332	2.281413	-0.244323
O	-0.649987	1.417398	1.736076
F	2.623483	0.0	0.0
