16

C	-0.237674	-0.15669	-1.493591
C	0.0	0.0	0.0
F	-1.477728	-0.788334	-1.757403
H	1.091827	0.0	0.0
H	-0.334987	0.820532	-1.972352
N	0.827299	-0.969518	-1.993568
H	1.682318	-0.74507	-1.45965
H	0.977948	-0.79525	-2.977656
C	-0.50856	-1.164365	0.815581
H	-0.098027	-1.125558	1.8243
H	-0.158979	-2.075873	0.327811
H	-1.59937	-1.187661	0.871457
N	-0.477004	1.297462	0.512583
O	-0.372403	2.292242	-0.209536
O	-0.901879	1.347477	1.671395
F	2.627601	0.0	0.0
