16

C	-0.453332	0.002059	-1.43775
C	0.0	0.0	0.0
F	-1.844988	0.353336	-1.497971
H	1.092018	0.0	0.0
H	0.063162	0.783849	-1.988382
N	-0.245602	-1.252431	-2.064717
H	-0.51527	-1.192951	-3.037912
H	-0.811467	-1.95985	-1.615997
C	-0.503984	-1.164552	0.81973
H	-0.192336	-1.042115	1.855266
H	-1.594514	-1.26956	0.795098
H	-0.026734	-2.071665	0.44285
N	-0.400172	1.293598	0.593042
O	-0.205669	2.310451	-0.076293
O	-0.861287	1.316972	1.741165
F	2.556014	0.0	0.0
