16

C	-0.203882	0.068756	-1.516643
C	0.0	0.0	0.0
F	-0.151907	-1.278332	-1.997978
H	1.09207	0.0	0.0
H	-1.195911	0.416628	-1.830938
N	0.844536	0.869174	-2.012709
H	0.951214	0.785682	-3.013773
H	1.713692	0.630306	-1.500576
C	-0.665385	-1.1629	0.693821
H	-0.220812	-2.084285	0.320724
H	-1.745057	-1.181456	0.519939
H	-0.479569	-1.106037	1.770641
N	-0.515139	1.277198	0.559708
O	0.274405	2.070498	1.069811
O	-1.739755	1.467604	0.498148
F	2.674324	0.0	0.0
