13
Coordinates from ORCA-job run
  C   -0.90517540391835      0.38129473951974     -0.10802404593950
  C   0.40310521067274      0.59299135453020      0.15299725083910
  H   -1.55724218613292      1.25341624174552     -0.10365727689437
  C   -1.56631534926703     -0.92686619206971     -0.40388161170324
  H   -2.05183565108435     -0.88993376843000     -1.38363882829701
  H   -2.35314848323137     -1.12594122551560      0.33003742273604
  H   -0.87658681094200     -1.76937963706144     -0.39875078213157
  C   0.82156631557839      1.94454158048320      0.41051315927325
  N   1.19563490685258      3.03908528495346      0.62527981781828
  C   1.50331471935958     -0.43387288877869      0.20711934210135
  H   1.97518173232797     -0.43172194600964      1.19307625381365
  H   2.27814295039109     -0.19492581576415     -0.52605635607094
  H   1.13435804939368     -1.43768772760289      0.00398565445496
