13
Coordinates from ORCA-job run
  C   -0.90836540687950      0.37866141990770     -0.08638321166026
  C   0.40690558783971      0.59575598616643      0.13138611313187
  H   -1.56127678277742      1.25032231989173     -0.07602840014797
  C   -1.57569331907758     -0.93424242038941     -0.34526978761627
  H   -2.08903893667366     -0.91237601452487     -1.31110613628874
  H   -0.88402629528600     -1.77524991560687     -0.34802275792820
  H   -2.33996345044390     -1.12481040823920      0.41359791698871
  C   0.82991018766000      1.95097881726409      0.36089537072452
  N   1.20677417542413      3.04906566986019      0.55107226794813
  C   1.50946720543430     -0.42920772560424      0.16809240453491
  H   2.26436530967102     -0.20109342585202     -0.58864856568267
  H   1.13560062974360     -1.43578604400479     -0.01062794460116
  H   2.00734109536530     -0.41301825886875      1.14104273059711
