13
Coordinates from ORCA-job run
  C   -0.54710578681061     -0.62012247366805     -0.18872637017435
  C   0.52280585212457      0.16816908271152      0.04171944900831
  H   -0.34876086108377     -1.63802812309735     -0.52287933140096
  C   -1.98088185407676     -0.22817202446353     -0.02883450039080
  H   -2.08701614503141      0.80382782167504      0.30827212259643
  H   -2.47656607460240     -0.88148853780352      0.69546189247676
  H   -2.51558619914451     -0.33937744947318     -0.97675334076868
  C   0.32841244718538      1.52139899079793      0.48393382574290
  N   0.19802793695918      2.63339558677715      0.84638319998345
  C   1.95179992701168     -0.27275634709583     -0.13232901897676
  H   2.49943616706097     -0.19325642476626      0.81038342939409
  H   2.46575624746979      0.35468923174567     -0.86535056899442
  H   1.98967834293787     -1.30927933333957     -0.47228078849598
