13
Coordinates from ORCA-job run
  C   -0.54658813635859     -0.45330808791741     -0.46473214455413
  C   0.52211091735426      0.11934536628093      0.12615278820580
  H   -0.34550426989155     -1.20724751009741     -1.22526367664049
  C   -1.98121696637132     -0.15166393870539     -0.17286986260302
  H   -2.08899027394204      0.61054594713397      0.60009912101122
  H   -2.49050004452158      0.19604924532755     -1.07652072865210
  H   -2.50143208820430     -1.05548416873201      0.15817804561469
  C   0.32565439995780      1.12091060201999      1.13763670699489
  N   0.19452633472357      1.94332305914805      1.96894580818473
  C   1.95215282048413     -0.21824178194905     -0.20164705648884
  H   2.47682203825073     -0.58715252981497      0.68342780888968
  H   1.99352028438221     -0.98450421279046     -0.97738359238904
  H   2.48744498413668      0.66642801009620     -0.55602321757339
