13
Coordinates from ORCA-job run
  C   -0.55957608304167     -0.59976176361423     -0.21614318739978
  C   0.52585159061155      0.15135228264175      0.06118911033900
  H   -0.38108742432035     -1.61671720673053     -0.56409732107777
  C   -1.98522933340591     -0.16792510332281     -0.09002409630076
  H   -2.49431080669500     -0.24367459676769     -1.05552783508135
  H   -2.07035557535597      0.85939978304149      0.26639011514646
  H   -2.52171424644489     -0.82090793085579      0.60472361470558
  C   0.35901146725587      1.50082484067048      0.52552616975711
  N   0.25197707050860      2.60884400556716      0.90694881023121
  C   1.94574040160227     -0.32841563825308     -0.08293354485527
  H   2.49486575720791      0.29562287487740     -0.79261791111136
  H   1.96358887073651     -1.35986491417247     -0.43871673347836
  H   2.47123831134109     -0.27877663308170      0.87428280912529
