12

C	-0.494591	-0.001791	-1.463286
C	0.0	0.0	0.0
Cl	0.129234	-1.431062	-2.319607
H	1.096633	0.0	0.0
H	-1.585336	-0.073958	-1.485669
C	-0.105291	1.220881	-2.16259
N	0.131578	2.209586	-2.750482
C	-0.492547	-1.190876	0.690043
N	-0.908174	-2.144854	1.234832
C	-0.490519	1.202235	0.672006
N	-0.895695	2.177994	1.186021
Cl	3.130791	0.0	0.0
