12

C	-0.494018	0.012014	-1.463634
C	0.0	0.0	0.0
Cl	0.124945	-1.412547	-2.331743
H	1.096608	0.0	0.0
H	-1.584981	-0.05606	-1.487236
C	-0.098973	1.238986	-2.151552
N	0.143379	2.232904	-2.72779
C	-0.493472	-1.195929	0.680401
N	-0.90265	-2.155261	1.220761
C	-0.490352	1.196626	0.682844
N	-0.897008	2.166006	1.207678
Cl	3.131989	0.0	0.0
