12

C	-0.494552	0.026779	-1.463084
C	0.0	0.0	0.0
Cl	0.128163	-1.38641	-2.346487
H	1.096675	0.0	0.0
H	-1.585342	-0.04428	-1.486849
C	-0.104304	1.262321	-2.138439
N	0.132563	2.261799	-2.707484
C	-0.492813	-1.203306	0.667837
N	-0.904761	-2.166812	1.198581
C	-0.491557	1.188555	0.695653
N	-0.906482	2.147866	1.232404
Cl	3.13295	0.0	0.0
