12

C	-0.493908	0.025378	-1.463356
C	0.0	0.0	0.0
Cl	0.126025	-1.390764	-2.344137
H	1.096624	0.0	0.0
H	-1.584827	-0.043358	-1.487622
C	-0.100337	1.258748	-2.140617
N	0.139643	2.256572	-2.711089
C	-0.493059	-1.202479	0.669184
N	-0.904409	-2.165398	1.201439
C	-0.490155	1.189925	0.694244
N	-0.891887	2.156188	1.228521
Cl	3.132006	0.0	0.0
