15

C	-0.069105	0.003238	-0.020953
C	-0.41156	0.083529	-1.497138
Cl	1.775037	-0.066742	0.119317
H	-1.420867	0.483599	-1.519891
H	0.284535	0.779457	-1.97093
N	-0.417793	1.280877	0.720166
O	-0.535299	2.294441	0.04245
O	-0.437406	1.226705	1.939701
C	-0.59645	-1.155141	0.68969
N	-0.633408	-2.214888	1.206505
C	-0.369413	-1.288729	-2.153484
H	-1.158709	-1.912782	-1.732577
H	0.590577	-1.788778	-2.00113
H	-0.539209	-1.194055	-3.230086
F	-2.341184	-0.047411	0.23978
