15

C	-0.070352	0.001333	-0.020342
C	-0.4164	0.226786	-1.480637
Cl	1.772377	-0.102313	0.105763
H	0.289504	0.953031	-1.890153
H	-1.418925	0.643484	-1.461198
N	-0.403387	1.205858	0.841073
O	-0.512122	2.280851	0.264023
O	-0.420559	1.035245	2.049861
C	-0.609657	-1.213855	0.578072
N	-0.654127	-2.317842	0.991473
C	-0.399173	-1.077607	-2.264082
H	-0.571163	-0.878681	-3.326032
H	0.552914	-1.605347	-2.164545
H	-1.197382	-1.725385	-1.899722
F	-2.342456	-0.054318	0.241693
