15

C	-0.05584	0.004939	-0.019211
C	-0.387952	0.109762	-1.49621
Cl	1.787169	-0.068634	0.132602
H	0.312775	0.811793	-1.953905
H	-1.39623	0.512345	-1.519291
N	-0.409115	1.270256	0.740637
O	-0.436859	1.195701	1.958926
O	-0.521413	2.295016	0.079126
C	-0.588061	-1.165008	0.668587
N	-0.630113	-2.233629	1.166294
C	-0.344122	-1.251651	-2.174559
H	-1.137618	-1.880668	-1.769246
H	0.613748	-1.756255	-2.023817
H	-0.506286	-1.139029	-3.250604
F	-2.329604	-0.047644	0.22458
