18

C	0.0	0.0	0.0
C	-0.544292	0.017354	-1.440088
Cl	1.7918	0.0	0.0
H	-1.645183	0.055109	-1.335624
C	-0.473884	1.218141	0.778223
H	-0.159104	1.107855	1.818403
H	-1.564614	1.259931	0.729625
H	-0.047267	2.140459	0.384305
C	-0.474771	-1.285836	0.663234
H	-1.568139	-1.295874	0.655802
H	-0.11807	-1.302447	1.695451
H	-0.08254	-2.16527	0.148675
C	-0.125727	-1.145661	-2.213982
N	0.169043	-2.090211	-2.846482
N	-0.12302	1.25995	-2.179348
O	-0.790936	2.268293	-1.968655
O	0.861423	1.190817	-2.913132
Cl	-3.710716	0.0	0.0
