18

C	0.0	0.0	0.0
C	-0.246278	-0.110168	-1.541691
Cl	1.801337	0.0	0.0
H	0.441928	-0.873264	-1.907838
C	-0.538518	1.281608	0.596462
H	-0.125107	2.163947	0.103875
H	-1.630714	1.264766	0.500192
H	-0.279365	1.318519	1.65803
C	-0.496655	-1.222089	0.748825
H	-0.141852	-2.146543	0.292268
H	-1.590247	-1.203684	0.745812
H	-0.132885	-1.168179	1.778353
C	0.056223	1.143328	-2.227511
N	0.365091	2.139895	-2.765247
N	-1.582783	-0.64671	-2.04935
O	-2.241908	0.067249	-2.78724
O	-1.791459	-1.81798	-1.773235
Cl	-3.873673	0.0	0.0
