18

C	0.0	0.0	0.0
C	-0.213456	-0.102762	-1.550457
Cl	1.801237	0.0	0.0
H	0.407126	-0.933055	-1.893263
C	-0.551095	1.281305	0.580461
H	-1.6428	1.251146	0.473393
H	-0.144322	2.160711	0.078278
H	-0.302375	1.336065	1.642982
C	-0.531273	-1.226785	0.710296
H	-0.209889	-1.199416	1.754459
H	-0.16874	-2.146642	0.248306
H	-1.625475	-1.196661	0.667613
C	0.216678	1.11374	-2.237578
N	0.6018	2.077111	-2.78899
N	-1.588546	-0.487881	-2.074756
O	-2.253942	0.373792	-2.628509
O	-1.849249	-1.680618	-1.972618
Cl	-3.933734	0.0	0.0
