15

C	-0.508371	-0.000501	-1.419819
C	0.0	0.0	0.0
Cl	0.159263	1.389943	-2.23867
H	1.090801	0.0	0.0
H	-0.358904	0.887702	0.517535
N	-0.109578	-1.264652	-2.216436
O	-1.020874	-1.965595	-2.634868
O	1.087315	-1.429439	-2.34354
N	-2.036413	0.060504	-1.504402
O	-2.639491	-0.263551	-0.486189
O	-2.529388	0.3824	-2.574587
N	-0.426298	-1.174393	0.796723
O	-0.500531	-2.255387	0.218022
O	-0.607833	-0.986636	1.994155
Br	3.369731	0.0	0.0
