15

C	-0.484683	-0.017561	-1.422912
C	0.0	0.0	0.0
Cl	0.195062	1.236818	-2.395958
H	1.08616	0.0	0.0
H	-0.359023	-0.873441	0.538279
N	-0.147412	-1.388328	-2.055934
O	-0.308342	-1.468509	-3.266669
O	0.192544	-2.283081	-1.295098
N	-2.02881	-0.032106	-1.509391
O	-2.549146	-0.831334	-0.734615
O	-2.590646	0.669593	-2.332216
N	-0.50371	1.189108	0.735488
O	-1.345762	1.906516	0.194141
O	-0.055061	1.346953	1.861889
Br	3.389348	0.0	0.0
