15

C	-0.479429	0.016311	-1.425828
C	0.0	0.0	0.0
Cl	0.256341	-1.189295	-2.414015
H	1.08616	0.0	0.0
H	-0.361503	0.868811	0.542739
N	-2.021472	-0.033273	-1.517472
O	-2.579292	0.71158	-0.718429
O	-2.546984	-0.725799	-2.368703
N	-0.205462	1.414528	-2.037745
O	-0.340707	1.500241	-3.248458
O	0.053714	2.320151	-1.259471
N	-0.493344	-1.194544	0.731395
O	-0.109916	-1.302801	1.888294
O	-1.257126	-1.97125	0.156521
Br	3.382164	0.0	0.0
