15

C	-0.508109	5.9e-05	-1.419895
C	0.0	0.0	0.0
Cl	0.161176	1.389782	-2.238697
H	1.090782	0.0	0.0
H	-0.358918	0.887743	0.517451
N	-0.110245	-1.264576	-2.216089
O	-1.022035	-1.963691	-2.636565
O	1.086574	-1.431059	-2.341779
N	-2.036138	0.062855	-1.504527
O	-2.528752	0.386332	-2.574367
O	-2.63964	-0.261481	-0.486648
N	-0.426898	-1.174299	0.796522
O	-0.60776	-0.986656	1.994077
O	-0.502496	-2.25503	0.217534
Br	3.370909	0.0	0.0
