15

C	-0.480164	0.009653	-1.424775
C	0.0	0.0	0.0
Cl	0.14239	-1.293182	-2.36539
H	1.089617	0.0	0.0
H	-0.358226	0.876775	0.5337
N	-2.022982	0.093375	-1.512923
O	-2.515944	0.896741	-0.728531
O	-2.60667	-0.567518	-2.352726
N	-0.082688	1.358898	-2.078139
O	0.149401	2.285832	-1.315245
O	-0.110767	1.395866	-3.299477
N	-0.512116	-1.183989	0.737918
O	-0.01747	-1.381809	1.838164
O	-1.418645	-1.847124	0.229531
Br	3.389449	0.0	0.0
