15

C	-0.472651	-0.138918	-1.421605
C	0.0	0.0	0.0
Cl	0.264893	-1.406276	-2.322346
H	1.08932	0.0	0.0
H	-0.376513	0.922845	0.433442
N	-2.005763	-0.223321	-1.530748
O	-2.644758	-0.084077	-0.496389
O	-2.457036	-0.365473	-2.659593
N	-0.199811	1.236101	-2.106622
O	-0.826521	2.162693	-1.604097
O	0.566737	1.286791	-3.04855
N	-0.459667	-1.097702	0.887181
O	-0.802962	-2.165655	0.387387
O	-0.423106	-0.849815	2.086945
Br	3.365765	0.0	0.0
