15

C	-0.473936	0.074889	-1.425742
C	0.0	0.0	0.0
Cl	0.25376	1.304064	-2.385717
H	1.090262	0.0	0.0
H	-0.378668	-0.901428	0.472988
N	-0.209214	-1.325745	-2.05338
O	-0.836312	-2.228426	-1.508558
O	0.549424	-1.414115	-2.997968
N	-2.007127	0.154529	-1.538403
O	-2.457297	0.189131	-2.675101
O	-2.646801	0.126327	-0.495662
N	-0.454254	1.134252	0.846115
O	-0.756354	2.197611	0.312071
O	-0.451214	0.915103	2.052075
Br	3.358599	0.0	0.0
