15

C	-0.520383	-0.019664	-1.416998
C	0.0	0.0	0.0
Cl	0.242439	1.093622	-2.490668
H	1.087532	0.0	0.0
H	-0.396895	-0.853695	0.541386
N	-0.382483	-1.431827	-2.006368
O	-0.901399	-1.588875	-3.103795
O	0.213172	-2.264451	-1.342917
N	-2.051993	0.17538	-1.387047
O	-2.651725	-0.754089	-0.856471
O	-2.527829	1.210029	-1.825611
N	-0.499952	1.210636	0.704591
O	-1.226454	1.019333	1.684206
O	-0.157794	2.308337	0.277023
Br	3.372386	0.0	0.0
