15

C	-0.495813	-0.191483	-1.413636
C	0.0	0.0	0.0
Cl	0.443814	-1.287875	-2.358193
H	1.088194	0.0	0.0
H	-0.37542	0.924663	0.425254
N	-1.993974	-0.564051	-1.425648
O	-2.675105	0.185759	-0.731395
O	-2.383765	-1.498272	-2.10087
N	-0.519805	1.171431	-2.140065
O	-1.044522	1.157883	-3.245601
O	-0.034347	2.13468	-1.5678
N	-0.461756	-1.095706	0.884956
O	-0.741671	-2.180845	0.376044
O	-0.505093	-0.837571	2.084886
Br	3.374541	0.0	0.0
