15

C	0.0	0.0	0.0
C	-0.422998	0.232594	-1.478903
F	1.397794	0.0	0.0
H	-0.144037	1.277221	-1.682791
N	-0.564847	0.992983	0.810972
H	-0.184245	1.909571	0.623534
H	-0.589624	0.776688	1.795224
C	-0.415039	-1.338813	0.455835
N	-0.704555	-2.412436	0.830999
N	-1.807689	0.043969	-1.801753
H	-2.073352	-0.931505	-1.732323
H	-2.43821	0.527024	-1.158323
C	0.412433	-0.605044	-2.357153
N	1.058011	-1.277765	-3.069914
Br	-4.613965	0.0	0.0
