14

C	0.0	0.0	0.0
C	-0.284545	0.138074	-1.523013
F	1.393718	0.0	0.0
H	0.329518	-0.648968	-1.976281
N	-0.464917	1.069616	0.760148
H	-0.375922	0.93024	1.756169
H	-0.054142	1.944672	0.465178
C	-0.431192	-1.308386	0.51264
N	-0.531941	-2.399762	0.935595
C	0.296135	1.41205	-1.978077
N	0.774098	2.421344	-2.342328
C	-1.627598	0.004536	-2.127081
N	-2.251548	-0.0885	-3.128284
Cl	-3.260453	0.0	0.0
