14

C	0.0	0.0	0.0
C	-0.284149	-0.023059	-1.547883
F	1.372474	0.0	0.0
H	0.542262	0.603694	-1.90769
N	-0.467384	1.21827	0.553345
H	-0.215731	1.244727	1.537302
H	-1.495435	1.163555	0.496925
C	-0.385507	-1.244979	0.701463
N	-0.527657	-2.21563	1.346738
C	-1.474877	0.596097	-2.144047
N	-2.126459	1.211008	-2.90607
C	-0.064481	-1.365666	-2.093528
N	0.164758	-2.420913	-2.55504
Cl	-3.275941	0.0	0.0
