16

C	0.0	0.0	0.0
C	-0.570974	-0.332021	-1.367722
Br	1.944098	0.0	0.0
H	-0.279973	-1.328091	-1.681185
H	-1.665392	-0.227343	-1.282097
C	-0.501207	1.288441	0.60341
H	-1.593502	1.230902	0.63466
H	-0.09839	1.408382	1.607625
H	-0.193269	2.122924	-0.023543
N	-0.37044	-1.174165	0.926155
O	-0.495377	-2.279468	0.411503
O	-0.450381	-0.927694	2.120088
N	-0.071174	0.597714	-2.41272
O	0.658621	0.121473	-3.285165
O	-0.422706	1.774992	-2.361134
Cl	-3.675456	0.0	0.0
