16

C	0.0	0.0	0.0
C	-0.617471	0.104903	-1.37582
Br	1.931015	0.0	0.0
H	-1.69035	-0.134475	-1.270052
H	-0.532639	1.130215	-1.73428
C	-0.517879	1.129775	0.867111
H	-1.611623	1.072841	0.864746
H	-0.13204	1.022547	1.879386
H	-0.189275	2.084603	0.452209
N	-0.401395	-1.325667	0.670767
O	-0.114896	-1.432722	1.858795
O	-0.961612	-2.168821	-0.013904
N	-0.049461	-0.735373	-2.468389
O	-0.338201	-0.362256	-3.605081
O	0.628892	-1.721009	-2.201381
Cl	-3.712873	0.0	0.0
