16

C	0.0	0.0	0.0
C	-0.638608	-0.03041	-1.366773
Br	1.93009	0.0	0.0
H	-0.591571	0.95799	-1.821535
H	-1.700387	-0.299481	-1.228231
C	-0.531065	1.184943	0.784535
H	-0.26227	2.112416	0.275422
H	-0.102426	1.182845	1.785935
H	-1.62172	1.09345	0.832553
N	-0.385852	-1.264164	0.803323
O	0.068485	-1.336418	1.94073
O	-1.13742	-2.068077	0.272692
N	-0.032971	-0.958338	-2.359581
O	0.50439	-1.988442	-1.965811
O	-0.149899	-0.625747	-3.539134
Cl	-3.778893	0.0	0.0
