16

C	0.0	0.0	0.0
C	-0.570672	-0.209485	-1.39309
Br	1.943665	0.0	0.0
H	-1.663102	-0.083441	-1.305582
H	-0.306876	-1.187043	-1.780213
C	-0.499715	1.231299	0.712033
H	-1.591996	1.168766	0.748783
H	-0.090277	1.270293	1.719838
H	-0.20296	2.113582	0.149424
N	-0.372569	-1.253981	0.816753
O	-0.44741	-2.318502	0.212949
O	-0.502919	-1.105441	2.022115
N	-0.040271	0.779766	-2.365696
O	0.655612	0.34536	-3.287906
O	-0.336333	1.963886	-2.211278
Cl	-3.656179	0.0	0.0
