16

C	0.0	0.0	0.0
C	-0.626594	0.007351	-1.373578
Br	1.929999	0.0	0.0
H	-1.693737	-0.243461	-1.242128
H	-0.550928	0.999388	-1.815287
C	-0.527719	1.174966	0.800954
H	-0.241476	2.105995	0.307519
H	-1.621954	1.095395	0.834019
H	-0.109248	1.155338	1.805868
N	-0.402265	-1.277602	0.770887
O	-1.183589	-2.044395	0.226655
O	0.06828	-1.394416	1.898359
N	-0.033186	-0.922218	-2.372445
O	-0.136693	-0.580609	-3.550631
O	0.484657	-1.962557	-1.982784
Cl	-3.783589	0.0	0.0
