16

C	0.0	0.0	0.0
C	-0.60701	-0.098297	-1.378486
Br	1.930049	0.0	0.0
H	-1.683425	-0.297133	-1.246096
H	-0.496987	0.853575	-1.89582
C	-0.529816	1.239888	0.690283
H	-0.149176	1.282853	1.70975
H	-1.623792	1.169606	0.693049
H	-0.210627	2.130099	0.144749
N	-0.409274	-1.205835	0.86328
O	-1.057455	-2.096184	0.333796
O	-0.05557	-1.166469	2.036841
N	-0.048585	-1.11982	-2.309173
O	0.580278	-2.075423	-1.865249
O	-0.294891	-0.923752	-3.498935
Cl	-3.745	0.0	0.0
