16

C	0.0	0.0	0.0
C	-0.568683	-0.11583	-1.404504
Br	1.943863	0.0	0.0
H	-0.301725	-1.06364	-1.85783
H	-1.661315	0.002492	-1.311742
C	-0.500808	1.180568	0.79199
H	-0.09466	1.154276	1.801091
H	-0.198406	2.098108	0.291133
H	-1.593493	1.119184	0.819394
N	-0.366319	-1.30841	0.730428
O	-0.417732	-2.331499	0.058332
O	-0.514565	-1.240053	1.941332
N	-0.038422	0.939637	-2.306478
O	-0.345267	2.108897	-2.07722
O	0.667228	0.570787	-3.248949
Cl	-3.652977	0.0	0.0
