14

C	-0.628223	0.018008	-1.378927
C	0.0	0.0	0.0
Cl	0.02218	-1.255559	-2.429941
H	1.095453	0.0	0.0
H	-1.711518	-0.09232	-1.360297
N	-0.405881	1.348827	-2.049037
O	-1.374536	1.803488	-2.661208
O	0.69839	1.860667	-1.965589
C	-0.451102	-1.196916	0.695543
N	-0.828253	-2.141959	1.287034
N	-0.379691	1.234071	0.695293
H	-1.007644	1.050955	1.465557
H	0.486483	1.620962	1.06558
H	2.63446	0.0	0.0
