14

C	-0.403774	0.035742	-1.453924
C	0.0	0.0	0.0
Cl	-0.031515	1.577428	-2.222843
H	1.095847	0.0	0.0
H	0.113585	-0.746252	-2.010595
N	-1.878607	-0.224017	-1.676806
O	-2.667233	0.177721	-0.825768
O	-2.185661	-0.816158	-2.709656
C	-0.419863	-1.285901	0.558313
N	-0.757214	-2.308805	1.032833
N	-0.401476	1.152494	0.772686
H	0.346201	1.348338	1.430159
H	-1.275328	1.006195	1.259225
H	2.638531	0.0	0.0
