14

C	-0.621082	-0.004273	-1.386927
C	0.0	0.0	0.0
Cl	0.022669	-1.301905	-2.404759
H	1.093369	0.0	0.0
H	-1.704463	-0.09517	-1.378152
N	-0.376837	1.327665	-2.048168
O	-1.38103	2.010528	-2.244804
O	0.771151	1.632397	-2.322967
C	-0.467577	-1.174582	0.7228
N	-0.856448	-2.09994	1.337047
N	-0.321157	1.260224	0.664131
H	0.536676	1.563029	1.115655
H	-1.050679	1.165928	1.353463
H	2.620805	0.0	0.0
