14

C	-0.341777	-0.010884	-1.48811
C	0.0	0.0	0.0
Cl	0.113829	1.503373	-2.269618
H	1.096077	0.0	0.0
H	0.171593	-0.828598	-1.991908
N	-1.811187	-0.243235	-1.700613
O	-2.135827	-1.347425	-2.134526
O	-2.587423	0.647306	-1.36048
C	-0.468532	-1.25471	0.580233
N	-0.838961	-2.264229	1.056794
N	-0.427638	1.135324	0.780614
H	0.291446	1.843434	0.704866
H	-1.312562	1.503452	0.461108
H	2.622767	0.0	0.0
