11
Coordinates from ORCA-job run
  C   -0.33784162093134     -0.37759282091481     -0.15852748535279
  C   0.68777447948937      0.43401732553560      0.09746865409287
  H   -0.15410336358401     -1.24239989595530     -0.79093087750573
  H   0.66454523410602      1.32948299201138      0.70529815577523
  C   -1.71468166914961     -0.15786807181120      0.37728325477801
  H   -2.43184159071546     -0.06213424650106     -0.44248364343215
  H   -1.77361984879577      0.73926668365364      0.99530690137645
  H   -2.03068525793107     -1.01466503053328      0.97859049482317
  N   2.01780588109806      0.17299302622949     -0.45214912026763
  O   2.88682929013293      0.99007968570915     -0.14493678337424
  O   2.18681846628089     -0.81217964742362     -1.16391955091319
