11
Coordinates from ORCA-job run
  C   -0.28560920781297      0.08581462050756      0.84887389114382
  C   1.00301680800788     -0.02237448844475      0.50441336008732
  H   -0.44830643320377      0.17860175282490      1.92066372345337
  H   1.82075395594301     -0.04678535557577      1.21223093699314
  C   -1.49682477868591      0.10131649251056     -0.03305337831972
  H   -1.48323588087034     -0.72399343818250     -0.74514164658341
  H   -2.40279196633539      0.04074616641287      0.56963524877225
  H   -1.53083898597706      1.01704155981968     -0.62710410704828
  N   1.47486976135978     -0.17094602760382     -0.86596505550345
  O   2.66322575305819     -0.46937384083256     -0.99175839658949
  O   0.68574097451658      0.00895255856385     -1.79279457640555
