11
Coordinates from ORCA-job run
  C   -0.30507013688113     -0.70577386152235      0.46799426582121
  C   0.99222977522320     -0.46103552666936      0.24953823676219
  H   -0.49108543056807     -1.60532373918155      1.05105205356249
  H   1.79673497296111     -1.09909663885072      0.59023038130684
  C   -1.49821670197491      0.08583348289262      0.02650800810691
  H   -1.53835422695053      1.04623811713049      0.54470225664593
  H   -2.41505912534126     -0.46450789122721      0.23680357002781
  H   -1.45312015899491      0.31523055160089     -1.03829473981394
  N   1.49614401204721      0.67338432012511     -0.51285005040223
  O   0.71918264371004      1.57403487665058     -0.82845509835805
  O   2.69661437676926      0.64201630905149     -0.78622888365917
