11
Coordinates from ORCA-job run
  C   -0.25949059150947     -0.52520776643219      0.68391335945087
  C   1.00262351068944     -0.43852706253810      0.24756653403849
  H   -0.39047960141766     -1.20858318095936      1.52030865584397
  H   1.83455159416087     -0.97479294726625      0.68434287911428
  C   -1.48050283230398      0.17838785298714      0.17435434492011
  H   -2.32786311565110     -0.01062015844005      0.83302639691037
  H   -1.73293554617024     -0.16444275103296     -0.83119263272650
  H   -1.31830954260941      1.25375269484134      0.09695655098981
  N   1.43466690279810      0.41272961286668     -0.85291647796541
  O   2.65263072358721      0.50215857731820     -1.01228553157395
  O   0.58510849842623      0.97514512865553     -1.54307407900205
