11
Coordinates from ORCA-job run
  C   -0.26373003474004     -0.14775208153650      0.43624138080774
  C   0.61380626234243      0.17806339222447     -0.51227943393261
  H   0.12622872550304     -0.45669571218291      1.40270639942517
  H   0.38409930827210      0.50309712164395     -1.51896525779105
  C   -1.74349691594619     -0.10892148988656      0.23676284859902
  H   -2.01122719507215      0.21627015972929     -0.76962903744540
  H   -2.20701779473902      0.57180446645052      0.95599995455342
  H   -2.17734323494364     -1.09769532912097      0.40888712922757
  N   2.05426547699494      0.12309317515500     -0.26427447105272
  O   2.45717869839627     -0.23064460249083      0.83951037822612
  O   2.76723670393226      0.44738090001454     -1.21495989061727
