11
Coordinates from ORCA-job run
  C   -0.43500999325524     -0.04281819858744     -0.30112117399437
  C   0.78586722369137      0.05784595952574      0.22362523265740
  H   -0.51713207530782     -0.11072908930718     -1.38289025769429
  H   1.03116519245404      0.13387702689972      1.27523247398384
  C   -1.68356380527678     -0.06778935610776      0.51833509113615
  H   -2.33955308945562      0.76102725911225      0.23852037239264
  H   -2.24074540909239     -0.99068296065963      0.33589538524294
  H   -1.47204754278473      0.00362501728828      1.58625114143373
  N   1.97695460331439      0.07872570595920     -0.62512372125630
  O   1.84436941965592     -0.00447820358464     -1.84216624324673
  O   3.04969547605685      0.18139683946146     -0.02855830065500
