11
Coordinates from ORCA-job run
  C   -0.27630298324162     -0.66739515348078      0.53713934115356
  C   1.00846665833207     -0.42123520178147      0.25480347901969
  H   -0.42633015279146     -1.51573770879110      1.20165130433988
  H   1.83592162525908     -1.01192642940229      0.62470704446062
  C   -1.49861870133657      0.06161816285958      0.06829856226763
  H   -1.49905884885648      0.18418765806688     -1.01505646072687
  H   -2.39751747971334     -0.47599644857607      0.36921705262858
  H   -1.53336370895115      1.06887746988119      0.48858178489575
  N   1.46619041454338      0.65172972591429     -0.61782775651491
  O   0.65840016406633      1.49792953809291     -0.99964280831530
  O   2.66221301268975      0.62794838721686     -0.91087154320863
