15
Coordinates from ORCA-job run
  C   0.63020831037259      0.26543232015253      0.68787737481953
  C   -0.60945467066690     -0.50559044326779      0.18861179194959
  H   0.75254306157165      0.12782212635514      1.76559191538805
  H   -0.46277255145210     -1.54820680961652      0.49008335661527
  C   0.57807014505464      1.68262385028168      0.35495534253981
  N   0.48720729010121      2.82657049088045      0.10506645948557
  N   1.84467185616275     -0.38785767409890      0.05651042150386
  O   2.48883250241983      0.24843730618168     -0.76721330132670
  O   2.04516693993080     -1.54129168674492      0.42033206728173
  C   -0.77616042535488     -0.41566052677946     -1.32980136219040
  H   -0.88193021658587      0.62264330652133     -1.64928034208764
  H   0.08498657490648     -0.85566300525831     -1.83623882378970
  H   -1.66753346720855     -0.96480374140529     -1.63577552730802
  C   -1.78495233834993      0.01210008407493      0.88964234878162
  N   -2.72988301090171      0.43444440272346      1.44463827833741
