15
Coordinates from ORCA-job run
  C   0.65781560918795      0.02774775628355      0.69174224109834
  C   -0.77540957193544     -0.11153043234512      0.13832471190146
  H   0.95295290124420     -0.91110728614294      1.16528214890973
  H   -1.40520280159473     -0.33220823829831      1.00876328958799
  C   0.78609916719722      1.13675455224448      1.62842548513116
  N   0.86256671639846      2.00199471391697      2.41883801738868
  N   1.61659266790454      0.21462493712353     -0.46146527418970
  O   1.70797290042332      1.34191232791883     -0.93169460138656
  O   2.17680670462675     -0.80342032921052     -0.85635822429321
  C   -0.89106507263744     -1.25136148845166     -0.87857747070389
  H   -1.93968580259066     -1.40471498144694     -1.13641432720999
  H   -0.34565791582862     -1.02009469470918     -1.79391905373143
  H   -0.49183237691761     -2.17733569900580     -0.46049101881938
  C   -1.24741243072629      1.15265030677543     -0.43242543712306
  N   -1.66454069475164      2.13908855534769     -0.91403048656016
