15

C	0.0	0.0	0.0
C	-0.530171	-0.038446	-1.454196
Cl	1.789405	0.0	0.0
H	-1.612621	0.16174	-1.339342
C	-0.405221	1.238117	0.678352
N	-0.572967	2.251064	1.250366
C	-0.425797	-1.178059	0.76321
N	-0.587639	-2.146306	1.409916
C	-0.350165	-1.405866	-2.10688
H	-0.675513	-1.353118	-3.147198
H	0.690117	-1.737537	-2.080964
H	-0.983094	-2.127936	-1.588989
C	0.082503	1.030075	-2.235671
N	0.544968	1.879848	-2.902741
Br	-3.487054	0.0	0.0
