15

C	0.0	0.0	0.0
C	-0.383399	0.123658	-1.53925
Cl	1.773803	0.0	0.0
H	0.559822	-0.064671	-2.060837
C	-0.431731	1.146477	0.804465
N	-0.52482	2.124174	1.452846
C	-0.421775	-1.272051	0.594156
N	-0.517715	-2.338811	1.080974
C	-0.837844	1.528471	-1.932771
H	-0.953436	1.569551	-3.018747
H	-1.79081	1.749482	-1.455474
H	-0.086777	2.26375	-1.633422
C	-1.256006	-0.934733	-2.056267
N	-1.699648	-1.80705	-2.70982
Br	-3.198638	0.0	0.0
