14
Coordinates from ORCA-job run
  C   0.81607763786043     -0.55203713819471      0.34811501986362
  C   -0.59047874774258      0.00973799602009      0.13227519024091
  Br  0.75090466463305     -2.20311818390948      1.39972529544610
  H   -1.00087255237406      0.21977166672905      1.12388760327608
  H   1.22511748025809     -0.88337663699897     -0.61938540497614
  N   1.60849950411195      0.41350187383683      1.05144868705887
  H   2.58768324678039      0.16212499136009      1.04051466443336
  H   1.46372485129289      1.31377687025982      0.60883219149080
  N   -1.43896815455808     -0.97124906720448     -0.51006037532947
  H   -2.37696856890387     -0.60802850439847     -0.62166453706896
  H   -1.07910677297667     -1.21346905817907     -1.42627103672473
  N   -0.42210188791848      1.30468503440491     -0.54604555647691
  H   -1.26298364921225      1.85979913941858     -0.44247899946315
  H   -0.28152705125079      1.14788101685578     -1.53889274177038
