14
Coordinates from ORCA-job run
  C   0.61676079909183     -0.34676578964509      0.68167961437333
  C   -0.36564398936886      0.38865087540034     -0.23650446894859
  Br  1.04227431216780      0.99025300378862      2.20615814173518
  H   0.01713927014823      1.40743454467086     -0.39011852223791
  H   0.10620827656272     -1.12488236664425      1.24775059732630
  N   1.73837100325729     -0.84019079113565      0.02419705956059
  H   2.13218666101863     -0.19895577298432     -0.64846884521372
  H   2.43946113753289     -1.22449657192072      0.64000706330743
  N   -1.67407928419097      0.35930558714671      0.41798757686022
  H   -2.32395816266257      0.92359518240374     -0.11838365400316
  H   -1.60372885449865      0.78274600061638      1.33808632235756
  N   -0.37834373961518     -0.23881647306987     -1.54175382733982
  H   -0.97646925355202      0.29310726861509     -2.16380642158602
  H   -0.76917817589115     -1.17098469724184     -1.45783063619138
