14
Coordinates from ORCA-job run
  C   0.64888097761653     -0.62604986757277      0.55425974313523
  C   -0.66885838863802     -0.00025448659736      0.06584011268929
  Br  0.62411846852972     -0.55845830691648      2.59573104234936
  H   -1.43091103869327     -0.16616178052427      0.83480260064138
  H   0.67583353342251     -1.70022891205149      0.37137865198501
  N   1.75940391610602      0.00781694097939     -0.01303533013584
  H   1.75276303677126      0.99376423156849      0.21855549613369
  H   2.63531686938966     -0.41675573789989      0.25652039604424
  N   -1.00091999529492     -0.61251506066738     -1.22151649125707
  H   -1.06867277457743     -1.62055078104944     -1.13287249607743
  H   -1.90985043283502     -0.27391293176540     -1.51840588934886
  N   -0.48803569661122      1.42869197626602     -0.08152739233537
  H   -0.18697820917324      1.61336116198120     -1.03158741158898
  H   -1.34409026601256      1.93225355424937      0.10085696776534
