19

C	0.0	0.0	0.0
C	-0.273802	0.047804	-1.523632
Br	1.983335	0.0	0.0
H	0.351489	-0.737905	-1.967463
C	-0.460784	1.22328	0.760368
H	-1.55622	1.153523	0.705815
H	-0.104843	1.162283	1.793431
H	-0.09229	2.140988	0.305288
C	-0.453558	-1.29014	0.646657
H	-1.548755	-1.200656	0.648148
H	-0.047415	-1.34798	1.659974
H	-0.125811	-2.164051	0.080756
N	-0.018926	1.368284	-2.056952
H	0.975367	1.542041	-1.973512
H	-0.281563	1.388515	-3.033172
N	-1.642647	-0.406312	-2.017132
O	-1.833954	-1.614416	-1.951632
O	-2.317012	0.387672	-2.657191
F	-2.7985	0.0	0.0
