19

C	0.0	0.0	0.0
C	-0.57307	-0.020162	-1.417929
Br	1.973443	0.0	0.0
H	-1.671842	0.016557	-1.207424
C	-0.475807	1.215468	0.780172
H	-1.571612	1.161656	0.712469
H	-0.098206	2.153633	0.37348
H	-0.146527	1.124722	1.818923
C	-0.484802	-1.263013	0.697989
H	-1.580645	-1.174338	0.659739
H	-0.129049	-1.270366	1.732227
H	-0.143014	-2.159575	0.1827
N	-0.169982	-1.165682	-2.164253
H	0.809591	-1.078779	-2.412282
H	-0.710609	-1.222443	-3.018119
N	-0.214092	1.270781	-2.156753
O	-0.870736	2.281195	-1.911727
O	0.708112	1.228634	-2.97812
F	-2.980425	0.0	0.0
