19

C	0.0	0.0	0.0
C	-0.594652	0.119603	-1.414701
Br	1.96978	0.0	0.0
H	-1.684617	0.185719	-1.181357
C	-0.476405	1.148756	0.877974
H	-0.125839	0.99999	1.903168
H	-0.120351	2.116825	0.521759
H	-1.573062	1.088893	0.824445
C	-0.490083	-1.314883	0.589646
H	-0.152155	-1.404835	1.625518
H	-1.587805	-1.231094	0.543649
H	-0.121264	-2.178097	0.030725
N	-0.30932	-0.933982	-2.34672
H	-0.930182	-1.707583	-2.152745
H	0.655384	-1.236484	-2.265695
N	-0.172253	1.4143	-2.05274
O	0.843795	1.405371	-2.750434
O	-0.858837	2.415613	-1.832202
F	-2.986715	0.0	0.0
