19

C	0.0	0.0	0.0
C	-0.602217	0.153117	-1.408766
Br	1.969721	0.0	0.0
H	-1.684745	0.265681	-1.164179
C	-0.46724	1.130166	0.908727
H	-0.10638	0.956626	1.926491
H	-1.56344	1.074455	0.866536
H	-0.113741	2.104707	0.571261
C	-0.49069	-1.324414	0.567292
H	-0.151783	-1.431264	1.600934
H	-1.587994	-1.239524	0.523027
H	-0.123383	-2.17863	-0.005502
N	-0.396457	-0.916456	-2.340727
H	-1.060863	-1.647083	-2.126523
H	0.547338	-1.280142	-2.278399
N	-0.116934	1.420481	-2.051573
O	-0.705598	2.466957	-1.771566
O	0.851192	1.348461	-2.809062
F	-2.986171	0.0	0.0
