19

C	0.0	0.0	0.0
C	-0.283945	0.066456	-1.526819
Br	1.982871	0.0	0.0
H	0.342523	-0.709467	-1.987141
C	-0.494118	1.208232	0.761695
H	-0.169426	1.138402	1.804577
H	-0.135522	2.139517	0.325388
H	-1.591451	1.114852	0.676627
C	-0.474527	-1.292152	0.628567
H	-0.147437	-2.166915	0.0635
H	-0.092738	-1.358423	1.651846
H	-1.572078	-1.190254	0.613147
N	-0.049993	1.395073	-2.042223
H	-0.331416	1.432291	-3.012915
H	0.942405	1.584079	-1.971133
N	-1.656426	-0.396277	-2.014025
O	-1.847914	-1.603294	-1.942867
O	-2.336694	0.392969	-2.655135
F	-2.860244	0.0	0.0
