19

C	0.0	0.0	0.0
C	-0.606773	-0.017355	-1.400809
Br	1.964579	0.0	0.0
H	-1.702601	0.047586	-1.153988
C	-0.465452	1.210787	0.799618
H	-0.117964	1.11121	1.831784
H	-1.56121	1.164442	0.751417
H	-0.094335	2.151584	0.393922
C	-0.473502	-1.267086	0.704599
H	-0.110488	-1.269463	1.736211
H	-0.126498	-2.161228	0.188856
H	-1.569458	-1.196059	0.675342
N	-0.270565	-1.184333	-2.145557
H	0.680799	-1.11366	-2.485379
H	-0.887279	-1.264453	-2.941576
N	-0.228978	1.250771	-2.165702
O	-0.80972	2.29617	-1.882021
O	0.631036	1.158345	-3.047872
F	-2.989003	0.0	0.0
