19

C	0.0	0.0	0.0
C	-0.582573	0.026463	-1.412644
Br	1.97361	0.0	0.0
H	-1.680185	0.064094	-1.190262
C	-0.474752	1.186835	0.824866
H	-0.10406	2.139565	0.447175
H	-0.138174	1.062915	1.857802
H	-1.570654	1.132798	0.762121
C	-0.481742	-1.287204	0.656641
H	-0.12672	-1.327262	1.690261
H	-0.137145	-2.165275	0.112489
H	-1.577679	-1.202639	0.62167
N	-0.200161	-1.100996	-2.195752
H	0.770163	-1.00892	-2.473383
H	-0.769765	-1.14174	-3.030819
N	-0.218348	1.333798	-2.117205
O	0.692689	1.30545	-2.951149
O	-0.860135	2.343897	-1.834409
F	-2.984469	0.0	0.0
