15
Coordinates from ORCA-job run
  C   -0.45496123113954      0.57876981140473      0.20547658207473
  C   0.83665816523301     -0.24526087331136      0.20719657803638
  F   -0.14317867258662      1.77506581875667      0.84712242378792
  H   1.23348652306633     -0.21271384261485      1.22829057043083
  N   -1.00037956077316      0.76837999370557     -1.04253379246610
  H   -0.44732925913707      0.40327520305236     -1.80155820992112
  H   -1.99550855014588      0.62635632118932     -1.10374926043020
  N   -1.45498483241118     -0.06800873332993      1.17798855458377
  O   -2.61412392829037     -0.20298778347589      0.80276509932737
  O   -1.00305400651955     -0.37014356096045      2.27608046771055
  N   1.70882220939799      0.31382256127073     -0.82101261843602
  H   2.55840450750842     -0.23335088753373     -0.88835189371318
  H   1.96127448334012      1.25923473897700     -0.55427252214236
  C   0.52453349012223     -1.63865292234289     -0.12699612777636
  N   0.29034066233529     -2.75478584478725     -0.40444585106621
