15
Coordinates from ORCA-job run
  C   -0.57714934417358      0.38646923711896      0.14117945765472
  C   0.83581568789229     -0.17994996473551      0.27796862365950
  F   -0.51530929788871      1.68333809078217      0.67404199080942
  H   1.11548129982099     -0.10983000688832      1.33459780956045
  N   -1.05294181339538      0.30665248893010     -1.15184656197995
  H   -1.96589709077628      0.72289403672789     -1.26707584366535
  H   -0.36248609079596      0.64626742133409     -1.80839309754841
  N   -1.55678438341617     -0.30641191788705      1.07459010704229
  O   -1.08711252661860     -0.95228022471647      2.00628272147389
  O   -2.74356352667533     -0.10855707559988      0.84521758351475
  N   1.68044317857293      0.60172596833949     -0.62786763481541
  H   1.87466689614025      1.49951397838166     -0.20047272304590
  H   2.56028559783437      0.12561568168383     -0.78206773201092
  C   0.86153733951877     -1.59079801128813     -0.11133616780525
  N   0.93201407396041     -2.72464970218283     -0.40481853284383
