15
Coordinates from ORCA-job run
  C   -0.47277616371253      0.25787229048758      0.23958602716352
  C   0.84875242764441     -0.24518797965543     -0.36901773556162
  F   -0.60229802810779     -0.30894028561189      1.50048397037510
  H   0.83403553455324      0.01940484904784     -1.42873827071218
  N   -0.61815465889208      1.64403225583057      0.21080618824773
  H   0.14696232931317      2.12032476424169      0.67078265742128
  H   -1.50836658400261      1.92805778144824      0.60159455124717
  N   -1.66438559981200     -0.30254594457559     -0.53410788965472
  O   -1.44859793097223     -0.95565726381294     -1.55056492540332
  O   -2.76178403808844     -0.02939765059548     -0.06420903601955
  N   1.10602594025516     -1.66106777420749     -0.24410028963702
  H   0.98463027957636     -1.96011083345773      0.71504062848790
  H   0.46940764073588     -2.17410899950815     -0.83871587965672
  C   1.93053151934854      0.51521406961993      0.27571733047678
  N   2.75501733216092      1.15211072074885      0.81644267322565
