15
Coordinates from ORCA-job run
  C   -0.41395413084925      0.59894881221282      0.23056339518530
  C   0.84921547924571     -0.26051362655629      0.11797615993271
  F   0.00045460553126      1.81350708911932      0.77213000450683
  H   1.36495689043169     -0.19689367155869      1.08286097556984
  N   -1.10140339545770      0.74777653464923     -0.95108320086177
  H   -0.64997153589714      0.33805691626074     -1.75324942782958
  H   -2.09926631342576      0.62828503710483     -0.88677190517836
  N   -1.30432445868770      0.02614428096154      1.34503235395462
  O   -0.73089270272350     -0.23903947135307      2.39497373462124
  O   -2.50361716489146     -0.08967692382568      1.11856494347021
  N   1.60624935005689      0.23096166337323     -1.02926288372762
  H   2.42719961534328     -0.34426901469757     -1.17368314394271
  H   1.91305985437151      1.17786411271056     -0.83435520489926
  C   0.46701423763887     -1.65681600090300     -0.11638076064664
  N   0.17527966931328     -2.77533573749797     -0.31931504015479
