15
Coordinates from ORCA-job run
  C   -0.49186106099808      0.46830862892431      0.20642767253374
  C   0.85800834931632     -0.24249774388127      0.11316293097017
  F   -0.19259435618631      1.80650295014592      0.50501810459142
  H   1.38393476576645     -0.06923112415283      1.05818189461831
  N   -1.26502189710806      0.27911505085634     -0.92098142809352
  H   -0.72072780738928      0.43822361050515     -1.75861110339391
  H   -2.13702432897214      0.78800447220890     -0.89696873321962
  N   -1.27996042900076      0.02682926565643      1.42865242473195
  O   -0.66553233596366     -0.55630748642272      2.31658012503499
  O   -2.46182648181496      0.34818131894110      1.44504535839351
  N   1.53029238273131      0.30625769476743     -1.06664518776401
  H   2.30608510915379     -0.28699545267176     -1.33268128828276
  H   1.89471864670547      1.22360810379140     -0.83802362110572
  C   0.66802951941900     -1.68440467040585     -0.05276135050056
  N   0.57447992434090     -2.84359461826255     -0.20839579851397
