15
Coordinates from ORCA-job run
  C   -0.51903603575652      0.48127518501033      0.28583891293558
  C   0.84488585549319     -0.21296478822263      0.21135797520941
  F   -0.35669919999744      1.54108279540707      1.17592410365520
  H   1.18343288659039     -0.36071844915535      1.24314533462360
  N   -1.01575641120629      0.87671816798842     -0.93299984133628
  H   -0.38881521808034      0.73835131771849     -1.70923558508416
  H   -1.98818773447135      0.67157270380165     -1.09380318497463
  N   -1.50043221688919     -0.43348504689323      1.03587930125558
  O   -2.62156865677239     -0.58196620916361      0.56278807420642
  O   -1.07826667041014     -0.91768856676243      2.07939532471102
  N   1.71000003942264      0.62105299108606     -0.61716076165255
  H   2.61043798506555      0.17320332307719     -0.73707829642337
  H   1.85673951403513      1.50672924162213     -0.14560687577057
  C   0.68720638084343     -1.52646522859226     -0.42115373927653
  N   0.57605948213333     -2.57469743692184     -0.93729074207872
