15
Coordinates from ORCA-job run
  C   -0.38111886486414      0.38004597499626      0.36637180509140
  C   0.84930175623844     -0.25143390198237     -0.30705434499009
  F   -0.42601435690820      0.02527683384734      1.66950293828343
  H   0.85569222746972      0.07663065516385     -1.35084284876041
  N   -0.42450744028040      1.77758971742089      0.25694854113768
  H   -1.17237024720017      2.17556041055948      0.81154631703515
  H   -0.49090438938760      2.07837589050122     -0.70581755364316
  N   -1.60023652947380     -0.30950094983755     -0.29766522617771
  O   -2.34717545992379     -0.99805097753877      0.38170058392028
  O   -1.69579736128841     -0.08499445690465     -1.50337430544145
  N   0.87457187465976     -1.69655685178423     -0.28468918669971
  H   0.69668030307113     -2.05246296468864      0.64589512569033
  H   0.20841228721020     -2.08885975025574     -0.93621358525043
  C   2.04479604533089      0.28338898057669      0.35886257640347
  N   3.00767015534637      0.68599138992623      0.89482916340122
