15
Coordinates from ORCA-job run
  C   -0.57331537179797      0.42508754542784      0.22194635156402
  C   0.83098352648217     -0.18445744246534      0.29232399150773
  F   -0.54118204904326      1.58755423857443      0.98766548608926
  H   1.13354015871417     -0.16200595998001      1.34127411832744
  N   -0.99688873354296      0.60283443909892     -1.08678295093433
  H   -0.34923691847424      1.21492583815357     -1.56651731123029
  H   -1.94890539321186      0.93963386947823     -1.13681210205457
  N   -1.57871284093033     -0.43892919719184      0.96710819092587
  O   -2.74989873539771     -0.36006053198935      0.61605161450103
  O   -1.14021746535677     -1.08123873977566      1.91677218181625
  N   1.71089541599208      0.64456810107315     -0.53047184306798
  H   2.03501204774060      0.13781735785464     -1.34291227724611
  H   2.51396016653851      0.95058257359228     -0.00071045953290
  C   0.80593720889039     -1.58142049032556     -0.15413536694333
  N   0.84802898339720     -2.69489160152529     -0.52379962372209
