15
Coordinates from ORCA-job run
  C   -0.48594255197923      0.58159435996039      0.30402194901915
  C   0.91111705451502      0.05252892062412     -0.04268425604691
  F   -0.35929180731172      1.43046519847805      1.37146428209123
  H   1.52462542593144      0.96004147129354     -0.07089770282763
  N   -1.12841657931037      1.15071548532248     -0.79018710782533
  H   -1.72886622875105      1.92542952940947     -0.55457777858954
  H   -0.53694519695597      1.28197897909729     -1.59557268631124
  N   -1.37951823425980     -0.55886613122299      0.82466000391699
  O   -2.26258082253982     -0.26612076312109      1.61540381727510
  O   -1.17747157871137     -1.65960696197507      0.31841405435081
  N   0.94350259492248     -0.54436067245198     -1.36186356252643
  H   1.90068919950766     -0.71732763064704     -1.64184944175577
  H   0.44084913961594     -1.42348786916534     -1.34733356357556
  C   1.43251418957941     -0.77767915606234      1.06023670210055
  N   1.90573539574740     -1.43330475953949      1.91176529070458
