15
Coordinates from ORCA-job run
  C   -0.50032111621669      0.48299325863510      0.14003959760501
  C   0.86237244409077     -0.20950034374451      0.14063113866221
  F   -0.22569017897346      1.85465666730270      0.25027288678795
  H   1.38617210078099      0.10119974783371      1.05095377036892
  N   -1.27048474103634      0.12612471378600     -0.94860343194154
  H   -2.15114600297614      0.61872363834307     -0.99180816936981
  H   -0.72903743013823      0.18204838102368     -1.80127673687037
  N   -1.27895067530161      0.19945136704312      1.41400377498873
  O   -0.65061156785676     -0.23746961163656      2.37324480042290
  O   -2.46868426908631      0.48924776850867      1.38791200065914
  N   1.52317540329099      0.18407992911953     -1.10576086945393
  H   2.30982387168707     -0.42567423979885     -1.29028077524851
  H   1.87067498431902      1.13058856103387     -1.00632433670775
  C   0.69796251180050     -1.66345163323880      0.17754917331861
  N   0.62374466561620     -2.83401820421074      0.20844717677845
