15
Coordinates from ORCA-job run
  C   -0.55881137144087      0.40480779231526      0.16657043380021
  C   0.84312057210922     -0.19968294614383      0.23695165051893
  F   -0.43317101829689      1.70609336181388      0.67554230897376
  H   1.18066576314021     -0.11913071487982      1.27589305041034
  N   -1.10523926587015      0.32058998473729     -1.09794658533869
  H   -0.44047292970909      0.62730443289032     -1.79602729528253
  H   -2.00991018694183      0.76337873524081     -1.17210502561901
  N   -1.50571869872722     -0.24767705191328      1.16093218689018
  O   -2.69647185714491     -0.01252760551707      0.99612761108494
  O   -1.00552275782924     -0.89925177072478      2.07255611294694
  N   1.65923729033229      0.54177285805465     -0.72689379005350
  H   1.89646286111412      1.44273711767355     -0.32832984123749
  H   2.51873410235745      0.04061781815719     -0.91400245617665
  C   0.81065721520454     -1.61710773875531     -0.12717585141270
  N   0.84544028170237     -2.75192427294886     -0.42309250950473
