15
Coordinates from ORCA-job run
  C   -0.54671410555397      0.28593763805534      0.39829385377158
  C   0.68135396151534     -0.22284074135074     -0.37328460852207
  F   -0.39293646598673     -0.07439154602556      1.69490349599466
  H   0.50489080968696      0.00226838144787     -1.42853624714584
  N   -0.87165013411018      1.65989177372123      0.33547395079748
  H   -1.09358353835517      1.94212044049401     -0.60970711677142
  H   -0.12720043878446      2.22887673269022      0.71862529744476
  N   -1.73828693764169     -0.47291385755368     -0.17233346314082
  O   -2.33537763953791     -1.24606537788121      0.55383122505926
  O   -1.98121194052456     -0.20657754837540     -1.34614848233496
  N   0.77484240661369     -1.65773511499816     -0.21652139870371
  H   1.46708907735749     -2.04773318536797     -0.84237357589359
  H   1.02156529788338     -1.89741696138900      0.73563970479179
  C   1.85132540875312      0.55377436531718      0.08297114908366
  N   2.78689423868469      1.15180500121586      0.46716621556921
