15
Coordinates from ORCA-job run
  C   -0.43732662662427      0.33603327483831      0.41542796556019
  C   0.73487563745759     -0.21297823208939     -0.39564709479590
  F   -0.35084185515673     -0.09622999131166      1.69392533663428
  H   0.60123894951377      0.12824660222239     -1.42605901305998
  N   -0.51163640293534      1.74073294435369      0.40219673385407
  H   -0.72957269778903      2.08678587211314     -0.52297526392323
  H   -1.19367268914688      2.07397202191622      1.07269224103418
  N   -1.69802752163371     -0.32939292853982     -0.18458385072338
  O   -1.91386026327574     -0.00461338703013     -1.34912628152535
  O   -2.37311464033965     -1.06453812660717      0.51566153297726
  N   0.66042228324832     -1.66006008117450     -0.37956482194716
  H   1.29557835024319     -2.05804974720351     -1.05854215242277
  H   0.90492219236801     -2.01561834986661      0.53676627780414
  C   1.98798213007114      0.35391069552496      0.13522406686612
  N   3.02503315399935      0.72179943285409      0.54560432366753
