15
Coordinates from ORCA-job run
  C   -0.53247037480702      0.54934995550631      0.28740943459822
  C   0.90838330571659      0.09689341227278      0.02079799562002
  F   -0.51716157242432      1.36825113729893      1.38536432338841
  H   1.47760917786322      1.03251339785779      0.05916844221928
  N   -1.12789583765709      1.12283563193973     -0.83085025353722
  H   -0.48977756115524      1.31110655664999     -1.58795054884832
  H   -1.78101249808449      1.85947504378542     -0.61357354686912
  N   -1.40221806424288     -0.64768804158066      0.71327003974930
  O   -2.34657559556839     -0.42212010682302      1.45357778034707
  O   -1.11551978692452     -1.72039386780318      0.18846468823046
  N   1.05685610574124     -0.45637227993463     -1.30928394430502
  H   2.03771488057308     -0.57601887552117     -1.52858092739757
  H   0.59680543974344     -1.35751643789057     -1.35413043296552
  C   1.39566733867750     -0.74332340324516      1.13165674914904
  N   1.84059504254891     -1.41799212251254      1.98366020062098
