15
Coordinates from ORCA-job run
  C   -0.54098730099132      0.21473665474761      0.31734398063449
  C   0.73431513235193     -0.15461252432523     -0.43573308182158
  F   -0.51074086221086     -0.43053430878331      1.53381275259170
  H   0.61202752249299      0.20986611003103     -1.45685259357939
  N   -0.76763958379142      1.59360090216613      0.40592654115712
  H   0.00817235535720      2.07073144544156      0.84855373201444
  H   -1.62390557360722      1.79274881152353      0.90960262905237
  N   -1.72267863266243     -0.38396362919887     -0.44794511902258
  O   -2.60979703531734     -0.89501944366513      0.22144741279290
  O   -1.69848160573236     -0.24671809325277     -1.66262479566572
  N   0.84776034643708     -1.59693015725261     -0.45682268144779
  H   1.10378849394144     -1.95105883182788      0.45581476922368
  H   1.53967346811874     -1.89276830310081     -1.13194765413421
  C   1.86545458808567      0.55913909155262      0.18927979401737
  N   2.76203868752789      1.11178227594412      0.71014431418721
