15
Coordinates from ORCA-job run
  C   -0.46375850658178      0.51754625402650      0.31098813389757
  C   0.93481342274649     -0.03076862340368      0.02599628260011
  F   -0.46035053019726      1.15748247557339      1.53281633023935
  H   1.55412685834007      0.85985295179062     -0.17589128749809
  N   -0.88807361109457      1.32434896642476     -0.75644904220011
  H   -0.46470198853196      2.24143383240868     -0.69547383265804
  H   -1.89697746851402      1.39078044608091     -0.79516479389462
  N   -1.44291375584687     -0.64221957304012      0.47816755826703
  O   -2.47388453794077     -0.62215518271652     -0.18491052528790
  O   -1.12206667190150     -1.47582335233858      1.31092146659470
  N   0.80777228083252     -0.94626548294295     -1.09556317085512
  H   1.67591210868021     -1.43890991404325     -1.25909440327946
  H   0.55607832444765     -0.41940858071536     -1.92275180983033
  C   1.54589535887214     -0.70209770532506      1.17634614064976
  N   2.13812871668964     -1.21279651177933      2.05106295325514
