15
Coordinates from ORCA-job run
  C   -0.51990505278147      0.54163194366508      0.34877707997034
  C   0.82764457212753     -0.19320624769275      0.15376014165035
  F   -0.20298492235442      1.66430023283730      1.06111157951535
  H   1.27735499201761     -0.30051675272718      1.14813584571148
  N   -1.24065791258210      0.87946779531474     -0.79820435561373
  H   -0.59691141376650      1.17905645664788     -1.52026695232684
  H   -1.84770085157602      0.13219521985966     -1.10333306683161
  N   -1.37650879887648     -0.32743862856826      1.26332904826325
  O   -2.32383613910052     -0.92664330751836      0.76540935203279
  O   -0.99700502664016     -0.39029265420394      2.42683100504502
  N   1.62199449856341      0.61783943311073     -0.76360383696011
  H   2.28971152754232      1.17619353289808     -0.25047042196800
  H   2.12001447925079      0.04365954681386     -1.42951342210039
  C   0.58015784519057     -1.52163559834354     -0.40701529592494
  N   0.38763220298544     -2.57261097209329     -0.89394670046296
