15
Coordinates from ORCA-job run
  C   -0.40766421158495      0.30905063601967      0.40210456816000
  C   0.86557035685374     -0.15107512809111     -0.32757893676653
  F   -0.41873825152344     -0.17984601022297      1.66186595275715
  H   0.84235224705700      0.28140610092361     -1.33242519322131
  N   -0.56252823902790      1.70242846332220      0.43617277981168
  H   -1.33676042082402      1.98072575815999      1.02632709319371
  H   -0.65784626452442      2.09359540417248     -0.49103541608795
  N   -1.57148917245095     -0.40346055375307     -0.33381728497220
  O   -1.69003267173119     -0.06458137919913     -1.51035455998902
  O   -2.25859641010269     -1.21492814322415      0.26844148540049
  N   1.00463022694145     -1.58447901808048     -0.45226963110985
  H   0.85275679181246     -2.04657246429887      0.43543431871936
  H   0.37263327618434     -1.95843663565544     -1.14723065025029
  C   2.01850649553492      0.40660046685080      0.39301653103455
  N   2.94920624738565      0.82857250307646      0.96934894332022
