15
Coordinates from ORCA-job run
  C   -0.42163369259433      0.55334763096187      0.39655088853067
  C   1.00648097725163      0.07812623646046      0.04994363970950
  F   -0.49465910149946      0.97317469990954      1.68546708563471
  H   1.56827057107689      1.00372271996780     -0.11697999229423
  N   -0.84731775885415      1.58342173398364     -0.45063277306003
  H   -0.79021586037521      1.30935314000777     -1.42162793192659
  H   -1.80556044072839      1.84352635491180     -0.24910270313513
  N   -1.34532817862190     -0.69884489119416      0.35082186576384
  O   -2.26971680535064     -0.68475647463123     -0.45766373103886
  O   -1.04915585213376     -1.61718238991659      1.10590329505614
  N   1.12959113604708     -0.74534257897144     -1.13213910522104
  H   0.61953675260425     -1.61507482868195     -1.05803014068706
  H   0.89145277771895     -0.25775493086519     -1.98351593591230
  C   1.62846885034569     -0.59925236728029      1.19435554323948
  N   2.17978662511335     -1.12646405466203      2.08564999534090
