15
Coordinates from ORCA-job run
  C   -0.50564850657996      0.56750439656947      0.43375895382138
  C   0.89095729853648      0.05197011003850      0.04198659932411
  F   -0.40035941948156      1.11676597467747      1.68034018000185
  H   1.50624079132457      0.95953726804448     -0.06873524825398
  N   -1.08753630519921      1.46849577483057     -0.46526265931521
  H   -1.71763247576778      1.01835568777062     -1.11222840051627
  H   -0.42826676207104      2.08596862962854     -0.91294793898783
  N   -1.43849432458022     -0.63980270324366      0.57120685919212
  O   -2.30795595093475     -0.79974616089536     -0.27660828468554
  O   -1.21156441096152     -1.36072936683556      1.53284033218049
  N   0.75890908116072     -0.72916269007622     -1.18143659519176
  H   1.45279944310746     -1.46267886068886     -1.22628939696380
  H   0.85991877782016     -0.14065343161711     -1.99683636024428
  C   1.52128767173320     -0.74692898760486      1.09536330769724
  N   2.10634509189345     -1.38889564059805      1.88484865194148
