15
Coordinates from ORCA-job run
  C   -0.45881954524656      0.45058558088504      0.11478625465460
  C   0.95930035756354     -0.13200594937920      0.20035305719991
  F   -0.30045168143983      1.84081396467559      0.13083456912552
  H   1.42621352595998      0.31454546194003      1.08101947512376
  N   -1.19842538941741     -0.02764546499116     -0.95972596202637
  H   -2.16294169412811      0.27449354411108     -0.92052180457936
  H   -0.77281002315473      0.21227133847334     -1.84313485260658
  N   -1.24271725983985      0.18098113813144      1.39420983582259
  O   -2.46484122325482      0.20769239670720      1.30847186146713
  O   -0.58401004381120      0.03798311963872      2.41839282297962
  N   1.78417201140234      0.16004835779654     -0.95613302245605
  H   1.80936452823369      1.15458908724497     -1.13922951428835
  H   1.48644922368954     -0.34737001631256     -1.77847115274300
  C   0.88392509887542     -1.58113215230281      0.40370231347568
  N   0.83359211456798     -2.74485040661822      0.54444611885088
