15
Coordinates from ORCA-job run
  C   -0.44252031243321      0.55632384112748      0.40312446186837
  C   0.90614431706411      0.03789048173924     -0.11012365697526
  F   -0.20622020817985      1.28034746699100      1.54178549270485
  H   1.54176157370684      0.93047590545183     -0.09286731708408
  N   -1.15099453298900      1.25512865407818     -0.56812506634075
  H   -1.71027636703507      2.01003991633169     -0.20235510792044
  H   -0.61859940507673      1.46547777513668     -1.39767236616705
  N   -1.32757223630209     -0.61440325320965      0.86953219622024
  O   -1.19963974623718     -1.65754778953371      0.23399415353601
  O   -2.13608951551175     -0.39006961400078      1.75651261488056
  N   0.81708320380787     -0.41451892375571     -1.48310763753127
  H   1.74379760189254     -0.57797327544396     -1.85592286921938
  H   0.28955745917271     -1.27818660821003     -1.52090731718161
  C   1.48846664836925     -0.91791854482352      0.85137243033792
  N   2.00410151975158     -1.68506603187874      1.57575998887188
