15
Coordinates from ORCA-job run
  C   -0.48440140027907      0.34329237626008      0.35224806768000
  C   0.77564878571917     -0.21091545302665     -0.30955288120016
  F   -0.51720877961598     -0.02538519405518      1.65305429570684
  H   0.73974662905804      0.07774401183048     -1.36379860616606
  N   -0.58867751758499      1.74335866501161      0.26168855175956
  H   -1.34361112517194      2.08870526292138      0.84190106200292
  H   -0.71926174107865      2.03851482985605     -0.69702351943201
  N   -1.66300708096638     -0.38384827951139     -0.33586103619945
  O   -1.76800392083954     -0.12052174150343     -1.53079801697359
  O   -2.38872521276404     -1.10292701640944      0.32959492242011
  N   0.73232730642330     -1.65729769807100     -0.22957869470397
  H   0.89089116791292     -1.96251234531080      0.72308464669319
  H   1.44211951756885     -2.06870238624133     -0.82100138966237
  C   1.95566279540439      0.41388697255027      0.31552481637595
  N   2.93750057621392      0.82760799569935      0.80951778169903
