15
Coordinates from ORCA-job run
  C   -0.45854952443943      0.29024372721752      0.42664039468523
  C   0.75217474063540     -0.16474762712883     -0.38579066334806
  F   -0.40954299746247     -0.25507342764581      1.66339645823464
  H   0.65053207636393      0.26654729688286     -1.38563951279745
  N   -0.55853617427067      1.68894014717587      0.53763878616231
  H   -1.26994675642498      1.94956236398117      1.20975568982205
  H   -0.74902496887084      2.11452247462851     -0.35992917495397
  N   -1.68415086266635     -0.33693830609090     -0.27741560612738
  O   -1.86353934125528      0.08887425591197     -1.41529177781102
  O   -2.37133123159861     -1.14169288376853      0.32824006260250
  N   0.70360674698003     -1.60858733930402     -0.50355580682259
  H   1.37251263421479     -1.93259696569319     -1.18946195015458
  H   0.92063584120384     -2.04176677454674      0.38597770277167
  C   1.97430350809275      0.36958245869769      0.24185710715813
  N   2.98885630949790      0.71413059968244      0.72257829057853
