15
Coordinates from ORCA-job run
  C   -0.40926252656929      0.29617528623141      0.41008712470161
  C   0.86878117769216     -0.15495656339462     -0.31709228171401
  F   -0.46128335859280     -0.26260094600835      1.63947188118057
  H   0.87777270231839      0.33233771959024     -1.29675491777220
  N   -0.53028570471955      1.68889131690597      0.51999957746182
  H   -1.31318820119860      1.95387377405136      1.10488106635119
  H   -0.59044116914221      2.13459157431353     -0.38521841184558
  N   -1.57336270561182     -0.34328201859903     -0.38988729053456
  O   -2.29341585583953     -1.16978362904633      0.15027325977103
  O   -1.65772633748833      0.06545969324185     -1.54705634123395
  N   0.97630112222032     -1.58235751418067     -0.51862916448853
  H   0.34868061524564     -1.90178180701587     -1.24407019089931
  H   0.79629875549744     -2.08845554632343      0.33921306259189
  C   2.01797281327932      0.33282978338261      0.45761845485547
  N   2.94515867290886      0.69905887685134      1.07616417157454
