15
Coordinates from ORCA-job run
  C   -0.38201319065774      0.60090078791481      0.43952350824931
  C   0.94448966640169      0.04651805214483     -0.08032070616690
  F   -0.19257878634539      1.14905574890417      1.67112065401673
  H   1.57566190695568      0.93836294181058     -0.15120991385121
  N   -0.90284842454970      1.54505013992840     -0.44471355106648
  H   -1.84509226942278      1.81851550577363     -0.19704781371035
  H   -0.83068807908878      1.20948348635334     -1.39727771003445
  N   -1.38667398593402     -0.54700672924088      0.71390047026828
  O   -2.45594482330837     -0.19673936300269      1.19751875578356
  O   -1.07162124165653     -1.69128229245355      0.39281029151590
  N   0.77153906347145     -0.49528492729314     -1.41716933229601
  H   1.65546527150465     -0.50456256332898     -1.90901651943351
  H   0.41969198808038     -1.44279440692270     -1.35858400294932
  C   1.57268964681109     -0.85359373734736      0.90165407252993
  N   2.12892325773837     -1.57862264324044      1.63881179714452
