15
Coordinates from ORCA-job run
  C   -0.39853717205009      0.57147728744211      0.26745921028668
  C   0.87920585540849     -0.26912774774195      0.27494625280056
  F   -0.20278747041417      1.72898982589323      0.94489732895412
  H   1.13932878399795     -0.44985325524016      1.31923508033922
  N   -0.84028540667088      0.85709322854335     -1.02916827139666
  H   -1.63610225322366      1.48266147720614     -1.00658696234195
  H   -1.09387845405622      0.01485274489550     -1.53105204260735
  N   -1.46768839643792     -0.16589151155070      1.13855676990602
  O   -1.06670382711252     -0.70147800209964      2.16605671451385
  O   -2.62914105422010     -0.10096982626281      0.75101994093346
  N   1.93300616179526      0.49058213720017     -0.35897267303688
  H   2.80952880688164     -0.01240787741820     -0.31375024695106
  H   1.70007805704506      0.67913052309259     -1.32561131076258
  C   0.56291009579483     -1.56559337409050     -0.36355338296656
  N   0.31106627326233     -2.56046562986914     -0.93647640767088
