15
Coordinates from ORCA-job run
  C   -0.55955832495447      0.16939229855053      0.44435472128341
  C   0.69085247355297     -0.10428732022219     -0.40664852696303
  F   -0.37549384849006     -0.42921367389425      1.64532188494744
  H   0.49477349009134      0.31458904316420     -1.39738692805133
  N   -0.96553924930757      1.50706349308684      0.65121098327356
  H   -1.21130419909720      1.95549387252937     -0.22090916791533
  H   -0.25376372005500      2.03315566509527      1.14244562275559
  N   -1.70864306991593     -0.53184351599145     -0.26994154877502
  O   -2.25400617283171     -1.46628742899399      0.28772423199240
  O   -1.97564465656285     -0.05481390283974     -1.36947696943618
  N   0.86963934555422     -1.53347851899915     -0.53565732946159
  H   1.57829601296496     -1.75155061490746     -1.22351705110732
  H   1.13632343600543     -1.94181315885964      0.35147891914394
  C   1.81578872456552      0.63535021412375      0.20026171935920
  N   2.71627975848035      1.20024354815793      0.70073943895426
