15
Coordinates from ORCA-job run
  C   -0.37326980014501      0.56830769198787      0.31983343215283
  C   0.87723862826472     -0.30716322821038      0.22198473968633
  F   -0.11569341545073      1.67122863641830      1.06208252353582
  H   1.17093398678375     -0.56107557473144      1.24231620600841
  N   -0.85489628168400      0.95112804630900     -0.93766830363475
  H   -1.60893203563681      1.62019590647835     -0.84309402490952
  H   -1.18348276165558      0.15459966210591     -1.46933882547916
  N   -1.42228923860352     -0.20710553148422      1.18070012881813
  O   -2.57766334627616     -0.22211058607074      0.77006647057702
  O   -1.00697615055292     -0.70583988928659      2.22078003622473
  N   1.92941847461854      0.45881779228606     -0.40610552225039
  H   1.66574805751167      0.70957131368487     -1.35057588629656
  H   2.79103952397433     -0.07107278127067     -0.42468956556364
  C   0.49716825495286     -1.55187295022384     -0.48223796761825
  N   0.21065610389885     -2.50660850799247     -1.10505344125100
