15
Coordinates from ORCA-job run
  C   -0.56537368996083      0.47351184299247      0.19608568107218
  C   0.85334432149062     -0.10131571081187      0.25474378713149
  F   -0.51932660713140      1.67120351818433      0.90624565576315
  H   1.17219504452101     -0.05410382018611      1.30218390068015
  N   -1.05891129716401      0.62650651500580     -1.07788003166867
  H   -2.00671164716310      0.31490900311807     -1.21399331672279
  H   -0.40362898267733      0.41006652057690     -1.81193321514846
  N   -1.48722195322479     -0.39323113694460      1.06965085852936
  O   -1.05478334479938     -0.66835319150214      2.18265969494870
  O   -2.57805822695056     -0.71260458200750      0.61049093778157
  N   1.66935865299178      0.66273895356731     -0.68332548255425
  H   1.72421510694633      1.62253397302648     -0.36065795068433
  H   2.60816912565776      0.28420241754527     -0.71318206887598
  C   0.82558695862130     -1.50754108492760     -0.16059219887380
  N   0.82014653884260     -2.63052321763682     -0.50149625137832
