15
Coordinates from ORCA-job run
  C   -0.39790753366353      0.48272832683768      0.20681687501030
  C   0.91728446072470     -0.31421887445105      0.24019364943209
  F   -0.19180214443585      1.68133512898916      0.82419929867380
  H   1.15837817891647     -0.48147445536669      1.29299303359917
  N   -0.86447472225086      0.70543085393496     -1.09163548627425
  H   -1.08876715115345     -0.16258295626467     -1.56206117237929
  H   -1.68287646090069      1.30175331451703     -1.08728979852701
  N   -1.42055719596854     -0.23425088777334      1.13498089969838
  O   -2.51851390896722     -0.50414440266386      0.65921974351734
  O   -1.03723602388350     -0.46515142966703      2.27669737119338
  N   2.02232614453998      0.36579948732665     -0.39816691734161
  H   2.27879063679138      1.17348570335894      0.15594543280203
  H   1.73684091977730      0.69022978202873     -1.31521155825149
  C   0.67042718619681     -1.61477897632672     -0.39531828472840
  N   0.41808761427699     -2.62416061447979     -0.93936308642444
