15
Coordinates from ORCA-job run
  C   -0.55266373442325      0.43258142073548      0.26522539726830
  C   0.82998034904317     -0.22593330773954      0.30505739829851
  F   -0.51938142333987      1.50184249307572      1.15109723259751
  H   1.12693205257877     -0.27370723482010      1.35406193631313
  N   -0.93349130960398      0.76690609466061     -1.02941257540455
  H   -0.30203706284984      1.46981854620951     -1.39179675580316
  H   -1.89667984418170      1.07285440086039     -1.07091567995231
  N   -1.59992829915552     -0.48386773123096      0.88122802413164
  O   -1.21235716117392     -1.19073478067567      1.80618877555376
  O   -2.74970597625978     -0.38140250811714      0.47028600849300
  N   1.74679392694620      0.63036403267674     -0.44020245902621
  H   1.87962560266654      0.27552041497657     -1.37880849313272
  H   2.64852258618409      0.66488111081125      0.01423869939778
  C   0.76329193754981     -1.59369762178823     -0.22923422220371
  N   0.77109835601927     -2.66542532963463     -0.70901328653098
