15
Coordinates from ORCA-job run
  C   -0.44349173905385      0.48475064961701      0.26902499537755
  C   0.84255456176841     -0.31022978460787      0.04497035946352
  F   -0.02944398151951      1.77048639577317      0.64947853319666
  H   1.42922537780154     -0.24847386480563      0.96780958786374
  N   -1.28645636897166      0.44022060275388     -0.82267782569626
  H   -2.11725137501237      1.00307583549465     -0.70884737464023
  H   -0.77698373738318      0.62778849157271     -1.67611711900218
  N   -1.19779309961556      0.00430025529131      1.49823168870237
  O   -0.58308277660910     -0.68915105239171      2.30259437945505
  O   -2.35064999237232      0.40354099870947      1.60592188505524
  N   1.49075140669046      0.27993422832633     -1.12835937331818
  H   2.20288773172993     -0.34527278498529     -1.48418233505125
  H   1.93671772410532      1.14721162013590     -0.85366270873512
  C   0.53681416639365     -1.71787241121289     -0.21470406710077
  N   0.34820210204824     -2.85230917967104     -0.44748062557015
