15
Coordinates from ORCA-job run
  C   -0.36801562024359      0.48079414361212      0.25894399347198
  C   0.90962928370898     -0.37208807913761      0.18004950390010
  F   -0.08555154332112      1.61618264509044      0.96037773287607
  H   1.17814355210693     -0.63357996014824      1.20667138740518
  N   -0.86791949234708      0.82721760626378     -0.99941663712520
  H   -1.65777845922829      1.45548312585736     -0.91683544026075
  H   -1.14815034772847      0.01024210360328     -1.52775748630511
  N   -1.39036183453139     -0.26247856701400      1.16588476943290
  O   -2.51604337704140     -0.44334750906394      0.71328575583840
  O   -0.97876195685464     -0.60194164109070      2.27006708413061
  N   2.02239358879096      0.30907129351486     -0.44344903889403
  H   2.33211694451984      1.05979526327146      0.16129344619796
  H   1.72198250013301      0.71556366765255     -1.32222357431695
  C   0.58224544129875     -1.60521585724105     -0.54669138543293
  N   0.26607132073750     -2.55569823517032     -1.15920011091823
