15
Coordinates from ORCA-job run
  C   -0.53391495493709      0.33870360297180      0.37350302946494
  C   0.67100407037825     -0.27844059968201     -0.35427718852996
  F   -0.38485987625572      0.08845830337665      1.69618934329154
  H   0.49685728316447     -0.13957647049016     -1.42474027698902
  N   -0.81188169394675      1.71216511298547      0.19059787873272
  H   -1.02918310666960      1.91748189367793     -0.77511825073774
  H   -0.04668306811643      2.28679534547839      0.52072768618034
  N   -1.75463743786936     -0.42569569815383     -0.12456250317901
  O   -2.37380036742322     -1.11013785838809      0.66899852868825
  O   -1.99452422480848     -0.25632645147109     -1.31693774530434
  N   0.71611184176698     -1.69614581350104     -0.07291065852872
  H   1.38689041456445     -2.16474508772572     -0.66743532402615
  H   0.96312091169261     -1.86107616860090      0.89486890716820
  C   1.86932596094988      0.49474458239770      0.02980881531882
  N   2.82517424751001      1.09279530712492      0.36028775845013
