16

C	-0.29828	-0.032765	-1.502335
C	0.0	0.0	0.0
Br	-2.245023	-0.312372	-1.856732
H	1.09997	0.0	0.0
C	-0.020541	1.278463	-2.113503
N	0.239287	2.313011	-2.609793
N	0.429434	-1.123864	-2.078807
H	0.38389	-1.098112	-3.091841
H	1.406008	-1.058532	-1.773257
C	-0.460036	-1.233327	0.628122
N	-0.826924	-2.188191	1.205766
C	-0.511485	1.227934	0.743417
H	-0.181357	1.172652	1.782754
H	-1.602866	1.285178	0.718967
H	-0.087164	2.132851	0.3052
Br	3.424667	0.0	0.0
