16

C	-0.296092	0.005936	-1.513986
C	0.0	0.0	0.0
Br	-0.011526	-1.886289	-2.239418
H	1.102899	0.0	0.0
C	-1.701766	0.278188	-1.826898
N	-2.82678	0.533214	-2.053074
N	0.556237	0.954395	-2.113449
H	1.523136	0.800813	-1.813632
H	0.486285	0.955435	-3.122368
C	-0.560613	-1.144577	0.699369
N	-1.059129	-2.003511	1.327249
C	-0.466886	1.304428	0.656474
H	-0.111617	1.323324	1.688467
H	-1.557094	1.388951	0.654232
H	-0.032558	2.150551	0.124499
Br	3.440258	0.0	0.0
