16

C	-0.513965	-0.015615	-1.466845
C	0.0	0.0	0.0
Br	-2.480599	-0.079244	-1.539888
H	1.107815	0.0	0.0
C	0.019932	1.269513	-2.170016
N	1.171443	1.548025	-2.308669
N	-0.011427	-1.168547	-2.190747
H	1.019436	-1.145248	-2.184911
H	-0.317433	-1.121518	-3.168235
C	-0.387955	-1.311963	0.682908
N	0.172749	-2.360058	0.526847
C	-0.444932	1.245924	0.778731
H	-0.038828	1.198955	1.80317
H	-1.541841	1.311963	0.846875
H	-0.058332	2.162991	0.312694
Br	2.668514	0.0	0.0
