16

C	-0.437409	0.005551	-1.47008
C	0.0	0.0	0.0
Br	0.258041	-1.700334	-2.32954
H	1.097355	0.0	0.0
C	-1.891802	-0.082585	-1.597694
N	-3.064933	-0.112034	-1.684073
N	0.03502	1.172177	-2.127575
H	-0.297525	1.228609	-3.082412
H	1.050369	1.195752	-2.116177
C	-0.446812	-1.206729	0.673299
N	-0.827816	-2.147631	1.274009
C	-0.529153	1.232102	0.735791
H	-1.623402	1.241698	0.76379
H	-0.180847	2.140605	0.244366
H	-0.161041	1.221792	1.76491
Br	2.752506	0.0	0.0
