16

C	-0.480062	-0.017634	-1.447886
C	0.0	0.0	0.0
Br	-2.451868	-0.032546	-1.538271
H	1.108831	0.0	0.0
C	-0.052952	1.246332	-2.278091
N	-0.323172	1.463311	-3.415794
N	5.5e-05	-1.188481	-2.158549
H	1.022804	-1.116537	-2.251035
H	-0.397743	-1.224579	-3.103142
C	-0.39013	-1.306556	0.694133
N	0.181703	-2.351091	0.556873
C	-0.444572	1.249679	0.773025
H	-1.540425	1.31738	0.843023
H	-0.037113	1.209058	1.797529
H	-0.058218	2.169278	0.304603
Br	2.666804	0.0	0.0
