16

C	-0.534083	-0.198661	-1.441111
C	0.0	0.0	0.0
Br	0.152642	1.255001	-2.574281
H	1.10807	0.0	0.0
C	-0.017254	-1.453894	-1.998905
N	0.326873	-2.486665	-2.44211
N	-1.977598	-0.213043	-1.59731
H	-2.353933	-0.977029	-1.041967
H	-2.357933	0.659873	-1.250772
C	-0.492171	-1.136655	0.776878
N	-0.969306	-2.026172	1.380453
C	-0.446156	1.304316	0.662894
H	-0.027105	1.336637	1.669721
H	-0.047387	2.154548	0.110989
H	-1.533619	1.388723	0.740979
Br	3.424582	0.0	0.0
