16
Coordinates from ORCA-job run
  C   -0.64456458556723      0.27239007987845      0.22557336073993
  C   0.80232330441151     -0.17907692628400     -0.11594808981376
  Br  -1.31557190818944     -0.64747440958206      1.82727077590540
  H   1.04367261497012      0.27832765230323     -1.07827790149639
  C   -1.57072220956010     -0.07387634582529     -0.93791103728184
  H   -2.59479397836660      0.21455262440767     -0.70183619578875
  H   -1.24898079928734      0.46552283194165     -1.83340403704217
  H   -1.54543778275161     -1.14719467103626     -1.13006527422399
  C   -0.69069912966910      1.70517213188998      0.49442810002879
  N   -0.74592483962471      2.86875333568103      0.65639872054312
  N   1.05633376794255     -1.57468052154443     -0.15256241487720
  H   0.54139384322024     -2.09414289224059      0.54550460549548
  H   0.92245249402037     -1.96647150875680     -1.07271980750097
  N   1.76658204912323      0.46579831031853      0.85468868787261
  O   1.84492313250274     -0.04131332330350      1.96735797203254
  O   2.37801402682538      1.45171363215238      0.45050253540722
