16
Coordinates from ORCA-job run
  C   -0.68745682247617      0.22417289584454      0.27020177613765
  C   0.74862812091882     -0.07100054071483     -0.20939609013946
  Br  -1.18803488899480     -1.06805314005367      1.66779985809517
  H   1.02237705555121      0.71611497350019     -0.91775314036357
  C   -1.66454934719892      0.08889501823906     -0.89583561985746
  H   -1.61526547549113     -0.91897137179201     -1.30211369660517
  H   -1.38874823332452      0.80393141245233     -1.67647880033770
  H   -2.67722708027043      0.30927850309902     -0.55760688228334
  C   -0.80654288065990      1.55728287093904      0.85330415636540
  N   -0.98801268201208      2.64286589077195      1.26679882145651
  N   0.85100123042718     -1.34608077719277     -0.80886777896532
  H   0.76771090963348     -2.07591750545245     -0.11138209932209
  H   1.73821502410113     -1.45131091821351     -1.28302900904430
  N   1.72730204455691      0.14222026691584      0.95764004873587
  O   2.18864090673243     -0.86055333226206      1.49288820929204
  O   1.97196211850680      1.30812575391934      1.25283024683578
