16
Coordinates from ORCA-job run
  C   -0.76018693899527     -0.16346860986297      0.11152298017973
  C   0.71881494150748     -0.59811776182927     -0.10299747291698
  Br  -1.76275067573408     -1.85298734197559      0.29481004133996
  H   0.73935995517358     -1.31827068615517     -0.92019795130030
  C   -1.33459011361554      0.63108628687757     -1.05451626170644
  H   -0.84881252784349      1.61159468096805     -1.10679219259996
  H   -2.40579635493448      0.78205189406104     -0.91143675081248
  H   -1.16759624349687      0.09775813595327     -1.99542202848466
  C   -0.90538821031599      0.54523020107738      1.37601870718262
  N   -0.99095372178698      1.08980630332179      2.41561363026892
  N   1.43288818478883     -1.09628018470456      1.02052435578280
  H   1.16188823082665     -2.03610680206664      1.26599190025633
  H   1.34004890801343     -0.48372868465767      1.82247660799987
  N   1.43519632173704      0.62469605426120     -0.61738683134354
  O   1.70185079710379      0.66543391031651     -1.81352410787615
  O   1.64402744757190      1.50130260441506      0.21431537403031
