16
Coordinates from ORCA-job run
  C   -0.86758993610679     -0.20450650947366     -0.06410443523101
  C   0.60678779957578     -0.65886912986521      0.10675132667402
  Br  -1.77809778390954     -1.38428716832203     -1.33739649148100
  H   0.63655104128414     -1.74786413163224      0.21136916144306
  C   -1.01222654180427      1.24558610443863     -0.51038339876258
  H   -0.42493420984906      1.87832369469335      0.15631651406694
  H   -0.65071287479459      1.36568434942988     -1.53104817635004
  H   -2.06236126941004      1.53603267056859     -0.47301538263654
  C   -1.49860203593122     -0.41153630350618      1.23819259062628
  N   -1.95641183396140     -0.56669870225641      2.31042450281440
  N   1.20334002894055      0.11085137197246      1.16750053200110
  H   2.21353897542697      0.09705197705350      1.10326040306017
  H   0.92748820641511     -0.27104760253816      2.06422815471120
  N   1.36897414671863     -0.39103481730077     -1.16611253377589
  O   1.46296893316936     -1.33451229140507     -1.94686334712156
  O   1.83028735423634      0.73582648814328     -1.32811942003859
