16
Coordinates from ORCA-job run
  C   -0.67125059404145      0.23551540641024      0.30060013291569
  C   0.73307275371824     -0.07703534247961     -0.25605116978906
  Br  -1.04695659980453     -0.94737991706185      1.82796641844471
  H   0.94041092252390      0.65449145180755     -1.04226379215965
  C   -1.72502936490207     -0.00621576413648     -0.77818838529287
  H   -2.71544450854088      0.22751777687392     -0.38711402446273
  H   -1.68558328896012     -1.04286677906114     -1.10543942102501
  H   -1.51802404251187      0.64678455845715     -1.63111404052303
  C   -0.77482910942974      1.60929015557642      0.78373972533265
  N   -0.94624627399469      2.72202999360007      1.12260380450986
  N   0.81770887860006     -1.39458212315923     -0.75885468017033
  H   0.79829758850124     -2.06714918902910     -0.00161929155075
  H   1.67130284628673     -1.52519252721658     -1.28555686588368
  N   1.78724169145064      0.24262002221543      0.81687741507605
  O   2.30401526048390     -0.70751839033876      1.39577255510308
  O   2.03031384062067      1.43169066754196      0.99964161947505
