14
Coordinates from ORCA-job run
  C   0.89631829732397     -0.00099834205615      0.40247784728242
  C   -0.59873526630897      0.09222148776759      0.08706142964563
  Br  1.14073207259439     -0.03317313696864      2.38203954082352
  H   -1.08806658437604     -0.77599105052102      0.55797114705682
  H   1.38657953139725      0.91864708725529      0.08104473845410
  N   1.48859352733876     -1.12266419523425     -0.24633916628168
  H   2.49728351569916     -1.09974539539619     -0.17442064053349
  H   1.16360613631134     -1.98672992156001      0.17242802486572
  N   -0.70281342503634      0.12218790485689     -1.36932112561968
  H   -0.14863118491764     -0.62321697834671     -1.77306031069524
  H   -1.67101058256333      0.00754744483582     -1.64444067937628
  N   -1.16860733846521      1.28395961323959      0.67367199758669
  H   -2.16025256375970      1.16954983165363      0.83264097978584
  H   -1.03699613523764      2.04540565047416      0.01724621700564
