14
Coordinates from ORCA-job run
  C   0.77278017439090     -0.07585013203450      0.71958668901423
  C   -0.65435045087728      0.01390494993699      0.15226646409543
  Br  0.80742624750055     -1.66145777867893      2.00702729189662
  H   -1.34507103288287     -0.38800907984729      0.90121213309134
  H   0.99179359075913      0.75505216266477      1.39016076151614
  N   1.72612137852444     -0.16249845474229     -0.30045388209618
  H   2.67441619070234     -0.17491502777183      0.04700024853011
  H   1.54507134332525     -0.97504917462985     -0.87729831829574
  N   -0.74657506301076     -0.81645800385340     -1.03022740296241
  H   -0.51838141465644     -0.24586879447553     -1.83627487786697
  H   -1.67417453535213     -1.19886545856931     -1.14421847029023
  N   -0.91218774506782      1.41549326148959     -0.18163090151779
  H   -1.87795146641560      1.50735743951532     -0.47796117695094
  H   -0.78891721693973      2.00716409099626      0.63281144183639
