14
Coordinates from ORCA-job run
  C   0.80084465171997     -0.09875110205324      0.57571424293228
  C   -0.38561884341881      0.44437095603335     -0.21262296307283
  Br  0.21365551723112     -1.20793814704896      2.07203559047428
  H   0.07758803684549      1.07981163556761     -0.99087486282676
  H   1.30201928984456      0.74880573756218      1.05238218964364
  N   1.63232519668782     -0.91737510656989     -0.28868631391664
  H   2.07615293606327     -0.31266991818137     -0.97374900934890
  H   2.36366430535220     -1.36622123475141      0.24913905999642
  N   -1.15735108773682      1.33994262382878      0.62308224723979
  H   -1.77970521351017      1.89303707488740      0.04623209499199
  H   -1.73647565428475      0.76859183393492      1.22997657986991
  N   -1.15666852068940     -0.65854725893157     -0.75785387099574
  H   -1.72694951630608     -0.33868123911522     -1.53092563763756
  H   -0.52148109779842     -1.37437585516260     -1.09484934734987
