14
Coordinates from ORCA-job run
  C   0.78009142884362     -0.03611502266263      0.48789183652616
  C   -0.47920027639588      0.37695350399819     -0.28519392388511
  Br  0.33872416303305     -1.02263641370100      2.11169765693745
  H   -0.07850945864249      0.95936458254348     -1.14044995234474
  H   1.27402712755486      0.87212689420929      0.85747914261911
  N   1.61137071046643     -0.88110553333062     -0.34865318721524
  H   2.41288483404298     -1.21894681417236      0.16991944890028
  H   1.95328064689383     -0.32860340895038     -1.12936052552952
  N   -1.39297502074735      1.25514358817800      0.40874511271363
  H   -0.92718965350835      2.10012712683459      0.71779247748022
  H   -1.75814418143108      0.76310031111156      1.21639535433775
  N   -1.21453808323140     -0.80084793306043     -0.66684437572713
  H   -1.93206600192811     -0.55088768429986     -1.33403261221609
  H   -0.58675623495011     -1.48767319669783     -1.06438645259679
