14
Coordinates from ORCA-job run
  C   0.65823523214642     -0.36178493896335      0.69603257713442
  C   -0.72204460162864      0.09678627689708      0.19592951464423
  Br  0.53547790965002     -2.20753912091755      1.34870701906164
  H   -1.44590992431939     -0.04792284358667      1.00894853202480
  H   0.93868677757182      0.20306306084079      1.59498488484979
  N   1.59301832042945     -0.29496079311525     -0.39197165240668
  H   1.52776522560272      0.64346390594416     -0.77540116018718
  H   2.53793633026471     -0.47331675554516     -0.07823238229772
  N   -1.20865191526149     -0.61417122204482     -0.96424012114398
  H   -0.42944435790449     -0.75575211298585     -1.59901821747221
  H   -1.54086032536989     -1.52847712217866     -0.68576022300163
  N   -0.55367711149019      1.49610843316246     -0.19810697411125
  H   -1.35208033935377      1.74627077526606     -0.76892377881670
  H   -0.53945122033728      2.09823245722674      0.61705198172247
