14
Coordinates from ORCA-job run
  C   0.69883035077065     -0.40301920276341      0.70536469235449
  C   -0.38175299561923     -0.05618438839575     -0.32821917628384
  Br  0.75424062561025     -2.34238958180166      0.97440694239326
  H   -0.08229856465283     -0.52734990427947     -1.27829188316363
  H   0.39850598073033      0.01774277373052      1.66872313200183
  N   2.02822904536581      0.04164453583839      0.37663675123275
  H   2.34189302665397     -0.42854725998227     -0.46611312947293
  H   1.94993194924765      1.03163143495019      0.16259426347753
  N   -0.32096376200297      1.38648152851308     -0.51748364658280
  H   -0.92357499133208      1.81457721453219      0.17783371444221
  H   -0.66675491626051      1.64379241766851     -1.43290828185429
  N   -1.69589946960335     -0.45491974407936      0.15432011597647
  H   -2.38733502282897     -0.28145697190262     -0.56603374607028
  H   -1.71305125607870     -1.44500285202835      0.36817025154922
