14
Coordinates from ORCA-job run
  C   0.88832627195609     -0.07290743257240      0.62512663261922
  C   -0.55909292927590      0.05781566297118      0.12886472232151
  Br  0.86159933375785     -0.42388407841531      2.54765547415653
  H   -1.13992319017426     -0.78823227562830      0.52416290854699
  H   1.37603391724407      0.89729789910025      0.50177358702093
  N   1.70425965987169     -1.07300789715381     -0.00865139667448
  H   1.27553729282231     -1.98915928276982      0.04115923495822
  H   1.87144441090218     -0.81437841974683     -0.97282244106653
  N   -0.49511214154685      0.08091772063081     -1.34115712094790
  H   -0.32725516265112     -0.85094384581463     -1.70328042019218
  H   -1.39572574972341      0.38009799612172     -1.69709520846440
  N   -1.13783229759727      1.27021544744588      0.65092279171505
  H   -2.14597674284409      1.26353964656529      0.57122251893897
  H   -0.77528267274131      2.06362885926598      0.13411871706808
