14
Coordinates from ORCA-job run
  C   0.90094822504069      0.07423966916452      0.43167643244638
  C   -0.57612837504566     -0.08103573313270      0.02299549134527
  Br  1.02548378279146      0.28822753401278      2.37041158375194
  H   -0.93613366504500     -1.01698731376430      0.46483603128339
  H   1.28572209224510      1.01316398750102      0.01526482164951
  N   1.77385089028553     -1.00559639203933      0.03910892651490
  H   1.59390985163188     -1.17596726519426     -0.94614474221274
  H   1.50957694224404     -1.84605304212347      0.54270810944474
  N   -0.56399578149165     -0.24903594567451     -1.42455656567404
  H   -0.33575475719028      0.64191708459638     -1.85709597593958
  H   -1.50679982377761     -0.47588934708820     -1.72067090507838
  N   -1.48490601724445      0.97504949356339      0.44134728441356
  H   -1.10873207391997      1.87912267352701      0.17191185453021
  H   -1.57804129052407      0.97884459665169      1.45020765352484
