14
Coordinates from ORCA-job run
  C   0.86745868565508      0.04159964872260      0.23377929191319
  C   -0.65343138110931      0.06071918004816      0.06099826760294
  Br  1.30560920614501      0.54961033247211      2.15096240752170
  H   -1.06567811612934     -0.72715212319680      0.71530890396380
  H   1.31032454036909      0.85082555869933     -0.34741273621506
  N   1.41416296428325     -1.20970756807679     -0.13239138175816
  H   1.10277571405617     -1.94515131139576      0.49056821172161
  H   2.42496792914532     -1.19626933115461     -0.14125676661001
  N   -1.04387886966348     -0.25018083701210     -1.30137697796318
  H   -0.73413604580721      0.51422944258444     -1.89349139295971
  H   -0.57262641656358     -1.09371494319875     -1.60442689354823
  N   -1.16685335482790      1.38777021075897      0.33020746580586
  H   -2.16144565099038      1.37805228595329      0.13810823404111
  H   -1.02724920456276      1.63736945479589      1.30042336648417
