14
Coordinates from ORCA-job run
  C   0.65435945234970     -0.35875089952270      0.64542805378733
  C   -0.47383027241181     -0.14078398258171     -0.37558474618258
  Br  0.82387102308782     -2.30631820627803      0.97701381490592
  H   -0.18034673994759     -0.66772561305638     -1.30029244985033
  H   0.34261255514881      0.06794328350835      1.60140872513741
  N   1.94208685065524      0.14661653058527      0.28605880463586
  H   2.18081296683845     -0.05831876733667     -0.67552068564275
  H   2.02157457118918      1.13564714175666      0.47377487765641
  N   -0.65508960028642      1.25767903408846     -0.71821773895480
  H   0.18632631954675      1.65442447072017     -1.11438958824472
  H   -0.91611420891150      1.77369446683385      0.11510329957855
  N   -1.73599600866951     -0.56937233558657      0.19042170202623
  H   -2.46667233983981     -0.37254858581086     -0.48269010643419
  H   -1.72459456874930     -1.56318653731985      0.37848603758167
