14
Coordinates from ORCA-job run
  C   0.84771549086157      0.04860351867554      0.59350440380682
  C   -0.38557095260959      0.37910793141605     -0.27123260947493
  Br  0.30029250484109     -0.82711183039670      2.25867907709880
  H   0.01449525085987      1.03571463153149     -1.06602461293300
  H   1.31580985146474      0.98582230815213      0.90865380081816
  N   1.84796455555680     -0.77758508966996     -0.03259744310590
  H   1.43411424012567     -1.65258049385961     -0.33086643123004
  H   2.25275645885483     -0.29834235722478     -0.82920683925453
  N   -1.44744169647949      1.11772173733607      0.37783296289926
  H   -1.73769379583441      0.60960117405410      1.20657126859143
  H   -1.11882779728613      2.02948992547784      0.67118332777469
  N   -0.96403992072316     -0.84833671204112     -0.79184314810596
  H   -1.90685629079290     -0.63113699700488     -1.09112337161143
  H   -0.45271789883889     -1.17196774644613     -1.60253038527335
