14
Coordinates from ORCA-job run
  C   0.84246603536068      0.01575858499690      0.53187958756373
  C   -0.60988412990723      0.01872378762072      0.02632737646619
  Br  0.80388152315540     -0.00555824297448      2.50330956561220
  H   -1.12062973091591     -0.85658275664171      0.45852092956619
  H   1.30188265639252      0.96726784655683      0.25381309274109
  N   1.68318968903881     -1.05220844906126      0.07760570309338
  H   1.23659001044380     -1.95423578206371      0.18945983983091
  H   1.93770421949841     -0.90196483617500     -0.89009882403820
  N   -0.52894605903277      0.00046820007462     -1.43072774601142
  H   -0.31471548100802     -0.93037787461268     -1.76435961179319
  H   -1.44458019699383      0.25390969385586     -1.78364462152160
  N   -1.38677437102132      1.18873057927970      0.37424304991189
  H   -1.51642797315072      1.23794596686421      1.37635900692810
  H   -0.88375619185981      2.01912328227999      0.07831265165075
