14
Coordinates from ORCA-job run
  C   0.76560151824726     -0.12394595563043      0.66063286277837
  C   -0.41572890662568      0.40459330437395     -0.18050140176822
  Br  0.18355570252033     -1.62011642588170      1.77630290560454
  H   0.04561370404888      1.19781988775520     -0.79981559942432
  H   1.08366206160322      0.65355423009880      1.36219914488956
  N   1.92292960302732     -0.54703944358073     -0.08655480010640
  H   2.33365440340627      0.24393162050626     -0.56979267139226
  H   1.66985770634728     -1.25727452112310     -0.76266106547437
  N   -1.47373754887192      0.87795815102407      0.68382721019375
  H   -2.21417549078936      1.25666451356970      0.10677714309182
  H   -1.14313880381723      1.59993861182188      1.31213579624914
  N   -1.02292950747084     -0.52761703226519     -1.10131417965911
  H   -0.37191003208380     -0.82920267205698     -1.81400613594981
  H   -1.36325440954172     -1.33226426861174     -0.58722920903269
