15

C	0.0	0.0	0.0
C	-0.259911	-0.109954	-1.559045
Br	1.934252	0.0	0.0
H	0.396597	0.669929	-1.958412
N	-0.719147	1.208413	0.487618
O	-0.739306	1.379053	1.724359
O	-0.747485	2.171593	-0.343046
C	-0.421269	-1.13868	0.799692
N	-0.600849	-2.088371	1.476306
N	-1.641296	0.064897	-2.014924
H	-1.623549	0.011395	-3.032474
H	-1.874255	1.022552	-1.7617
C	0.208527	-1.416903	-2.042279
N	0.510375	-2.460741	-2.48899
H	-1.86385	0.0	0.0
