15

C	0.0	0.0	0.0
C	-0.400674	0.090677	-1.507231
Br	1.927741	0.0	0.0
H	-1.418933	0.493612	-1.480007
N	-0.42151	1.263479	0.719225
O	-0.478121	2.280825	0.028464
O	-0.465389	1.223308	1.945006
C	-0.567755	-1.154692	0.669635
N	-0.613724	-2.17067	1.277418
N	-0.329127	-1.264173	-2.050622
H	-0.225082	-1.228301	-3.058925
H	-1.215126	-1.712482	-1.830348
C	0.430068	0.989484	-2.306864
N	0.995451	1.660284	-3.090147
H	-2.216872	0.0	0.0
