15

C	0.0	0.0	0.0
C	-0.454748	0.117817	-1.492253
Br	1.916908	0.0	0.0
H	-1.386491	0.688402	-1.445508
N	-0.398359	1.265268	0.741489
O	-0.44366	2.292013	0.065124
O	-0.444984	1.206418	1.964986
C	-0.552403	-1.153586	0.683974
N	-0.594229	-2.185833	1.263162
N	-0.636566	-1.237655	-2.005104
H	-1.49119	-1.568917	-1.557294
H	-0.814669	-1.17976	-3.00225
C	0.475692	0.847436	-2.359566
N	1.07747	1.444474	-3.174478
H	-2.225398	0.0	0.0
