14

C	0.0	0.0	0.0
C	-0.352526	0.028041	-1.489986
F	1.357133	0.0	0.0
H	0.274523	0.772602	-1.979992
H	-1.408184	0.234736	-1.623264
N	-0.387437	1.338063	0.611596
O	-0.370982	2.310937	-0.147527
O	-0.444188	1.393382	1.83715
C	-0.637707	-1.055064	0.781254
N	-0.611754	-2.026293	1.466872
N	-0.06293	-1.266969	-2.167413
O	-0.479836	-1.352976	-3.323088
O	0.568767	-2.141023	-1.5797
H	-2.264223	0.0	0.0
