14

C	0.0	0.0	0.0
C	-0.349582	0.03545	-1.49269
F	1.356704	0.0	0.0
H	-1.40019	0.25125	-1.638562
H	0.285068	0.771185	-1.985159
N	-0.360671	1.358462	0.599413
O	-0.350028	2.321916	-0.169882
O	-0.410523	1.427969	1.823377
C	-0.707405	-1.020666	0.769868
N	-0.659336	-1.963612	1.497021
N	-0.070659	-1.266331	-2.16509
O	-0.50063	-1.361052	-3.315159
O	0.56783	-2.135473	-1.577942
H	-2.232496	0.0	0.0
