14

C	-0.461843	0.016703	-1.445058
C	0.0	0.0	0.0
Cl	0.247017	-1.466398	-2.261876
H	1.091669	0.0	0.0
H	0.015213	0.855062	-1.943797
N	-1.876962	0.092057	-1.564778
H	-2.155085	0.141882	-2.53588
H	-2.308048	-0.72461	-1.146808
C	-0.57689	-1.103798	0.735446
N	-1.052632	-2.040785	1.263781
N	-0.36986	1.287962	0.638988
O	-0.713922	1.279765	1.821648
O	-0.228276	2.303716	-0.04033
F	2.453398	0.0	0.0
