14

C	-0.243207	-0.115977	-1.506532
C	0.0	0.0	0.0
Cl	0.052882	1.567056	-2.252211
H	1.092219	0.0	0.0
H	-1.276195	-0.322884	-1.787012
N	0.674069	-1.093033	-1.931871
H	0.716252	-1.181098	-2.936921
H	1.592967	-0.875513	-1.519146
C	-0.538394	-1.15914	0.685792
N	-0.967305	-2.087784	1.265433
N	-0.64121	1.21075	0.587337
O	0.038744	1.934516	1.304453
O	-1.832435	1.383968	0.325598
F	2.549551	0.0	0.0
