14

C	-0.456177	-0.039384	-1.440447
C	0.0	0.0	0.0
Cl	-2.345273	0.289963	-1.484355
H	1.094345	0.0	0.0
H	-0.436411	-1.072652	-1.781963
N	0.2673	0.789784	-2.29881
H	0.416647	1.70093	-1.892204
H	-0.142296	0.845976	-3.219294
C	-0.498656	-1.139674	0.737178
N	-0.851055	-2.119172	1.283036
N	-0.356836	1.256575	0.68789
O	-0.200788	2.301052	0.051111
O	-0.708459	1.20971	1.864796
F	2.43737	0.0	0.0
