14

C	-0.19287	-0.154467	-1.518612
C	0.0	0.0	0.0
Cl	0.023907	1.537335	-2.288077
H	1.09223	0.0	0.0
H	-1.199604	-0.42223	-1.82712
N	0.791051	-1.077679	-1.901278
H	1.688775	-0.819425	-1.452375
H	0.869558	-1.184036	-2.90257
C	-0.552746	-1.151993	0.686971
N	-1.002488	-2.073709	1.261438
N	-0.661849	1.216521	0.547727
O	0.014358	1.994465	1.211501
O	-1.864046	1.340756	0.302491
F	2.568896	0.0	0.0
