14

C	-0.454533	-0.028013	-1.44141
C	0.0	0.0	0.0
Cl	-2.342476	0.313874	-1.485047
H	1.094411	0.0	0.0
H	-0.442049	-1.058802	-1.789815
N	0.275113	0.801917	-2.292347
H	0.433651	1.70883	-1.880094
H	-0.128289	0.865133	-3.215184
C	-0.501047	-1.14418	0.728479
N	-0.857009	-2.128194	1.263832
N	-0.356981	1.252884	0.69417
O	-0.719016	1.199236	1.867677
O	-0.190192	2.301382	0.065908
F	2.437486	0.0	0.0
