14

C	-0.506464	-0.00169	-1.44445
C	0.0	0.0	0.0
Cl	0.10893	-1.494061	-2.221457
H	1.094305	0.0	0.0
H	-0.035201	0.832454	-1.959323
N	-1.9359	0.066573	-1.644937
H	-2.39194	-0.625627	-1.059858
H	-2.249808	0.990515	-1.36503
C	-0.541227	-1.108475	0.758209
N	-1.014943	-2.026748	1.320144
N	-0.398785	1.26406	0.657525
O	-0.546433	2.259584	-0.061799
O	-0.500072	1.282206	1.883775
F	2.445618	0.0	0.0
