14

C	-0.214606	-0.111764	-1.53215
C	0.0	0.0	0.0
Cl	-0.096449	1.543074	-2.244641
H	1.09201	0.0	0.0
H	-1.211863	-0.471244	-1.793167
N	0.812675	-0.946885	-2.079616
H	1.677269	-0.746968	-1.549885
H	0.556045	-1.918107	-1.949473
C	-0.522503	-1.203387	0.617895
N	-0.931478	-2.205137	1.078283
N	-0.669211	1.179108	0.607666
O	0.033167	2.054208	1.102242
O	-1.901808	1.203709	0.548825
F	2.558988	0.0	0.0
