16

C	0.0	0.0	0.0
C	-0.503876	-0.024314	-1.421269
Br	2.03231	0.0	0.0
H	0.05165	0.711882	-2.001846
H	-1.554498	0.279005	-1.34255
N	-0.255433	1.368415	0.64516
O	-0.318183	1.394488	1.867865
O	-0.3283	2.334828	-0.099881
N	-0.537562	-0.94742	0.81279
H	-0.455251	-0.823795	1.806016
H	-0.712538	-1.867194	0.45547
C	-0.411951	-1.408844	-2.051332
H	-1.162713	-2.076084	-1.62384
H	-0.62869	-1.339397	-3.120549
H	0.585052	-1.844941	-1.936066
Br	-3.977544	0.0	0.0
