16

C	0.0	0.0	0.0
C	-0.373064	0.137496	-1.483827
Br	2.032348	0.0	0.0
H	0.316253	0.84612	-1.941644
H	-1.377922	0.53023	-1.572457
N	-0.425296	1.1951	0.865231
O	-0.637473	0.969066	2.055541
O	-0.43871	2.298943	0.34202
N	-0.437177	-1.122475	0.636195
H	-0.222747	-2.022677	0.23329
H	-0.459352	-1.067947	1.642302
C	-0.318209	-1.217708	-2.184904
H	-1.129085	-1.848702	-1.817614
H	-0.467458	-1.078725	-3.259131
H	0.646481	-1.717512	-2.043632
Br	-3.460623	0.0	0.0
