16

C	0.0	0.0	0.0
C	-0.247425	-0.447702	-1.464963
Br	1.955466	0.0	0.0
H	0.373602	0.177967	-2.104544
H	0.188677	-1.454324	-1.508191
N	-0.404449	1.466083	0.186755
O	-0.911847	1.780769	1.25437
O	-0.165643	2.216456	-0.752959
N	-0.57729	-0.758923	1.03941
H	-1.575347	-0.526347	1.090094
H	-0.488085	-1.74273	0.807077
C	-1.655159	-0.499252	-2.02859
H	-2.292055	-1.220329	-1.524269
H	-2.172204	0.455944	-1.975664
H	-1.556234	-0.786881	-3.081641
Br	-4.256948	0.0	0.0
