18

C	0.0	0.0	0.0
C	-0.520941	-0.021054	-1.448088
F	1.391138	0.0	0.0
H	-1.620751	-0.0848	-1.384006
C	-0.47106	1.276056	0.667234
H	-0.117333	1.277583	1.701145
H	-0.058169	2.150463	0.158844
H	-1.562679	1.310049	0.657715
C	-0.454872	-1.234081	0.752603
H	-1.544417	-1.294885	0.734014
H	-0.023097	-2.137339	0.318315
H	-0.110161	-1.150121	1.786083
N	-0.023004	-1.2511	-2.156866
O	1.078394	-1.188534	-2.699746
O	-0.741573	-2.245223	-2.102893
C	-0.095942	1.148356	-2.209723
N	0.203159	2.104299	-2.822476
Cl	-3.713951	0.0	0.0
