18

C	0.0	0.0	0.0
C	-0.516612	-0.043186	-1.449356
F	1.391236	0.0	0.0
H	-1.6173	-0.082973	-1.388375
C	-0.471172	1.285856	0.646379
H	-1.562838	1.312625	0.644464
H	-0.108706	1.308813	1.67702
H	-0.066475	2.152885	0.118747
C	-0.460407	-1.224679	0.762004
H	-0.148776	-1.12031	1.804142
H	-0.003169	-2.129213	0.35678
H	-1.548191	-1.297456	0.713009
N	-0.046109	-1.302097	-2.12597
O	1.07569	-1.290641	-2.631196
O	-0.805107	-2.266691	-2.08272
C	-0.059646	1.09706	-2.237338
N	0.267175	2.024741	-2.878231
Cl	-3.708163	0.0	0.0
