18

C	0.0	0.0	0.0
C	-0.200203	0.039984	-1.553555
F	1.39971	0.0	0.0
H	0.502829	0.806406	-1.891603
C	-0.502202	1.254211	0.669205
H	-0.159773	1.248132	1.707024
H	-1.594164	1.25716	0.646475
H	-0.120551	2.146516	0.170284
C	-0.522825	-1.256217	0.644314
H	-1.612148	-1.268091	0.541255
H	-0.085359	-2.144987	0.186765
H	-0.267361	-1.244129	1.706781
N	-1.514457	0.515325	-2.139863
O	-1.735768	1.70956	-1.983067
O	-2.169127	-0.274807	-2.801721
C	0.181086	-1.230195	-2.167633
N	0.551605	-2.240184	-2.638257
Cl	-3.83956	0.0	0.0
