18

C	0.0	0.0	0.0
C	-0.320876	0.24899	-1.512141
F	1.384822	0.0	0.0
H	0.579849	-0.087777	-2.030236
C	-0.516223	1.084502	0.911133
H	-0.240483	0.840956	1.940394
H	-0.073786	2.049335	0.654557
H	-1.606371	1.118639	0.826898
C	-0.482255	-1.376921	0.398724
H	-1.575253	-1.388902	0.396558
H	-0.11091	-1.598927	1.402542
H	-0.09581	-2.134391	-0.2892
N	-0.361292	1.725	-1.81011
O	-1.44247	2.262927	-2.004311
O	0.736055	2.284802	-1.797857
C	-1.441781	-0.440565	-2.142204
N	-2.093854	-1.100099	-2.862615
Cl	-3.748655	0.0	0.0
