18

C	0.0	0.0	0.0
C	-0.518404	-0.026275	-1.449973
F	1.386511	0.0	0.0
H	-1.619584	-0.04424	-1.390825
C	-0.473784	1.278723	0.660301
H	-0.075554	2.151787	0.137899
H	-0.105982	1.293712	1.688979
H	-1.56546	1.299337	0.662079
C	-0.46101	-1.232221	0.751572
H	-0.015043	-2.134676	0.32895
H	-1.549741	-1.296585	0.713545
H	-0.135135	-1.142398	1.790522
N	-0.074598	-1.293024	-2.13067
O	-0.859579	-2.236507	-2.105287
O	1.054192	-1.308911	-2.619327
C	-0.028468	1.105179	-2.2295
N	0.346347	2.034695	-2.841273
Cl	-3.715381	0.0	0.0
