16

C	-0.383633	0.006035	-1.474642
C	0.0	0.0	0.0
F	0.115351	-1.081368	-2.100776
H	1.097168	0.0	0.0
N	-1.917535	-0.073322	-1.616773
O	-2.397959	-1.168675	-1.870975
O	-2.525017	0.972581	-1.40644
C	0.03488	1.22894	-2.170444
N	0.349059	2.20853	-2.737024
C	-0.486276	-1.232761	0.611092
N	-0.890179	-2.19845	1.145346
C	-0.454946	1.232408	0.782484
H	-0.012993	1.174934	1.778348
H	-1.540471	1.299273	0.870783
H	-0.073648	2.135966	0.303137
Cl	3.193148	0.0	0.0
