16

C	-0.396311	0.028061	-1.45959
C	0.0	0.0	0.0
F	-0.143887	-1.162542	-2.071358
H	1.097561	0.0	0.0
N	-1.921427	0.229052	-1.64795
O	-2.644046	-0.334599	-0.835819
O	-2.290566	0.87491	-2.624375
C	0.268483	1.115652	-2.188694
N	0.791741	1.983942	-2.781232
C	-0.454848	-1.219043	0.658067
N	-0.771689	-2.191115	1.236044
C	-0.440075	1.262924	0.743539
H	-1.525591	1.330688	0.84101
H	0.00666	1.24584	1.738265
H	-0.055267	2.147862	0.231472
Cl	3.20411	0.0	0.0
