16

C	-0.458844	0.065854	-1.453162
C	0.0	0.0	0.0
F	-0.015475	1.210199	-2.022764
H	1.096668	0.0	0.0
N	0.118835	-1.103487	-2.267346
O	0.954314	-0.8419	-3.112208
O	-0.344878	-2.197686	-1.976782
C	-1.922322	0.001332	-1.602047
N	-3.092138	0.018689	-1.708491
C	-0.511927	-1.188233	0.670169
N	-0.950397	-2.086062	1.287899
C	-0.450994	1.260524	0.748478
H	-0.055641	1.212356	1.76396
H	-0.027389	2.140014	0.264332
H	-1.54034	1.346393	0.793414
Cl	3.21562	0.0	0.0
