16

C	-0.383591	-0.476646	-1.394728
C	0.0	0.0	0.0
F	0.070029	-1.729127	-1.61156
H	1.108445	0.0	0.0
N	-1.916047	-0.541781	-1.523957
O	-2.441712	-1.633413	-1.357369
O	-2.478525	0.530348	-1.723143
C	0.084514	0.414476	-2.462637
N	0.43006	1.085512	-3.362256
C	-0.505643	-0.954713	0.979704
N	-0.961844	-1.688346	1.774601
C	-0.440828	1.428735	0.321354
H	-0.007354	1.70266	1.283844
H	-0.040698	2.113764	-0.427995
H	-1.524832	1.537289	0.369855
Cl	3.198946	0.0	0.0
