16

C	-0.386145	-0.034659	-1.47199
C	0.0	0.0	0.0
F	0.086828	-1.152663	-2.062512
H	1.108222	0.0	0.0
N	-1.920344	-0.083952	-1.612727
O	-2.425588	-1.17868	-1.81059
O	-2.503538	0.984374	-1.457155
C	0.060835	1.152618	-2.210014
N	0.401167	2.091056	-2.828826
C	-0.494891	-1.207521	0.650169
N	-0.925674	-2.14823	1.20716
C	-0.442049	1.261228	0.744168
H	0.006955	1.23359	1.738126
H	-0.057053	2.144594	0.232147
H	-1.525832	1.340181	0.837757
Cl	3.194007	0.0	0.0
