16

C	-0.383641	-0.078705	-1.471809
C	0.0	0.0	0.0
F	0.118552	-1.198946	-2.032298
H	1.103496	0.0	0.0
N	-1.915892	-0.168468	-1.616302
O	-2.525271	0.881683	-1.439363
O	-2.393206	-1.269646	-1.84592
C	0.030395	1.097507	-2.246146
N	0.325961	2.014844	-2.918449
C	-0.497356	-1.193287	0.675179
N	-0.939192	-2.129999	1.229624
C	-0.443179	1.279623	0.710947
H	0.005688	1.27775	1.705972
H	-1.526675	1.361445	0.800625
H	-0.05618	2.148863	0.176586
Cl	3.19346	0.0	0.0
