13
Coordinates from ORCA-job run
  C   -0.98778205342680      0.08272061252766     -0.24624720317862
  C   0.40103702102364     -0.34358856579708     -0.75002579924332
  Cl  -2.19688871439958     -0.17934962345783     -1.54764686143237
  H   0.60711260981457      0.24313181874844     -1.64929815995461
  H   0.32156518447498     -1.39215673973409     -1.04949285228771
  C   -0.99266132552282      1.50387385174803      0.11281841317026
  N   -0.94559574060090      2.64481693120583      0.38973708321309
  C   -1.37928604685270     -0.71593998494224      0.91895414082243
  N   -1.64602438580995     -1.37996790975144      1.85091804282860
  C   1.48970818663120     -0.14933309987855      0.29819177480228
  H   1.29537474493320     -0.74426908538032      1.19279159002405
  H   2.44994068840339     -0.46752846129416     -0.11186188859403
  H   1.58249983133177      0.89859025600575      0.59016171982994
