14

C	-0.360499	0.002587	-1.487778
C	0.0	0.0	0.0
Br	-2.296779	-0.199038	-1.808917
H	1.098238	0.0	0.0
H	0.1035	-0.854366	-1.980468
C	0.064527	1.229499	-2.151271
N	0.378182	2.215042	-2.706305
C	-0.456517	-1.242088	0.614504
N	-0.831044	-2.230441	1.127555
C	-0.494981	1.219762	0.770958
H	-1.586427	1.278334	0.780626
H	-0.084302	2.126028	0.320204
H	-0.130363	1.164172	1.798392
Br	3.407222	0.0	0.0
