14

C	-0.368813	0.006764	-1.484718
C	0.0	0.0	0.0
Br	-2.311756	-0.158619	-1.786617
H	1.098265	0.0	0.0
H	0.073886	-0.861086	-1.977263
C	0.075022	1.223073	-2.154718
N	0.402846	2.201209	-2.717003
C	-0.459952	-1.241348	0.614024
N	-0.833112	-2.230702	1.126378
C	-0.486611	1.2226	0.771857
H	-1.577294	1.280015	0.798984
H	-0.104329	1.172039	1.792602
H	-0.084542	2.126965	0.310234
Br	3.402216	0.0	0.0
