14

C	-0.526498	-0.01618	-1.443982
C	0.0	0.0	0.0
Br	0.105122	1.529742	-2.463258
H	1.095642	0.0	0.0
H	-1.617085	0.072975	-1.44323
C	-0.17106	-1.229585	-2.172221
N	0.044878	-2.215728	-2.773448
C	-0.494073	-1.212698	0.651425
N	-0.932954	-2.156343	1.197981
C	-0.465031	1.232106	0.778853
H	-0.124645	1.147157	1.812052
H	-1.555302	1.33219	0.77139
H	-0.012984	2.126705	0.351424
Br	3.435872	0.0	0.0
