17
Coordinates from ORCA-job run
  C   -0.71303585388858     -0.21033133088822      0.27866767482442
  C   0.70336889082483      0.30275501933478      0.59129371317405
  F   -1.34606120878676     -0.31481680120384      1.54454540241354
  H   0.58037503228235      1.18795523635135      1.22440494034098
  C   -1.53418847403739      0.77799780308428     -0.52160154036536
  H   -1.17153661799368      0.85370137204496     -1.54578719590147
  H   -2.57197657069586      0.43734138809741     -0.53920509917563
  H   -1.51223856220513      1.76105463979657     -0.04843103547022
  N   -0.65465473113846     -1.46719177118811     -0.37386315735829
  H   -0.22018871011169     -2.16503386319092      0.21945524081498
  H   -1.58231476826994     -1.78464159935081     -0.62521526238719
  C   1.51035014361914      0.65318490014576     -0.66116217097975
  H   1.05912092647338      1.49967284956481     -1.18035282943827
  H   1.53955822584060     -0.20243814617228     -1.33578052391630
  H   2.53128805125988      0.92736265341458     -0.39062453995662
  C   1.40847537238189     -0.70831022894042      1.38440081536473
  N   1.97465885444542     -1.54726212089993      1.97925556801643
