17
Coordinates from ORCA-job run
  C   -0.69748471596928     -0.24243621896313      0.05347276787343
  C   0.74449742677976      0.32884414403798      0.00099153165929
  F   -0.69983449090433     -1.13643018580534      1.12415964860006
  H   0.77831616011982      1.03054981858259     -0.84152124559860
  C   -1.73214608247807      0.82627021202497      0.33335299572760
  H   -1.54366169984624      1.28953235568211      1.30150109218749
  H   -1.71397286631358      1.60232086380605     -0.43654083511488
  H   -2.71643204776410      0.35755544543973      0.34676134499092
  N   -1.08237436884514     -0.99303306932948     -1.10481806802017
  H   -1.32297491884333     -0.39119087685184     -1.87971821545411
  H   -0.37502764981011     -1.65715129978069     -1.38774026768912
  C   1.81271391570653     -0.75256867940823     -0.19351266168096
  H   1.71036417462777     -1.23093152949931     -1.16939137600458
  H   1.72783270433544     -1.50836733307632      0.58736517765089
  H   2.81024181343502     -0.31356884732697     -0.14604580141108
  C   1.03154792693442      1.09124902826976      1.21841068653684
  N   1.27039471883542      1.69735617219811      2.19527322574698
