17
Coordinates from ORCA-job run
  C   -0.77378665373034     -0.19286016722014      0.35557744498090
  C   0.67375432777335      0.30057012873930      0.60724216833148
  F   -1.34017425714264     -0.24149810258224      1.63199806708293
  H   0.60003772256756      1.22268574351671      1.19432173707539
  C   -1.58297764064337      0.79262185800012     -0.46111351679859
  H   -1.25367364995410      0.82938620120442     -1.50091069424855
  H   -2.62455879546017      0.47217574519838     -0.43401951835383
  H   -1.50892000438680      1.79261967271182     -0.03033902115108
  N   -0.89346516726111     -1.50479298041378     -0.19646046379625
  H   -0.27693927548761     -2.16977941832654      0.25447926921785
  H   -0.75609515086404     -1.51846711553917     -1.19618413936961
  C   1.45902363385637      0.56219299205809     -0.67973958772387
  H   1.48104563669141     -0.33194525777637     -1.30608091290655
  H   2.48990915805684      0.83478272119335     -0.44925813930394
  H   1.01083360099985      1.38060843584620     -1.24448184102577
  C   1.36907406154028     -0.69463304607352      1.42599468789587
  N   1.92691245344453     -1.53366741053667      2.02897446009358
