17
Coordinates from ORCA-job run
  C   -0.71029034175961     -0.21044832295429      0.28700266876815
  C   0.71373518931627      0.28996874200425      0.58565639080326
  F   -1.32403471385049     -0.33128519704501      1.56090649815977
  H   0.60493372637238      1.16657777219042      1.23315703141111
  C   -1.53812363315885      0.79489817641957     -0.48470287466461
  H   -1.50314582533138      1.77023250445783      0.00341969663510
  H   -1.19096770970984      0.88463131510280     -1.51310019210371
  H   -2.57800112501856      0.46027558957068     -0.49134009871029
  N   -0.66910818273037     -1.45715541090559     -0.38593734662727
  H   -0.22859664270597     -2.16645186772434      0.18913237869278
  H   -1.60233087095032     -1.76612759931769     -0.62716724140420
  C   1.50359869803935      0.65450105622458     -0.67370123963777
  H   1.51691560714031     -0.19079719586963     -1.36168883028552
  H   2.53034025178101      0.91836784886953     -0.41516156750282
  H   1.04934486953476      1.51153774175263     -1.17260818191663
  C   1.42506983363466     -0.73704762572375      1.35214255398556
  N   2.00066086939665     -1.59367752705195      1.91199035439710
