17
Coordinates from ORCA-job run
  C   -0.70475983754158     -0.12847923347256      0.31929511843098
  C   0.82946790072236     -0.08019852132028      0.44041069765805
  F   -1.16312356224110      0.91580263404702      1.16842673534974
  H   1.05816286081624     -0.30710711395667      1.48991626685551
  C   -1.22816671485436      0.17420457485966     -1.06638887148406
  H   -2.31906224793535      0.11354498520316     -1.06018630655419
  H   -0.95350264754278      1.18452495506879     -1.36740430256252
  H   -0.83894569304327     -0.54474732318790     -1.78789120817504
  N   -1.16676762290870     -1.38954895368692      0.76808781982213
  H   -2.17358938342967     -1.45921053191948      0.69159229176250
  H   -0.89554889334459     -1.56021504962172      1.72877840740703
  C   1.43312018739011      1.28393141402312      0.09582736404436
  H   2.49898956040314      1.28930566926949      0.32959254193692
  H   1.32211889776145      1.50731627137872     -0.96597282739862
  H   0.93992146663700      2.06085541514429      0.67919499674883
  C   1.42575817301167     -1.13075710433113     -0.38559892789227
  N   1.93592755609947     -1.92922208749758     -1.07867979594937
