17
Coordinates from ORCA-job run
  C   -0.68401724908137     -0.07438499725778      0.43840635759284
  C   0.85634969320164     -0.01791891912113      0.46654182250282
  F   -1.11655741193136      0.95987268293622      1.27025677512225
  H   1.12271701771408     -0.18023054876041      1.51665057491936
  C   -1.28370855561160      0.19551861765812     -0.92978293070985
  H   -1.01665095020188      1.18804019428609     -1.29527591917829
  H   -2.37244945452948      0.14688091881087     -0.85273431088944
  H   -0.95112459968865     -0.55491404079967     -1.65008004888956
  N   -1.10529312789861     -1.29682341549517      1.06887061643377
  H   -2.11352474794204     -1.38465063156724      1.01256102302208
  H   -0.69088345070682     -2.10114514575866      0.61351171898528
  C   1.43019254545738      1.31810976701332     -0.00986804356607
  H   0.93847671142973      2.13230153149204      0.52270610340658
  H   1.28982563124988      1.45466814416277     -1.08279123458376
  H   2.50031847076716      1.36041249185559      0.19908663279849
  C   1.39724435830626     -1.13034570845332     -0.31427241748224
  N   1.79908511946570     -2.01539094100160     -0.97378671948432
