17
Coordinates from ORCA-job run
  C   -0.76906746828639     -0.19688352288411      0.36338479888036
  C   0.68389289620119      0.28844693204931      0.60116276901438
  F   -1.31467145968217     -0.26933647033790      1.64749185449208
  H   0.62113290611004      1.20056839016160      1.20477040558216
  C   -1.58846632816803      0.80604628805652     -0.42115080893270
  H   -1.27536840474512      0.86231062678822     -1.46507129856552
  H   -2.63011590024030      0.48689891962635     -0.38429620245272
  H   -1.50525052891278      1.79723964452067      0.02793785409987
  N   -0.90206743403378     -1.49809524691946     -0.21115983179925
  H   -0.76614976585159     -1.49495509178704     -1.21129898670996
  H   -0.28794119280943     -2.17446813600109      0.22615607466759
  C   1.45045584542313      0.57046529690353     -0.69301812449826
  H   1.46512398024381     -0.31461157606460     -1.33231016678438
  H   0.99383893961110      1.39646387712338     -1.23964661295248
  H   2.48410080201635      0.84105739182730     -0.47269840403771
  C   1.38891107593770     -0.72365073647221      1.39009507291578
  N   1.95164203718623     -1.57649658659046      1.96865160708079
