16

C	-0.464669	-0.046237	-1.454771
C	0.0	0.0	0.0
F	0.062191	0.990918	-2.182661
H	1.091712	0.0	0.0
C	-0.003049	-1.312115	-2.063603
N	0.314866	-2.32272	-2.570119
C	-1.940463	-0.025547	-1.579307
N	-3.106788	-0.086888	-1.706164
C	-0.494956	-1.17775	0.821403
H	-1.587953	-1.220798	0.864249
H	-0.107758	-2.106866	0.401041
H	-0.095433	-1.077714	1.829541
N	-0.461017	1.268303	0.643517
O	-1.150792	2.053264	-0.012338
O	-0.120594	1.433586	1.809043
Cl	3.201474	0.0	0.0
