16

C	-0.492956	0.056192	-1.441574
C	0.0	0.0	0.0
F	-1.884318	0.136533	-1.46715
H	1.093142	0.0	0.0
C	0.039841	1.170303	-2.24631
N	0.41869	1.994226	-2.992199
C	-0.125577	-1.198668	-2.133307
N	0.115562	-2.196859	-2.704973
C	-0.498075	-1.226083	0.740334
H	-0.10067	-2.122422	0.262543
H	-0.116405	-1.195391	1.758477
H	-1.589848	-1.273706	0.761922
N	-0.432429	1.244462	0.714754
O	-0.470019	1.197062	1.940263
O	-0.692893	2.241711	0.043816
Cl	3.181281	0.0	0.0
