16

C	-0.493001	0.036337	-1.443595
C	0.0	0.0	0.0
F	-1.884341	0.138089	-1.471164
H	1.093074	0.0	0.0
C	0.05715	1.12409	-2.271352
N	0.437459	1.916297	-3.049314
C	-0.148902	-1.239008	-2.107174
N	0.069065	-2.251815	-2.660383
C	-0.502363	-1.214662	0.756888
H	-0.10755	-2.118531	0.291378
H	-0.122636	-1.171046	1.775054
H	-1.594194	-1.257275	0.778375
N	-0.427984	1.258113	0.691374
O	-0.662834	2.248515	0.004018
O	-0.480763	1.232196	1.916392
Cl	3.177518	0.0	0.0
