16

C	-0.466391	-0.0309	-1.45568
C	0.0	0.0	0.0
F	0.125123	0.958719	-2.198984
H	1.091691	0.0	0.0
C	-0.094698	-1.331004	-2.053967
N	0.14381	-2.368668	-2.549241
C	-1.938082	0.088911	-1.572867
N	-3.107118	0.10961	-1.682913
C	-0.506698	-1.176462	0.814213
H	-0.126787	-1.074112	1.829047
H	-1.60003	-1.220694	0.838994
H	-0.111582	-2.105222	0.401806
N	-0.440484	1.276699	0.64534
O	-0.999137	2.129467	-0.045882
O	-0.192718	1.392223	1.840967
Cl	3.197892	0.0	0.0
