16

C	-0.485819	-0.019618	-1.455233
C	0.0	0.0	0.0
F	-0.134739	-1.254239	-1.980537
H	1.106083	0.0	0.0
C	-1.959766	0.075186	-1.533212
N	-3.133591	0.079015	-1.574627
C	0.117296	1.009449	-2.318658
N	0.55681	1.761661	-3.10642
C	-0.50344	-1.185976	0.79623
H	-0.056532	-1.146569	1.788112
H	-0.174431	-2.103148	0.309308
H	-1.593711	-1.187252	0.889558
N	-0.431271	1.27218	0.641367
O	-0.859454	2.170889	-0.089944
O	-0.310434	1.357223	1.858023
Cl	3.185593	0.0	0.0
