16

C	-0.479625	0.031278	-1.457271
C	0.0	0.0	0.0
F	-0.102867	-1.174743	-2.029541
H	1.093177	0.0	0.0
C	-1.954974	0.100637	-1.542876
N	-3.127321	0.076562	-1.613411
C	0.110435	1.106539	-2.27194
N	0.554467	1.912296	-3.00201
C	-0.50123	-1.217507	0.7498
H	-1.59158	-1.227006	0.839814
H	-0.056516	-1.213075	1.743366
H	-0.166648	-2.114183	0.229513
N	-0.441035	1.244365	0.687902
O	-0.304207	1.290127	1.905162
O	-0.893175	2.159168	-0.006794
Cl	3.189566	0.0	0.0
