16

C	-0.474157	-0.070095	-1.459009
C	0.0	0.0	0.0
F	-0.170302	-1.340921	-1.923262
H	1.109795	0.0	0.0
C	-1.941444	0.087624	-1.560855
N	-3.110008	0.176485	-1.632423
C	0.181094	0.892127	-2.360666
N	0.674609	1.591227	-3.164791
C	-0.515154	-1.150848	0.835556
H	-1.607525	-1.150966	0.910242
H	-0.175797	-2.087105	0.395255
H	-0.088697	-1.068117	1.833349
N	-0.423297	1.302529	0.583813
O	-0.755188	2.19962	-0.197663
O	-0.382776	1.41702	1.803257
Cl	3.179831	0.0	0.0
