14

C	-0.548816	-0.005496	-1.413914
C	0.0	0.0	0.0
Cl	0.230753	-1.261049	-2.379204
H	1.089868	0.0	0.0
H	-1.623333	-0.158998	-1.461598
N	-0.306149	1.326471	-2.078539
O	0.77193	1.877564	-1.903555
O	-1.237165	1.737725	-2.775286
N	-0.510364	-1.26024	0.660479
O	0.286224	-1.910727	1.323853
O	-1.696879	-1.553711	0.487739
C	-0.550924	1.117864	0.73873
N	-0.999679	2.02754	1.332195
F	2.454215	0.0	0.0
