14

C	-0.515039	0.047159	-1.419221
C	0.0	0.0	0.0
Cl	-2.278176	-0.121871	-1.547735
H	1.094307	0.0	0.0
H	-0.2457	1.017722	-1.832477
N	0.179632	-0.942876	-2.351749
O	-0.423474	-1.921471	-2.760111
O	1.323306	-0.615195	-2.633695
N	-0.394102	-1.234488	0.706546
O	-0.284516	-2.277681	0.066065
O	-0.729448	-1.156957	1.88681
C	-0.468615	1.171022	0.710393
N	-0.814601	2.169762	1.225147
F	2.418975	0.0	0.0
