14

C	-0.284416	0.012578	-1.480298
C	0.0	0.0	0.0
Cl	-1.993833	0.02893	-1.985394
H	1.093658	0.0	0.0
H	0.196029	0.894536	-1.896705
N	0.372234	-1.153637	-2.170965
O	1.099781	-0.883596	-3.120232
O	0.090648	-2.272622	-1.760691
N	-0.561983	-1.185369	0.721925
O	0.226035	-2.05904	1.066252
O	-1.775947	-1.19327	0.938234
C	-0.52131	1.208628	0.598215
N	-0.914544	2.218721	1.05332
F	2.44707	0.0	0.0
