14

C	-0.51831	-0.099011	-1.428187
C	0.0	0.0	0.0
Cl	0.624611	-0.871115	-2.529228
H	1.092514	0.0	0.0
H	-1.459324	-0.639622	-1.487557
N	-0.821007	1.289774	-1.935532
O	-2.017998	1.564726	-2.044254
O	0.119234	2.03735	-2.165915
N	-0.367463	-1.226095	0.746413
O	-0.3075	-1.177597	1.972576
O	-0.634082	-2.236789	0.092095
C	-0.493771	1.156457	0.712207
N	-0.880575	2.113916	1.275589
F	2.410875	0.0	0.0
