14

C	-0.516344	-0.077925	-1.430754
C	0.0	0.0	0.0
Cl	0.618681	-0.861228	-2.526975
H	1.092003	0.0	0.0
H	-1.463979	-0.604514	-1.500293
N	-0.79989	1.319971	-1.926242
O	0.146917	2.045356	-2.195319
O	-1.991632	1.623064	-1.981957
N	-0.379198	-1.231475	0.731995
O	-0.678501	-2.226104	0.06729
O	-0.302637	-1.201762	1.957122
C	-0.484492	1.152184	0.725747
N	-0.844548	2.114253	1.298802
F	2.412423	0.0	0.0
