14

C	-0.306505	-0.022721	-1.469865
C	0.0	0.0	0.0
Cl	-0.006572	1.556613	-2.198973
H	1.096219	0.0	0.0
H	0.318452	-0.754015	-1.97308
N	-1.736398	-0.406788	-1.79468
O	-1.921049	-0.921114	-2.893612
O	-2.597167	-0.164205	-0.956676
N	-0.369377	-1.292803	0.604242
O	-0.511297	-1.345945	1.821841
O	-0.433681	-2.2612	-0.158942
C	-0.542068	1.10488	0.751223
N	-0.92258	2.036571	1.358392
F	2.422363	0.0	0.0
