14

C	-0.531621	-0.012613	-1.411834
C	0.0	0.0	0.0
Cl	-2.296109	-0.199288	-1.50745
H	1.093322	0.0	0.0
H	-0.278013	0.942649	-1.867502
N	0.158527	-1.031984	-2.313609
O	1.294883	-0.698697	-2.627513
O	-0.440138	-2.034481	-2.673736
N	-0.397012	-1.205131	0.755056
O	-0.725452	-1.080991	1.934531
O	-0.299529	-2.274318	0.153286
C	-0.454171	1.200194	0.671757
N	-0.748661	2.231903	1.152166
F	2.414905	0.0	0.0
