16
Coordinates from ORCA-job run
  C   0.91708061883112     -0.47413525890690      0.18493242745212
  C   -0.60092571865400     -0.36182454355188     -0.07311606242809
  H   1.38592846493849     -1.09258100103715     -0.58422661583452
  H   -0.97766161129498     -1.38639494447523      0.08456009360840
  C   1.17266656121974     -1.03322004730187      1.50877293908383
  N   1.30864528545385     -1.53589596082139      2.56136178503854
  N   1.56113139035776      0.88476577719591      0.07413821993172
  O   1.78588973285762      1.50382640665063      1.10466895561777
  O   1.77553826439994      1.26406762791181     -1.07374332542372
  C   -0.92090462885655      0.05340251087300     -1.50081984357078
  H   -0.41508774886728     -0.58439731000062     -2.22796380046574
  H   -0.62508924697934      1.08728837136935     -1.67603711442675
  H   -1.99807202955735     -0.03440461528034     -1.66631431610072
  N   -1.14372525283545      0.61527129621239      0.85453420598906
  H   -2.10737573880102      0.81733336165379      0.61980239787684
  H   -1.11803834221253      0.27589832950848      1.80945005365204
