16
Coordinates from ORCA-job run
  C   0.98618911809037     -0.32680408104626      0.14011962050687
  C   -0.53535114145582     -0.45168222201773     -0.08846073348514
  H   1.53082551910970     -0.80914066900482     -0.67522151178083
  H   -0.73399943283967     -1.53251740857243      0.00559510484392
  C   1.36541158732623     -0.91711935821714      1.41994367259238
  N   1.61405656206527     -1.45255296868606      2.43509995605914
  N   1.39535341799969      1.12469286287262      0.11054215652440
  O   1.54314453769915      1.70556654554929      1.17662330258490
  O   1.51388829059585      1.60675091853981     -1.01236932187720
  C   -0.95430694496826     -0.00470374836117     -1.48039984279168
  H   -0.83919180056671      1.07323563225124     -1.58875756412050
  H   -2.00546065270954     -0.26082443354602     -1.63800996116844
  H   -0.36650642461837     -0.49983231453414     -2.25533853944783
  N   -1.20864226945325      0.35990606698075      0.91053781379691
  H   -2.19744025786352      0.41617370372227      0.70177909955350
  H   -1.10597010841111     -0.03314852593021      1.83931674820961
