16
Coordinates from ORCA-job run
  C   0.89580853716948     -0.38574238077402      0.46012521927328
  C   -0.50459224297570     -0.51988173992143     -0.16956995162114
  H   1.18154393157556     -1.34915020242388      0.88574652345517
  H   -0.43246171062549     -1.36621837674663     -0.85941896455923
  C   0.91986826067975      0.65255742827676      1.48323884228024
  N   0.85793188949793      1.46911707295724      2.32470862690084
  N   1.89284803032733     -0.08431446588011     -0.62781747494871
  O   2.11250355116322     -1.01839134405052     -1.39300684583032
  O   2.35588911725276      1.04817119766401     -0.70572765192848
  C   -0.90884305801690      0.73670389857295     -0.93308607288169
  H   -0.92180323375889      1.60602502989564     -0.26932077938382
  H   -0.23630490049596      0.95281319193145     -1.76664889594881
  H   -1.91358834027337      0.60330404826105     -1.34050111558212
  N   -1.39135064352087     -0.90758377883461      0.91985692881933
  H   -1.68537674409850     -0.08770564926503      1.44018283897757
  H   -2.22307244390036     -1.34970392966288      0.54923877297791
