16
Coordinates from ORCA-job run
  C   0.88577899757727     -0.39175184609229      0.47317694734657
  C   -0.50579677910254     -0.51585927610679     -0.17732499503941
  H   1.15733809603673     -1.35653362182240      0.90496771404685
  H   -0.42924187582465     -1.36219262791974     -0.86673673744364
  C   0.90287566550648      0.64777742506785      1.49516572438212
  N   0.83473125784875      1.46552597819274      2.33506299229972
  N   1.90203333393700     -0.10052512846513     -0.59941883200625
  O   2.37454744394506      1.02838057314074     -0.67306779681203
  O   2.12786234665360     -1.03858441673285     -1.35807447393270
  C   -0.89043301811908      0.74410845637115     -0.94547442852190
  H   -0.90937789740764      1.61246565938781     -0.28054419018313
  H   -1.88923965773673      0.61702172392585     -1.36927025009997
  H   -0.20310162273697      0.95785017921941     -1.76746458701999
  N   -1.41137938857792     -0.89856279932636      0.89843918158123
  H   -2.24124341124191     -1.33295417942867      0.51470415842644
  H   -1.70635349075746     -0.07716609941131      1.41585957297607
