15

C	0.0	0.0	0.0
C	-0.214839	-0.162745	-1.52801
Cl	1.79857	0.0	0.0
H	0.145663	-1.143244	-1.833399
H	0.370287	0.619242	-2.009631
C	-0.591212	1.266111	0.575919
H	-1.684496	1.168941	0.526673
H	-0.277871	1.386172	1.614964
H	-0.268957	2.128056	-0.010713
C	-0.417411	-1.194527	0.734605
N	-0.70451	-2.174128	1.315851
N	-1.576019	-0.010135	-2.119621
O	-1.963012	1.143222	-2.281101
O	-2.135527	-1.034901	-2.493398
Br	-4.078593	0.0	0.0
