15

C	0.0	0.0	0.0
C	-0.549853	0.031014	-1.413345
Cl	1.793923	0.0	0.0
H	-1.643807	-0.094678	-1.340532
H	-0.299287	0.974611	-1.895251
C	-0.490443	1.242349	0.736461
H	-0.131825	2.136101	0.219984
H	-0.105436	1.242425	1.757368
H	-1.584174	1.219731	0.747298
C	-0.387545	-1.199796	0.754317
N	-0.585738	-2.118906	1.458061
N	-0.007896	-1.035248	-2.294176
O	0.293581	-0.706547	-3.442148
O	0.074695	-2.171922	-1.837289
Br	-3.795046	0.0	0.0
