15

C	0.0	0.0	0.0
C	-0.548667	-0.011449	-1.428201
Cl	1.793988	0.0	0.0
H	-0.262727	-0.923927	-1.945645
H	-1.641231	0.0944	-1.350115
C	-0.497437	1.159215	0.854461
H	-1.590431	1.147842	0.833859
H	-0.123707	2.10079	0.455926
H	-0.141556	1.026343	1.877459
C	-0.392681	-1.279545	0.605328
N	-0.627099	-2.318073	1.101938
N	-0.006901	1.106172	-2.241734
O	0.732537	0.814102	-3.185816
O	-0.336612	2.250422	-1.93198
Br	-3.816374	0.0	0.0
