15

C	0.0	0.0	0.0
C	-0.216838	-0.195839	-1.525127
Cl	1.798803	0.0	0.0
H	0.101068	-1.199094	-1.803859
H	0.4061	0.543945	-2.02497
C	-0.580471	1.281731	0.552727
H	-0.267012	1.413895	1.589934
H	-1.673959	1.197512	0.503559
H	-0.245908	2.129675	-0.046533
C	-0.420779	-1.178351	0.757995
N	-0.707667	-2.148857	1.354417
N	-1.5623	0.010881	-2.137788
O	-1.918876	1.177597	-2.265395
O	-2.133018	-0.984788	-2.568847
Br	-4.031311	0.0	0.0
