15

C	0.0	0.0	0.0
C	-0.553823	-0.012052	-1.41172
Cl	1.794033	0.0	0.0
H	-1.648175	-0.130964	-1.329693
H	-0.305488	0.915733	-1.924132
C	-0.487274	1.266835	0.697866
H	-0.102371	1.29671	1.718176
H	-1.580863	1.24494	0.708833
H	-0.126896	2.142762	0.153338
C	-0.391475	-1.173086	0.791776
N	-0.609073	-2.0621	1.527938
N	-0.023489	-1.106536	-2.264545
O	0.200005	-0.827841	-3.443159
O	0.124601	-2.214672	-1.757745
Br	-3.795481	0.0	0.0
