15

C	0.0	0.0	0.0
C	-0.350134	-0.344819	-1.479211
Cl	1.798748	0.0	0.0
H	-0.514513	-1.413934	-1.599307
H	0.486635	-0.025549	-2.094596
C	-0.514308	1.325817	0.528047
H	-1.608138	1.300588	0.49923
H	-0.162474	1.447844	1.556509
H	-0.135162	2.14346	-0.084973
C	-0.392219	-1.110748	0.874936
N	-0.630136	-2.024286	1.573707
N	-1.495304	0.329478	-2.172002
O	-1.554844	1.551378	-2.109483
O	-2.153849	-0.392381	-2.910372
Br	-3.810537	0.0	0.0
