15
Coordinates from ORCA-job run
  C   0.71978013624847      0.26234672525574      0.50543989767706
  C   -0.62549208243608      0.27398484321364     -0.24636392023044
  H   0.62115162223889     -0.21400674996782      1.48318156063335
  H   -0.45943069729508      0.78670029788292     -1.19997456869163
  C   1.29004247782772      1.59844810955269      0.63286502636353
  N   1.72978210521553      2.68235759279241      0.73809207496167
  N   1.66783835976494     -0.60672283310498     -0.28849640928444
  O   1.95018553849580     -0.21000329388028     -1.41289445788844
  O   2.02703569098073     -1.65220445619837      0.24100128282632
  C   -1.57879436750566      1.05425183756151      0.54363142068632
  N   -2.35426863801552      1.65268430752674      1.19156601378499
  C   -1.14623608209804     -1.14422126587105     -0.49636386732042
  H   -1.23400982775058     -1.69859489530593      0.44019019147939
  H   -0.47743111650883     -1.68512113964094     -1.16759555659115
  H   -2.13015311916229     -1.09789907981627     -0.96427868840611
