15
Coordinates from ORCA-job run
  C   0.83479713611500      0.35656401158007      0.11509262779215
  C   -0.68037808281123      0.12431234374363      0.24722032592845
  H   1.02368080441790      1.43040859109859      0.02675911603083
  H   -1.00171618381232      0.69343281050365      1.12563429476359
  C   1.41247925676288     -0.35415015148780     -1.01738580004232
  N   1.82939064444536     -0.88914559327969     -1.97623698501722
  N   1.50319159154064     -0.05787902429191      1.41258716247880
  O   1.17687128708107      0.61605721015368      2.38333943065636
  O   2.26944353557692     -1.01123227597819      1.39575277732113
  C   -0.94199749235911     -1.29400265366979      0.50328740969620
  N   -1.16279282186328     -2.43163541404068      0.69427557682287
  C   -1.42393958855468      0.61192686894501     -0.99877343617753
  H   -1.21827329091427      1.67151884052841     -1.16813629313648
  H   -1.12091909220778      0.04558630551186     -1.88090237650290
  H   -2.49883770341709      0.48723813068316     -0.86151383061395
