15
Coordinates from ORCA-job run
  C   0.68444335293214      0.31608520872502      0.52284199302325
  C   -0.57940493141628      0.25315227098563     -0.35673768228414
  H   0.46097660020697      0.03464506295194      1.55406767560945
  H   -0.28921139642910      0.56868082869611     -1.36475810818012
  C   1.32899949025675      1.62294448205882      0.46763985296584
  N   1.82982518141623      2.68421939387795      0.42072367128404
  N   1.64325742211988     -0.73022133066746      0.00336260517378
  O   1.88000452647429     -1.67500655214261      0.74752102584063
  O   2.05638069463112     -0.56405828046567     -1.13813012593227
  C   -1.54804951143289      1.21376716306401      0.17290638206832
  N   -2.33894857513584      1.96133575036820      0.61439471535015
  C   -1.16910920435867     -1.15950925977174     -0.39860801333298
  H   -1.38378943152934     -1.52318824173613      0.60832163182988
  H   -2.09819592648328     -1.15396206853523     -0.96960948405212
  H   -0.47717829125200     -1.84888442740884     -0.88493613936371
