15
Coordinates from ORCA-job run
  C   0.72827608084706      0.12865707680186      0.54414691242887
  C   -0.61126678468713      0.34706343878796     -0.18642263458219
  H   0.60081513553035     -0.51654199895676      1.41601833276490
  H   -0.41865888767032      1.02873411314667     -1.02183294179113
  C   1.36146550013344      1.38834141069911      0.91671475854131
  N   1.84913257657765      2.41363641691032      1.21682664918182
  N   1.63772865461762     -0.62187247017562     -0.40105103964482
  O   1.94408373515043     -1.76336574136295     -0.07613178784587
  O   1.94330557697688     -0.03753910284883     -1.43367846055678
  C   -1.53127768244290      0.99740133251805      0.74751040399955
  N   -2.27943114699625      1.48483584956024      1.51048705562037
  C   -1.19395374260745     -0.96995326002258     -0.70700704224853
  H   -0.54768315905096     -1.39701474878685     -1.47546776593299
  H   -1.30901069489263     -1.69331457459404      0.10285392708347
  H   -2.17352516148580     -0.78906774167659     -1.15096636701798
