16

C	-0.425113	0.009875	-1.439305
C	0.0	0.0	0.0
Cl	-2.2028	0.002513	-1.685465
H	1.093235	0.0	0.0
H	-0.023729	-0.852002	-1.961375
N	0.148214	1.212522	-2.144814
O	1.119541	0.989077	-2.866144
O	-0.361375	2.311458	-1.942579
N	-0.328359	-1.302735	0.559862
O	-0.251106	-2.291912	-0.187922
O	-0.517857	-1.383511	1.783784
C	-0.462309	1.138822	0.871135
H	-0.105065	2.079005	0.450912
H	-0.018136	1.014612	1.858001
H	-1.550119	1.177432	0.967991
H	2.483524	0.0	0.0
