16

C	-0.625204	0.006927	-1.370495
C	0.0	0.0	0.0
Cl	-0.173604	1.472064	-2.280231
H	1.089395	0.0	0.0
H	-1.713509	-0.035861	-1.347107
N	-0.231866	-1.16341	-2.246776
O	0.877388	-1.651473	-2.099556
O	-1.071638	-1.493393	-3.082817
N	-0.461504	-1.171833	0.704345
O	-1.052028	-2.066432	0.056686
O	-0.159423	-1.282938	1.904709
C	-0.299734	1.260463	0.794522
H	-1.358707	1.548172	0.758672
H	0.320419	2.073946	0.409447
H	-0.00289	1.073728	1.826251
H	2.472573	0.0	0.0
