16

C	-0.457743	0.045931	-1.43099
C	0.0	0.0	0.0
Cl	0.495075	-0.937672	-2.538063
H	1.093442	0.0	0.0
H	-0.371283	1.075934	-1.780476
N	-1.948898	-0.261101	-1.597095
O	-2.676117	0.399166	-0.856346
O	-2.331626	-1.056698	-2.439789
N	-0.418633	-1.218259	0.658932
O	-0.795118	-2.176488	-0.039838
O	-0.282083	-1.271113	1.889831
C	-0.311103	1.225571	0.83656
H	0.3221	1.190188	1.723792
H	-1.360227	1.291064	1.124294
H	-0.031047	2.117178	0.268791
H	2.481134	0.0	0.0
