16

C	-0.45298	0.047739	-1.422732
C	0.0	0.0	0.0
Cl	-2.162343	0.55731	-1.643063
H	1.097996	0.0	0.0
H	-0.345102	-0.920397	-1.896181
N	0.410658	0.983731	-2.228478
O	1.098294	0.453683	-3.097445
O	0.389776	2.179697	-1.960621
N	-0.355595	-1.28071	0.574824
O	-0.398157	-2.284294	-0.162073
O	-0.449172	-1.341666	1.81265
C	-0.384973	1.154127	0.89443
H	-0.208618	2.086891	0.359321
H	0.257826	1.132115	1.774569
H	-1.42886	1.103112	1.20914
H	2.439116	0.0	0.0
