15

C	0.0	0.0	0.0
C	-0.384351	0.012962	-1.502416
Cl	1.798054	0.0	0.0
H	0.351349	-0.640345	-1.990963
H	-0.175611	1.034653	-1.865694
C	-0.395373	1.24179	0.67145
N	-0.616602	2.259699	1.215384
C	-0.538117	-1.215752	0.729495
H	-1.631352	-1.128266	0.755303
H	-0.137436	-1.256384	1.745384
H	-0.25866	-2.118961	0.18417
N	-1.717541	-0.494512	-1.749503
H	-2.059428	-0.096854	-2.618265
H	-2.433939	-0.220605	-1.017665
H	-3.587642	0.0	0.0
