15

C	0.0	0.0	0.0
C	-0.45048	-0.011816	-1.499829
Cl	1.797683	0.0	0.0
H	-0.37042	-1.058923	-1.822309
H	0.303391	0.554259	-2.059004
C	-0.356109	1.29726	0.58966
N	-0.58203	2.340857	1.078318
C	-0.59498	-1.134923	0.802648
H	-0.298626	-2.08817	0.359099
H	-0.265542	-1.099591	1.843457
H	-1.688828	-1.0201	0.750467
N	-1.754803	0.508988	-1.796298
H	-2.508744	0.15791	-1.153276
H	-1.752626	1.512695	-1.650362
H	-3.652158	0.0	0.0
