15

C	0.0	0.0	0.0
C	-0.486323	0.022474	-1.459265
Cl	1.802371	0.0	0.0
H	-0.061847	0.906151	-1.946281
H	-1.57957	0.126808	-1.367603
C	-0.382253	1.24805	0.670444
N	-0.554506	2.275983	1.213402
C	-0.497846	-1.209288	0.765437
H	-0.145596	-1.181942	1.799088
H	-1.598077	-1.15113	0.718532
H	-0.123322	-2.119481	0.291292
N	-0.164776	-1.159887	-2.240613
H	0.7986	-1.435605	-2.084757
H	-0.764557	-1.921881	-1.950816
H	-3.172306	0.0	0.0
