15

C	0.0	0.0	0.0
C	-0.537198	0.040417	-1.439609
Cl	1.802234	0.0	0.0
H	-0.103998	0.907592	-1.947847
H	-1.623615	0.183873	-1.302286
C	-0.358036	1.259362	0.668613
N	-0.537754	2.289561	1.204116
C	-0.534661	-1.182465	0.780361
H	-0.206739	-2.114123	0.314849
H	-0.182967	-1.157713	1.814064
H	-1.633887	-1.083653	0.734781
N	-0.310848	-1.155925	-2.229788
H	-0.944601	-1.879824	-1.915962
H	0.64023	-1.487349	-2.113986
H	-3.260399	0.0	0.0
