15

C	0.0	0.0	0.0
C	-0.530095	0.066028	-1.43743
Cl	1.801324	0.0	0.0
H	-0.132501	-0.806589	-1.968008
H	-1.622979	-0.035324	-1.309607
C	-0.367664	1.223353	0.726054
N	-0.547747	2.234624	1.296991
C	-0.527692	-1.234168	0.701655
H	-1.626759	-1.12234	0.692456
H	-0.227525	-2.123921	0.14082
H	-0.146096	-1.303608	1.722916
N	-0.242766	1.279546	-2.180961
H	0.722017	1.55781	-2.04468
H	-0.833295	2.018898	-1.818237
H	-3.223515	0.0	0.0
