15

C	-0.495886	-0.006216	-1.402091
C	0.0	0.0	0.0
Br	-2.563662	0.327715	-1.454897
H	1.089971	0.0	0.0
H	-0.313181	-0.924596	0.487071
N	0.067418	1.092587	-2.304033
O	0.907289	1.840745	-1.829995
O	-0.312659	1.065156	-3.472978
N	-0.175232	-1.1962	-2.0485
H	-0.553872	-1.23947	-2.984063
H	-0.397324	-2.013527	-1.501949
N	-0.492018	1.083801	0.84487
O	-0.740486	2.178311	0.340295
O	-0.572932	0.839	2.052216
F	2.474602	0.0	0.0
