15

C	-0.626191	-0.026082	-1.368102
C	0.0	0.0	0.0
Br	-0.063669	1.718246	-2.250561
H	1.08804	0.0	0.0
H	-0.35589	0.880789	0.53549
N	-0.024598	-1.072267	-2.313054
O	1.152061	-1.341418	-2.181771
O	-0.784956	-1.509012	-3.178187
N	-2.010138	-0.216254	-1.363472
H	-2.391345	-0.28207	-2.296973
H	-2.473628	0.489387	-0.810513
N	-0.48281	-1.170071	0.750439
O	-0.392888	-2.271885	0.206832
O	-0.906771	-0.989034	1.898263
F	2.505529	0.0	0.0
