15

C	-0.617769	0.025008	-1.370905
C	0.0	0.0	0.0
Br	0.172334	1.538589	-2.332639
H	1.086164	0.0	0.0
H	-0.288582	0.914715	0.519876
N	-0.162536	-1.20565	-2.214064
O	-0.89895	-1.500415	-3.155811
O	0.875309	-1.766134	-1.911617
N	-2.027482	0.16948	-1.396302
H	-2.352038	0.113342	-2.353807
H	-2.413958	-0.615651	-0.88254
N	-0.512462	-1.107938	0.805475
O	-1.114181	-2.038803	0.239456
O	-0.293071	-1.072245	2.01507
F	2.493274	0.0	0.0
