15

C	-0.593697	0.194959	-1.368675
C	0.0	0.0	0.0
Br	0.362966	1.501514	-2.465083
H	1.101143	0.0	0.0
H	-0.348873	-0.953154	0.401831
N	-0.353963	-1.145066	-2.15305
O	0.657853	-1.786377	-1.915139
O	-1.219523	-1.445697	-2.978856
N	-1.966896	0.533896	-1.35674
H	-2.467301	-0.135302	-0.782264
H	-2.341962	0.510994	-2.295931
N	-0.477475	1.029189	0.927135
O	-0.92728	0.650984	2.016067
O	-0.366853	2.210919	0.605975
F	2.49625	0.0	0.0
