15

C	-0.586996	0.062763	-1.390485
C	0.0	0.0	0.0
Br	0.291769	1.302741	-2.592105
H	1.08679	0.0	0.0
H	-0.374669	-0.907748	0.478746
N	-0.291383	-1.382165	-1.951275
O	0.767055	-1.623179	-2.504935
O	-1.184894	-2.199733	-1.716938
N	-1.975285	0.336776	-1.394856
H	-2.453408	-0.342494	-0.815202
H	-2.355601	0.318166	-2.332617
N	-0.493349	1.112182	0.823394
O	-1.044104	0.826668	1.894625
O	-0.295723	2.260211	0.432988
F	2.507508	0.0	0.0
