17

C	0.0	0.0	0.0
C	-0.636608	-0.111752	-1.40641
Br	1.968235	0.0	0.0
H	-1.670648	-0.433939	-1.13225
C	-0.493044	1.254491	0.712346
H	-0.118338	1.266349	1.737647
H	-1.590007	1.149776	0.677104
H	-0.137494	2.147433	0.194734
C	-0.352576	-1.167172	0.817889
N	-0.544493	-2.068868	1.547074
N	0.082691	-1.169779	-2.186586
O	-0.066942	-2.329783	-1.802909
O	0.794578	-0.826513	-3.128513
N	-0.732612	1.083012	-2.170994
H	0.108831	1.644964	-2.138099
H	-1.525561	1.593739	-1.803065
F	-2.840405	0.0	0.0
