17

C	0.0	0.0	0.0
C	-0.620114	0.077764	-1.388425
Br	1.966866	0.0	0.0
H	-1.730829	-0.015622	-1.083118
C	-0.458842	1.212832	0.813761
H	-0.074589	1.136676	1.832919
H	-1.553361	1.145495	0.787469
H	-0.099773	2.124153	0.338831
C	-0.377151	-1.207263	0.743235
N	-0.543559	-2.113435	1.473449
N	-0.22275	-1.125558	-2.219879
O	0.236243	-0.922068	-3.349026
O	-0.41333	-2.240634	-1.74193
N	-0.323211	1.306	-2.040028
H	0.58546	1.262554	-2.485669
H	-1.016101	1.479693	-2.754238
F	-2.833986	0.0	0.0
