17

C	0.0	0.0	0.0
C	-0.626373	0.103084	-1.408545
Br	1.967942	0.0	0.0
H	-1.680018	-0.204375	-1.174672
C	-0.487282	1.146167	0.881419
H	-0.119519	1.008224	1.899831
H	-0.118572	2.099394	0.497869
H	-1.584446	1.060349	0.82834
C	-0.358536	-1.268306	0.64579
N	-0.542469	-2.259554	1.249896
N	0.04865	-0.879528	-2.316109
O	-0.146227	-2.070722	-2.075115
O	0.774761	-0.453569	-3.212516
N	-0.642028	1.390747	-2.012539
H	0.232723	1.88928	-1.903963
H	-1.404891	1.906448	-1.593588
F	-2.834285	0.0	0.0
