17

C	0.0	0.0	0.0
C	-0.706213	0.037098	-1.349438
Br	1.95383	0.0	0.0
H	-1.79017	-0.188084	-0.97026
C	-0.460867	1.210797	0.816988
H	-0.131313	2.119856	0.316486
H	-0.041104	1.15793	1.822863
H	-1.5534	1.136119	0.832867
C	-0.352394	-1.207506	0.763565
N	-0.545148	-2.120393	1.477991
N	-0.226745	-1.041026	-2.25697
O	-0.123666	-0.791173	-3.463155
O	0.004502	-2.142734	-1.763629
N	-0.658906	1.328731	-1.974236
H	-0.279847	1.238291	-2.906981
H	-1.612955	1.660211	-2.045315
F	-2.904012	0.0	0.0
