16

C	0.0	0.0	0.0
C	-0.339833	0.133243	-1.52255
Cl	1.793196	0.0	0.0
H	0.15414	-0.720897	-2.001958
C	-0.413069	1.159096	0.803204
N	-0.681841	2.040849	1.530681
N	-0.563187	-1.177162	0.583001
H	-1.580479	-0.992844	0.637835
H	-0.426646	-1.95189	-0.059364
N	0.432756	1.313641	-2.141111
O	0.964851	1.102395	-3.231857
O	0.387934	2.401904	-1.580398
N	-1.695591	0.292688	-1.831489
H	-1.99336	-0.41018	-2.493511
H	-2.390466	0.234585	-0.973145
H	-3.245917	0.0	0.0
