16

C	0.0	0.0	0.0
C	-0.593564	-0.10717	-1.411656
Cl	1.792548	0.0	0.0
H	-1.704345	-0.103637	-1.134433
C	-0.356921	1.363024	0.463271
N	-0.522691	2.471029	0.817119
N	-0.510322	-0.935701	0.960979
H	-0.313714	-1.863094	0.602144
H	-1.539194	-0.77911	0.900893
N	-0.350048	-1.437656	-2.05378
O	-0.833499	-1.598397	-3.172855
O	0.245573	-2.321948	-1.420783
N	-0.27524	0.938194	-2.327335
H	0.636129	1.336433	-2.134539
H	-0.979329	1.663036	-2.277557
H	-2.903276	0.0	0.0
