16

C	0.0	0.0	0.0
C	-0.545502	-0.070732	-1.44627
Cl	1.792808	0.0	0.0
H	-1.643163	-0.117938	-1.271039
C	-0.345108	1.357295	0.50497
N	-0.52123	2.441984	0.925149
N	-0.552273	-1.071888	0.749311
H	-0.340772	-0.93574	1.733869
H	-1.591758	-0.921047	0.622819
N	-0.122156	-1.364233	-2.071742
O	-0.845562	-2.343616	-1.907305
O	0.919846	-1.355655	-2.730604
N	-0.203142	1.001109	-2.32295
H	0.773148	1.255666	-2.23895
H	-0.788454	1.7966	-2.104132
H	-2.920172	0.0	0.0
