16

C	0.0	0.0	0.0
C	-0.363273	0.201559	-1.499564
Cl	1.837871	0.0	0.0
H	0.3655	-0.363348	-2.090343
C	-0.355806	1.120179	0.889264
N	-0.563737	1.914471	1.733219
N	-0.511745	-1.261841	0.435945
H	-1.529527	-1.210484	0.300074
H	-0.336018	-1.353602	1.432707
N	0.053933	1.669863	-1.888654
O	0.980872	1.786904	-2.696295
O	-0.62313	2.598379	-1.454267
N	-1.679569	-0.109084	-1.762787
H	-2.456943	0.067869	-0.997192
H	-1.967683	0.035811	-2.718768
H	-3.338761	0.0	0.0
