17

C	0.0	0.0	0.0
C	-0.497112	0.120095	-1.495583
Cl	1.79255	0.0	0.0
H	0.335102	-0.254117	-2.102065
C	-0.563793	1.043832	0.943169
H	-1.659016	0.949905	0.901428
H	-0.215887	0.860448	1.962143
H	-0.244924	2.032394	0.615181
C	-0.336308	-1.345625	0.490047
N	-0.520222	-2.434601	0.890956
N	-0.660901	1.54019	-1.783994
H	-0.84066	1.58805	-2.78275
H	-1.542982	1.808117	-1.350202
N	-1.679245	-0.63157	-1.828724
H	-2.460327	-0.389862	-1.165496
H	-1.503264	-1.62666	-1.728391
H	-3.532076	0.0	0.0
