17

C	0.0	0.0	0.0
C	-0.609252	-0.042769	-1.403473
Cl	1.794336	0.0	0.0
H	-1.691313	0.076356	-1.179032
C	-0.512475	1.224857	0.736948
H	-0.214492	2.1108	0.176217
H	-0.104804	1.262007	1.74967
H	-1.609275	1.130439	0.758248
C	-0.366676	-1.219757	0.736646
N	-0.559564	-2.218465	1.325408
N	-0.306373	-1.316632	-2.06953
H	-0.841065	-1.312815	-2.93404
H	-0.708942	-2.065852	-1.510867
N	-0.13651	1.082242	-2.179283
H	0.710577	0.802746	-2.662813
H	-0.839001	1.332655	-2.863667
H	-3.295079	0.0	0.0
