17

C	0.0	0.0	0.0
C	-0.506034	0.044927	-1.475592
Cl	1.794889	0.0	0.0
H	0.323023	-0.304596	-2.100001
C	-0.543373	1.110195	0.880986
H	-0.173537	0.989863	1.901209
H	-1.638692	1.020473	0.87051
H	-0.231193	2.073594	0.47976
C	-0.329703	-1.301322	0.609463
N	-0.46008	-2.311735	1.195184
N	-0.731243	1.453983	-1.836634
H	-0.816184	1.496046	-2.847333
H	-1.647597	1.702157	-1.465699
N	-1.605381	-0.87855	-1.616475
H	-2.405573	-0.58135	-0.99907
H	-1.938214	-0.836943	-2.575804
H	-3.56119	0.0	0.0
