17

C	0.0	0.0	0.0
C	-0.511021	0.049134	-1.480718
Cl	1.805063	0.0	0.0
H	0.355358	0.316538	-2.09268
C	-0.469192	1.168609	0.857005
H	-1.557663	1.095152	0.937372
H	-0.202062	2.108261	0.376357
H	-0.009772	1.101329	1.846469
C	-0.355404	-1.254692	0.676244
N	-0.575935	-2.248043	1.263579
N	-1.502668	1.097631	-1.622901
H	-2.3402	0.789008	-1.071443
H	-1.78037	1.114279	-2.600828
N	-0.893178	-1.311233	-1.874741
H	-1.787851	-1.498751	-1.421633
H	-1.06613	-1.30271	-2.875101
H	-3.364477	0.0	0.0
