17

C	0.0	0.0	0.0
C	-0.525439	0.048055	-1.445825
Cl	1.806	0.0	0.0
H	-1.616573	0.144855	-1.283958
C	-0.506816	1.175426	0.810371
H	-1.605556	1.088148	0.785655
H	-0.18155	2.096328	0.327375
H	-0.13521	1.128267	1.837026
C	-0.373233	-1.276207	0.623869
N	-0.544888	-2.325338	1.124804
N	-0.290451	-1.167045	-2.216278
H	-0.958188	-1.869338	-1.915277
H	0.641872	-1.527058	-2.032565
N	-0.009279	1.241903	-2.093063
H	-0.514229	1.332153	-2.967438
H	0.964496	1.082451	-2.335973
H	-3.193576	0.0	0.0
