17

C	0.0	0.0	0.0
C	-0.609373	0.010966	-1.415059
Cl	1.793176	0.0	0.0
H	-1.682057	-0.170761	-1.193833
C	-0.528501	1.14991	0.832619
H	-0.17899	1.076357	1.865074
H	-1.627749	1.068877	0.789646
H	-0.181258	2.087949	0.397068
C	-0.348295	-1.289344	0.622502
N	-0.521964	-2.342324	1.115774
N	-0.112085	-1.018661	-2.303529
H	-0.524264	-1.90569	-2.042293
H	0.895491	-1.097135	-2.215401
N	-0.392464	1.320654	-2.02852
H	-0.490373	1.160261	-3.024966
H	-1.175059	1.908228	-1.751842
H	-3.282733	0.0	0.0
