14

C	-0.602889	0.089147	-1.392556
C	0.0	0.0	0.0
Br	0.377087	1.324648	-2.515644
H	1.092385	0.0	0.0
H	-1.636909	0.427509	-1.377117
N	-0.627587	-1.250388	-2.073721
O	0.432467	-1.847674	-2.205044
O	-1.737788	-1.658835	-2.430448
C	-0.520136	-1.174351	0.685293
N	-0.970193	-2.089054	1.275765
N	-0.339192	1.24691	0.70579
H	-0.989633	1.081002	1.460751
H	0.534956	1.583703	1.098722
F	2.516268	0.0	0.0
