14

C	-0.594177	0.110868	-1.394548
C	0.0	0.0	0.0
Br	0.354615	1.407744	-2.470019
H	1.097453	0.0	0.0
H	-1.638631	0.416551	-1.386841
N	-0.569644	-1.212587	-2.104736
O	-1.670899	-1.669977	-2.420119
O	0.512217	-1.754026	-2.285703
C	-0.523199	-1.179346	0.666847
N	-0.961022	-2.105647	1.246968
N	-0.335552	1.239903	0.722239
H	0.546595	1.591251	1.080296
H	-0.947126	1.056521	1.505702
F	2.513533	0.0	0.0
