14

C	-0.59857	0.087989	-1.392144
C	0.0	0.0	0.0
Br	0.364802	1.346217	-2.502922
H	1.092437	0.0	0.0
H	-1.638587	0.413332	-1.38558
N	-0.595519	-1.24681	-2.080255
O	-1.693447	-1.658537	-2.464979
O	0.469934	-1.838964	-2.187093
C	-0.517774	-1.174283	0.683569
N	-0.957186	-2.09564	1.2694
N	-0.342599	1.247686	0.704675
H	-0.983864	1.081356	1.470007
H	0.535222	1.584593	1.085199
F	2.516183	0.0	0.0
