14

C	-0.457144	-0.044981	-1.436186
C	0.0	0.0	0.0
Br	-2.405812	-0.086847	-1.66097
H	1.094239	0.0	0.0
H	-0.067626	-0.92409	-1.944787
N	0.094448	1.137251	-2.189904
O	1.172524	0.924021	-2.738829
O	-0.515055	2.196912	-2.179278
C	-0.431954	-1.21884	0.676124
N	-0.758181	-2.190329	1.254758
N	-0.386878	1.225483	0.67251
H	-1.247881	1.13589	1.19458
H	0.371724	1.478952	1.291227
F	2.503903	0.0	0.0
