14

C	-0.35559	0.032171	-1.45984
C	0.0	0.0	0.0
Br	-0.179466	-1.67676	-2.350328
H	1.098577	0.0	0.0
H	0.301186	0.736367	-1.965799
N	-1.759723	0.525616	-1.718146
O	-2.633889	0.204804	-0.918867
O	-1.928846	1.220884	-2.716953
C	-0.546495	-1.115815	0.753694
N	-0.952305	-1.982791	1.437898
N	-0.343096	1.31826	0.538949
H	0.428965	1.604599	1.129201
H	-1.199187	1.294064	1.079044
F	2.523225	0.0	0.0
