17

C	-0.434998	-0.005945	-1.450102
C	0.0	0.0	0.0
Cl	-2.238999	0.170429	-1.625486
H	1.090765	0.0	0.0
C	0.242829	1.111603	-2.240544
H	0.051447	0.960181	-3.304056
H	1.315622	1.063675	-2.028626
H	-0.139613	2.081182	-1.933634
C	-0.051496	-1.2751	-2.077852
N	0.323846	-2.211951	-2.679688
N	-0.411384	-1.166449	0.774844
O	0.029049	-1.205145	1.926738
O	-1.047741	-2.073119	0.222519
N	-0.407862	1.226226	0.698953
O	-1.274481	1.174981	1.573488
O	0.184325	2.251392	0.34749
H	2.406865	0.0	0.0
