17

C	-0.511611	-0.006166	-1.42256
C	0.0	0.0	0.0
Cl	-2.311579	0.177658	-1.534294
H	1.09078	0.0	0.0
C	0.130312	1.11899	-2.230218
H	1.216425	1.027054	-2.132632
H	-0.182356	1.032554	-3.27305
H	-0.183652	2.084233	-1.837804
C	-0.153299	-1.283178	-2.049471
N	0.208395	-2.261232	-2.591171
N	-0.4123	-1.158556	0.808781
O	0.113875	-1.207345	1.924841
O	-1.147275	-2.024691	0.318654
N	-0.414123	1.220012	0.725993
O	0.231848	2.241391	0.471204
O	-1.353118	1.146155	1.526415
H	2.482039	0.0	0.0
