17

C	-0.504067	0.02181	-1.442313
C	0.0	0.0	0.0
Cl	0.55037	-1.032674	-2.468503
H	1.090337	0.0	0.0
C	-1.952656	-0.415191	-1.648689
H	-2.205645	-0.3345	-2.707825
H	-2.054023	-1.448828	-1.32659
H	-2.605662	0.228208	-1.059252
C	-0.329951	1.380133	-1.970945
N	-0.250739	2.461157	-2.425641
N	-0.4152	-1.106454	0.781407
O	-0.516925	-2.215092	0.206161
O	-0.411349	-0.951704	2.023416
N	-0.408088	1.251555	0.72062
O	0.469919	1.948776	1.213917
O	-1.616299	1.497581	0.756468
H	2.343593	0.0	0.0
