17

C	-0.462875	-0.062108	-1.458143
C	0.0	0.0	0.0
Cl	-0.191934	1.580926	-2.157912
H	1.089036	0.0	0.0
C	0.408119	-1.035075	-2.248944
H	0.206077	-0.919477	-3.315178
H	1.452685	-0.804668	-2.025651
H	0.188348	-2.054219	-1.937536
C	-1.887703	-0.360392	-1.622038
N	-3.01789	-0.586723	-1.848395
N	-0.418242	-1.135621	0.791576
O	-0.285561	-1.018442	2.01672
O	-0.735604	-2.184441	0.207272
N	-0.513846	1.214606	0.696861
O	0.296934	2.04491	1.088861
O	-1.738795	1.29273	0.808306
H	2.498078	0.0	0.0
