17

C	-0.473601	-0.001922	-1.435926
C	0.0	0.0	0.0
Cl	-2.279611	0.187126	-1.56403
H	1.090744	0.0	0.0
C	0.187622	1.117149	-2.236342
H	-0.054	0.990731	-3.292343
H	-0.166601	2.085886	-1.893394
H	1.266851	1.052449	-2.070511
C	-0.116483	-1.276707	-2.067997
N	0.237717	-2.230004	-2.65678
N	-0.415818	-1.157125	0.791537
O	0.050953	-1.193612	1.932994
O	-1.087871	-2.051069	0.263549
N	-0.402288	1.226611	0.707583
O	0.209046	2.247996	0.380326
O	-1.28979	1.174352	1.561758
H	2.419944	0.0	0.0
