17

C	-0.461861	-0.069621	-1.458474
C	0.0	0.0	0.0
Cl	-0.206829	1.575586	-2.159019
H	1.089005	0.0	0.0
C	0.421102	-1.033124	-2.249466
H	0.2175	-2.054046	-1.933682
H	1.462425	-0.785499	-2.028571
H	0.213111	-0.923373	-3.31534
C	-1.883821	-0.38491	-1.624861
N	-3.00833	-0.641925	-1.846572
N	-0.423605	-1.132039	0.794509
O	-0.342843	-0.999177	2.023416
O	-0.687726	-2.194689	0.210103
N	-0.517271	1.216694	0.691559
O	-1.743628	1.324564	0.747957
O	0.294877	2.018609	1.137939
H	2.494251	0.0	0.0
