17

C	-0.470259	-0.01137	-1.443737
C	0.0	0.0	0.0
Cl	0.285829	1.390973	-2.299259
H	1.088577	0.0	0.0
C	0.017981	-1.270556	-2.158837
H	1.091555	-1.364333	-1.984561
H	-0.188439	-1.170237	-3.225568
H	-0.490493	-2.155058	-1.7759
C	-1.925744	0.105759	-1.575801
N	-3.086116	0.10313	-1.764696
N	-0.40838	-1.232335	0.703993
O	-1.408048	-1.2033	1.429853
O	0.295071	-2.225038	0.501974
N	-0.466679	1.137191	0.787236
O	-1.148656	2.017006	0.246719
O	-0.032718	1.175731	1.9437
H	2.432658	0.0	0.0
