17

C	-0.4124	-0.009024	-1.456725
C	0.0	0.0	0.0
Cl	-2.211744	0.166017	-1.666206
H	1.090787	0.0	0.0
C	0.283939	1.107018	-2.232274
H	1.349167	1.062249	-1.984932
H	0.127565	0.950365	-3.300265
H	-0.111067	2.076597	-1.940865
C	-0.018397	-1.280898	-2.073631
N	0.336306	-2.219129	-2.686201
N	-0.422996	-1.164051	0.773658
O	-1.070635	-2.062435	0.220681
O	0.012606	-1.204006	1.927446
N	-0.420273	1.223255	0.693187
O	-1.311073	1.16702	1.544564
O	0.181753	2.249927	0.360814
H	2.413922	0.0	0.0
