17

C	-0.460718	-0.010504	-1.447418
C	0.0	0.0	0.0
Cl	0.292391	1.408164	-2.282653
H	1.088535	0.0	0.0
C	0.044685	-1.257106	-2.171549
H	-0.461022	-2.148914	-1.80393
H	1.116545	-1.344578	-1.985358
H	-0.150089	-1.144628	-3.239113
C	-1.915136	0.097618	-1.590102
N	-3.077512	0.067211	-1.763917
N	-0.405488	-1.223367	0.711135
O	-1.357533	-1.176047	1.499363
O	0.263727	-2.23259	0.462996
N	-0.46073	1.149238	0.776846
O	-1.189676	1.996825	0.247716
O	0.018615	1.225428	1.912152
H	2.426934	0.0	0.0
