19

C	-0.47768	-0.001899	-1.461351
C	0.0	0.0	0.0
Br	0.380486	1.556273	-2.351443
H	1.096221	0.0	0.0
C	0.025575	-1.256249	-2.163994
H	-0.155038	-1.185492	-3.239958
H	1.098134	-1.378096	-1.978296
H	-0.511076	-2.1341	-1.786603
C	-1.979889	0.187871	-1.62492
H	-2.307425	1.121936	-1.164183
H	-2.514972	-0.643749	-1.152096
H	-2.245984	0.212068	-2.685088
C	-0.437199	-1.236432	0.791261
H	-0.074832	-1.133652	1.817359
H	-1.525982	-1.36566	0.822124
H	0.026203	-2.134563	0.376355
C	-0.463351	1.199593	0.688437
N	-0.865619	2.139937	1.270898
H	2.776837	0.0	0.0
