19

C	-0.276979	-0.022465	-1.496265
C	0.0	0.0	0.0
Br	-2.267782	-0.076205	-1.882565
H	1.100069	0.0	0.0
C	0.279755	1.235358	-2.135453
H	-0.20934	2.132396	-1.750489
H	0.16218	1.205228	-3.221612
H	1.346477	1.269427	-1.873318
C	0.344	-1.25795	-2.122172
H	1.400518	-1.263487	-1.818144
H	-0.136513	-2.176498	-1.782644
H	0.26923	-1.213467	-3.211628
C	-0.443515	-1.225667	0.792927
H	0.120273	-2.100841	0.463854
H	-1.515599	-1.41634	0.688006
H	-0.211256	-1.07242	1.850052
C	-0.479371	1.220205	0.627223
N	-0.854876	2.19629	1.166016
H	2.733074	0.0	0.0
