19

C	-0.460772	-0.057839	-1.464689
C	0.0	0.0	0.0
Br	0.133109	1.624324	-2.342661
H	1.096262	0.0	0.0
C	0.253538	-1.195623	-2.181535
H	1.324349	-1.142409	-1.963701
H	-0.137258	-2.155562	-1.828754
H	0.084607	-1.136032	-3.259809
C	-1.970259	-0.114293	-1.640193
H	-2.231905	-0.096247	-2.701462
H	-2.356546	-1.042925	-1.206559
H	-2.455456	0.731089	-1.145861
C	-0.351711	-1.264485	0.798411
H	0.007865	-1.129543	1.821612
H	0.189473	-2.117469	0.387009
H	-1.422881	-1.484148	0.834622
C	-0.534893	1.16402	0.687861
N	-0.997411	2.071809	1.277045
H	2.775479	0.0	0.0
