19

C	-0.468004	-0.039515	-1.461778
C	0.0	0.0	0.0
Br	0.177466	1.623585	-2.340695
H	1.096242	0.0	0.0
C	0.200514	-1.1998	-2.185853
H	1.273026	-1.186684	-1.971938
H	-0.22493	-2.146293	-1.837082
H	0.032124	-1.128047	-3.263344
C	-1.979975	-0.040615	-1.628997
H	-2.399748	-0.948354	-1.18274
H	-2.426977	0.828489	-1.142191
H	-2.247557	-0.02205	-2.688869
C	-0.351256	-1.270888	0.788865
H	0.012111	-1.142177	1.811314
H	-1.422272	-1.490377	0.824991
H	0.188338	-2.121469	0.369727
C	-0.526126	1.160775	0.700225
N	-0.983152	2.081628	1.272902
H	2.770138	0.0	0.0
