16

C	0.0	0.0	0.0
C	-0.599944	0.001489	-1.380624
F	1.399618	0.0	0.0
H	-1.707141	0.042811	-1.120638
H	-0.31805	0.921416	0.485488
C	-0.48354	-1.194605	0.78685
H	-0.139847	-2.116661	0.314349
H	-1.576923	-1.122392	0.770789
H	-0.095213	-1.14015	1.808271
N	-0.225318	-1.129461	-2.16226
H	0.748585	-1.060746	-2.430594
H	-0.777493	-1.160488	-3.007219
N	-0.241468	1.316756	-2.067313
O	-0.397517	2.360984	-1.438229
O	0.1549	1.274889	-3.237886
F	-2.90622	0.0	0.0
