16

C	0.0	0.0	0.0
C	-0.605058	-0.00069	-1.378754
F	1.389547	0.0	0.0
H	-1.712307	0.035748	-1.11465
H	-0.324146	0.919408	0.485164
C	-0.487189	-1.194379	0.78669
H	-0.143609	-2.117221	0.316022
H	-0.100354	-1.140312	1.809379
H	-1.580552	-1.119618	0.769028
N	-0.229059	-1.129179	-2.16318
H	-0.774588	-1.154744	-3.013052
H	0.747822	-1.063973	-2.424223
N	-0.266261	1.317252	-2.071671
O	-0.366689	2.358746	-1.427108
O	0.045896	1.280048	-3.266691
F	-2.911084	0.0	0.0
