16

C	0.0	0.0	0.0
C	-0.405524	0.763642	-1.281673
F	1.387912	0.0	0.0
H	0.473879	1.341321	-1.589109
H	-0.326381	0.63766	0.825195
C	-0.592478	-1.373419	0.151883
H	-0.247746	-2.041124	-0.640344
H	-1.683378	-1.22467	0.116476
H	-0.302616	-1.796198	1.118014
N	-1.555352	1.538344	-1.126836
H	-2.348053	0.948758	-0.686462
H	-1.837011	1.938416	-2.011678
N	-0.462551	-0.277835	-2.450625
O	-1.527906	-0.458086	-3.032807
O	0.597551	-0.838843	-2.739833
F	-3.190212	0.0	0.0
