16

C	0.0	0.0	0.0
C	-0.610176	0.251096	-1.371968
F	1.396378	0.0	0.0
H	-1.64417	0.549072	-1.1015
H	-0.300425	0.846278	0.621125
C	-0.507238	-1.279534	0.613435
H	-0.129504	-1.369598	1.635848
H	-0.164944	-2.14682	0.040931
H	-1.602417	-1.178562	0.595487
N	-0.674037	-0.832806	-2.306296
H	-1.494005	-1.366717	-2.044984
H	0.14723	-1.422522	-2.254996
N	0.141978	1.405685	-1.967112
O	0.912195	1.199184	-2.902792
O	-0.023564	2.503137	-1.431832
F	-2.908982	0.0	0.0
