16

C	0.0	0.0	0.0
C	-0.40597	0.189421	-1.479723
F	1.387667	0.0	0.0
H	0.47256	0.596589	-1.993383
H	-0.32727	0.912937	0.503625
C	-0.592216	-1.200277	0.684745
H	-1.68289	-1.078746	0.590371
H	-0.244939	-2.126794	0.22377
H	-0.305691	-1.203313	1.739865
N	-1.557949	0.959229	-1.646535
H	-1.843998	0.961796	-2.616737
H	-2.348268	0.5938	-1.004439
N	-0.463283	-1.233039	-2.130425
O	0.599617	-1.857315	-2.187485
O	-1.535616	-1.643447	-2.562996
F	-3.193745	0.0	0.0
