16

C	0.0	0.0	0.0
C	-0.59976	0.210976	-1.36545
F	1.403385	0.0	0.0
H	-1.698986	0.244364	-1.105102
H	-0.315148	0.828583	0.629712
C	-0.487261	-1.298582	0.604606
H	-0.106872	-1.38901	1.626486
H	-1.581335	-1.221672	0.592619
H	-0.134537	-2.159559	0.027585
N	-0.270738	-0.773731	-2.35593
H	0.572186	-1.266174	-2.092857
H	-1.030803	-1.431275	-2.430528
N	-0.250045	1.589203	-1.896679
O	-0.463296	1.816108	-3.084113
O	0.155974	2.434678	-1.094758
F	-2.904749	0.0	0.0
