16

C	0.0	0.0	0.0
C	-0.342698	0.599882	-1.388612
F	1.397075	0.0	0.0
H	0.401876	1.387166	-1.552493
H	-0.328094	0.741714	0.734716
C	-0.598304	-1.335423	0.329928
H	-0.293349	-2.100948	-0.384031
H	-1.688341	-1.183745	0.298019
H	-0.289144	-1.634635	1.337096
N	-1.658645	1.048689	-1.66388
H	-1.698617	2.045084	-1.466067
H	-2.38676	0.554111	-1.048799
N	0.050991	-0.451872	-2.432993
O	-0.784758	-1.325406	-2.69823
O	1.186216	-0.365853	-2.942695
F	-3.236558	0.0	0.0
