16

C	0.0	0.0	0.0
C	-0.399121	-0.066101	-1.49289
F	1.390433	0.0	0.0
H	0.477655	0.261497	-2.062412
H	-0.324672	0.985833	0.341976
C	-0.588626	-1.069787	0.875584
H	-0.247352	-2.061051	0.567767
H	-0.293202	-0.902134	1.914835
H	-1.679754	-0.965778	0.768405
N	-1.558915	0.646869	-1.793489
H	-1.839111	0.481828	-2.751536
H	-2.348459	0.398724	-1.09542
N	-0.428103	-1.579345	-1.885308
O	-1.50606	-2.106726	-2.145778
O	0.658794	-2.161479	-1.909699
F	-3.188262	0.0	0.0
