15

C	-0.438254	0.088623	-1.460581
C	0.0	0.0	0.0
Br	0.222083	-1.653185	-2.305569
H	1.091054	0.0	0.0
N	-1.836117	0.250477	-1.603451
H	-2.112074	0.279526	-2.576478
H	-2.329119	-0.495535	-1.126061
C	0.273784	1.105977	-2.235168
N	0.73543	1.899676	-2.968279
C	-0.585409	-1.146494	0.65792
N	-1.073262	-2.094071	1.157073
N	-0.385768	1.239269	0.728596
O	-0.281413	2.298811	0.118515
O	-0.703464	1.134534	1.911575
F	2.422179	0.0	0.0
