15

C	-0.128887	-0.070873	-1.541901
C	0.0	0.0	0.0
Br	0.066385	1.893375	-2.247196
H	1.092539	0.0	0.0
N	0.912604	-0.894909	-1.939459
H	1.013402	-0.992241	-2.938884
H	1.786357	-0.652145	-1.413192
C	-1.427459	-0.459746	-2.086878
N	-2.446563	-0.818623	-2.552898
C	-0.546598	-1.198291	0.606228
N	-0.981673	-2.16009	1.124362
N	-0.663225	1.185401	0.606145
O	-1.878615	1.279944	0.431691
O	0.03426	1.96636	1.244164
F	2.567424	0.0	0.0
