15

C	-0.422541	-0.063215	-1.448434
C	0.0	0.0	0.0
Br	-2.58962	0.117159	-1.473872
H	1.102936	0.0	0.0
N	0.172501	0.861069	-2.280589
H	0.204187	1.783687	-1.872622
H	-0.157919	0.832091	-3.233001
C	-0.277767	-1.413903	-1.982631
N	-0.121237	-2.470146	-2.476863
C	-0.479936	-1.126679	0.76493
N	-0.811494	-2.081288	1.365819
N	-0.358248	1.263686	0.668858
O	-0.604092	1.229542	1.870805
O	-0.297858	2.301292	0.002824
F	2.396842	0.0	0.0
