15

C	-0.292044	0.138122	-1.48627
C	0.0	0.0	0.0
Br	-2.217301	0.089854	-1.979197
H	1.10968	0.0	0.0
N	0.29603	1.348388	-2.020885
H	-0.213685	2.142373	-1.645571
H	1.249289	1.359771	-1.646485
C	0.289562	-1.022247	-2.171428
N	0.726093	-1.944751	-2.753232
C	-0.543206	-1.157604	0.666373
N	-0.926954	-2.106275	1.247132
N	-0.420299	1.237595	0.746285
O	0.442341	1.798525	1.416088
O	-1.587191	1.620507	0.639438
F	2.467017	0.0	0.0
