15

C	-0.491981	0.190304	-1.431656
C	0.0	0.0	0.0
Br	0.251767	-1.419312	-2.451361
H	1.108487	0.0	0.0
N	-1.903799	0.262864	-1.512359
H	-2.223019	0.350111	-2.469267
H	-2.322694	-0.555153	-1.083916
C	0.112573	1.324385	-2.132298
N	0.509006	2.198293	-2.810569
C	-0.539836	-1.214765	0.569237
N	-0.989159	-2.218053	0.989479
N	-0.391011	1.15321	0.849422
O	-0.596826	0.937086	2.042835
O	-0.401897	2.263646	0.323153
F	2.418824	0.0	0.0
