13
Coordinates from ORCA-job run
  C   -0.59218783431263     -0.41245720304720     -0.39028572517101
  C   0.74215511661365      0.28984944845013     -0.63495580259052
  Cl  -1.43992519163913     -0.71167507807105     -1.91714449859286
  H   0.52481407087444      1.19915448777470     -1.19600103559776
  H   1.34922189514753     -0.36677899984145     -1.26674524805182
  C   -0.40346959659734     -1.66057739672186      0.33595607179492
  N   -0.16069779235634     -2.68040733874353      0.86633105051882
  N   -1.47047940505085      0.52411770364402      0.45021056564668
  O   -2.07462614824734      0.03144679801503      1.39101180399774
  O   -1.49959473909669      1.68746737516478      0.07848071365051
  N   1.31977614373745      0.58507054675283      0.65825871445269
  H   2.08717543812838     -0.02788411885487      0.88981665157703
  H   1.61783804279886      1.54567377547846      0.73406673836557
