13
Coordinates from ORCA-job run
  C   -0.62211277867527     -0.38574658651570     -0.36870223838307
  C   0.73442607886195      0.25248412062332     -0.66155131998208
  Cl  -1.54835719210300     -0.62391156363818     -1.86123925721110
  H   0.54502222603420      1.16706705406655     -1.22469269473373
  H   1.28790380175879     -0.43757025942692     -1.30533605735825
  C   -0.46826198151638     -1.64907991835476      0.33884351175731
  N   -0.25193586705601     -2.68680570721092      0.84546760440034
  N   -1.42310371610046      0.58040161882283      0.51452423210915
  O   -2.08817328662160      0.09102388452243      1.41522815189190
  O   -1.34414779703164      1.76134291557030      0.20984086638889
  N   1.37560897430767      0.50864719993963      0.60966089406417
  H   2.19473406649172     -0.06081382864093      0.75644234289088
  H   1.60839747165006      1.48196107024236      0.73251396416562
