13
Coordinates from ORCA-job run
  C   -0.58632758269098     -0.40860637361298     -0.39627433722788
  C   0.75129913973866      0.28960524436653     -0.63099728327057
  Cl  -1.45569814589971     -0.64601292501044     -1.92360464423095
  H   0.54958754034764      1.19736321622887     -1.20196492897890
  H   1.35908509342339     -0.37521905219158     -1.25062027642134
  C   -0.40897757778453     -1.68186255236263      0.28725216347212
  N   -0.19013446588378     -2.72459035410539      0.78215072204250
  N   -1.45684927444584      0.50201118325571      0.48034689729450
  O   -2.18111075243346     -0.04166197578381      1.30058192516963
  O   -1.37160410090901      1.69928387486901      0.24695364476882
  N   1.33865056735822      0.54785168740269      0.66584693856120
  H   2.23786136074603      0.10706773670950      0.78183075748199
  H   1.41321819843335      1.53477029023452      0.86049842133887
