13
Coordinates from ORCA-job run
  C   -0.55626648815345     -0.43189869012772     -0.06499917809259
  C   0.57699135614206      0.57755323851440     -0.33109750601414
  Cl  -0.72941793895037     -1.55523896021620     -1.40793016717674
  H   0.50010026963449      1.34658432763269      0.44867665896308
  H   0.35357568768280      1.04209416179834     -1.29373613216748
  C   -0.32503113441547     -1.16300201671824      1.17229551331113
  N   -0.06550674018882     -1.73905725985244      2.16291975487886
  N   -1.83902207175566      0.40053099667685      0.07059995793842
  O   -2.27317385721367      0.56060592574241      1.20477470572738
  O   -2.25732877618682      0.90578898368197     -0.96006522772131
  N   1.84144053318808     -0.11386683521552     -0.34973709350112
  H   2.37076554990262      0.03358692837037      0.49613864395351
  H   2.40287361031428      0.13431919971308     -1.14883993009902
