13
Coordinates from ORCA-job run
  C   -0.48172850741965     -0.57032871250135     -0.12822088596485
  C   0.94577090736878     -0.02133924015679     -0.01112146749654
  Cl  -0.88702996539086     -0.91643056257096     -1.80519566879743
  H   1.61831644958792     -0.78439324553972     -0.42231900191066
  H   1.15340775142137      0.08356861656165      1.05500592914232
  C   -0.66604050370505     -1.76214347341998      0.68943035912442
  N   -0.76214542637874     -2.73255922118306      1.34535241478650
  N   -1.41134180512345      0.52859519245163      0.43682047949110
  O   -2.20908307787048      1.06984112102773     -0.30146940100443
  O   -1.20687775159727      0.75746653919474      1.62151323814174
  N   1.00090577090044      1.27558116508965     -0.64693068137321
  H   1.21997725597852      1.20284751063292     -1.63032195990814
  H   1.68486890222850      1.86929431041350     -0.20154335423083
