13
Coordinates from ORCA-job run
  C   -0.55292054309639     -0.36364102896471     -0.18673435747969
  C   0.61813391945176      0.62951098380999     -0.17664918108770
  Cl  -0.70770522471230     -1.15276453487972     -1.75781592916522
  H   0.51750265915518      1.22990598456961      0.73864010856321
  H   0.47398403597737      1.29158142615179     -1.03062528471578
  C   -0.39176399903330     -1.36215424739374      0.86118511600360
  N   -0.18517030977446     -2.13812147726741      1.71897259295835
  N   -1.84191097763618      0.42808793345356      0.06582116918399
  O   -2.00426894599994      1.39700227263371     -0.66324326294655
  O   -2.57903800024355      0.04753176530913      0.96572541983571
  N   1.85741480528554     -0.10245470425984     -0.28860743824207
  H   2.26710369115745     -0.28943845407185      0.61537813620252
  H   2.52863888946879      0.38495408090951     -0.86204708911031
