13
Coordinates from ORCA-job run
  C   -0.50402653612900     -0.36373770312719     -0.13890291824973
  C   0.63650730746117      0.68607148524978     -0.23589244493721
  Cl  -0.46787821858986     -1.45403248510714     -1.52145340085935
  H   0.49144758178605      1.20797070878548     -1.18584294066853
  H   0.47257155995794      1.39519627805287      0.58097449485942
  C   -0.40629029725107     -1.12486864886905      1.09739385399159
  N   -0.22426499092835     -1.73036990255121      2.08820865442580
  N   -1.81383139202625      0.43646245966551     -0.12808088131158
  O   -2.17144131971031      0.81623405540251      0.98079816865169
  O   -2.31320831897671      0.71310495305024     -1.20610664037044
  N   1.97027650048552      0.16862914004780     -0.15958829551645
  H   2.16134531816157     -0.26576549403662      0.73354321629513
  H   2.16879280575930     -0.48489484656299     -0.90405086631031
