13
Coordinates from ORCA-job run
  C   -0.56327599172751     -0.40601982840711     -0.14295723406034
  C   0.55828810941257      0.64741530519858     -0.21726582952046
  Cl  -0.82838071498337     -1.16313541610926     -1.70778784153648
  H   0.52609243988034      1.20510199723350      0.72864339145350
  H   0.28554914248973      1.32793467224586     -1.02632824103957
  C   -0.26069051582033     -1.41844450695882      0.85862532824805
  N   0.06535815119070     -2.21937672059663      1.65413736652447
  N   -1.82813036895626      0.35705339608952      0.27584891081375
  O   -2.31421845616479      1.09023764339664     -0.57164126660458
  O   -2.18011947931894      0.23595807070184      1.44288728097460
  N   1.81493102094300     -0.00699084621519     -0.48112582753467
  H   2.36258206356879      0.48340834437096     -1.17066202277821
  H   2.36201459948601     -0.13214211094986      0.35762598505995
