13
Coordinates from ORCA-job run
  C   -0.58109250570426     -0.41479928812270     -0.39365274378395
  C   0.75618819997164      0.28136407348834     -0.63332955747873
  Cl  -1.45312542887463     -0.65862470391237     -1.91912304127639
  H   1.36845323786811     -0.39546393969147     -1.23456951223826
  H   0.56015533406551      1.17871675495056     -1.22333326971940
  C   -0.40624531288814     -1.68534722840875      0.29535592886165
  N   -0.20480934018497     -2.72639108392024      0.80093089150795
  N   -1.45283780671010      0.49892390158399      0.47818154487973
  O   -2.20547894637992     -0.04293189137352      1.27350435356098
  O   -1.34289403023699      1.69819468556607      0.26310270384961
  N   1.34228355447896      0.55058706997187      0.66246300914504
  H   1.34242426716994      1.53584892543702      0.87954179193290
  H   2.27597877742483      0.18092272443130      0.75092790075886
