13
Coordinates from ORCA-job run
  C   -0.56291126533023     -0.41967584933973     -0.01272746886284
  C   0.60443218524103      0.51409096126864     -0.38508682825551
  Cl  -0.71616497327081     -1.72880086549801     -1.18122621918114
  H   0.41835430690084      0.84500020619463     -1.40896283433717
  H   0.53010930049080      1.38701636263968      0.27565308047702
  C   -0.39260628338260     -0.96284308600138      1.32684232500143
  N   -0.18385153885732     -1.38706784830870      2.40242587240754
  N   -1.83314306850656      0.43983290088327     -0.05565370037271
  O   -2.15568137013003      0.84953334654363     -1.16106371104034
  O   -2.36178004461572      0.70583089906391      1.01668068563346
  N   1.84982802592122     -0.19981413488515     -0.25585051899103
  H   2.39475987709033      0.11585869011966      0.53144392732536
  H   2.40665484844902     -0.15896158268043     -1.09447460980406
