13
Coordinates from ORCA-job run
  C   -0.54897654179988     -0.39935398639709     -0.14771482347641
  C   0.63678609554287      0.57260978099699     -0.25467475177783
  Cl  -0.59899408812704     -1.49874363089993     -1.52530680526621
  H   0.47941566726485      1.34754350774410      0.50889714657664
  H   0.56327088105213      1.04427229497972     -1.23519895598809
  C   -0.48678515710241     -1.15614479092690      1.09491533137101
  N   -0.34629460150785     -1.74143410532218      2.10406149916893
  N   -1.82971410942010      0.44473957762764     -0.16301054546357
  O   -2.58113700572533      0.35584887307445      0.79944423446215
  O   -1.96007696788040      1.17048042687730     -1.13866335896731
  N   1.86892745794610     -0.16561087706882     -0.12072237781056
  H   2.22013150728171     -0.14672997018226      0.82571852819618
  H   2.58144686247536      0.17452289949697     -0.74774512102494
