13
Coordinates from ORCA-job run
  C   -0.61187659898495     -0.38876823177937     -0.37406870975910
  C   0.75385947431730      0.23345675929768     -0.65462814774714
  Cl  -1.53188657920763     -0.60567612707714     -1.87429509744400
  H   0.58966875543791      1.13201745780910     -1.25292607899239
  H   1.31387615145980     -0.48254420121113     -1.26163484107276
  C   -0.48630878990034     -1.65697962551213      0.33002983745972
  N   -0.31748295475850     -2.70170951190641      0.83996001547644
  N   -1.41419782315162      0.58042422547230      0.50573125241650
  O   -1.24204746670486      1.76997374698375      0.27840665325221
  O   -2.17931450929139      0.08719191804906      1.32061169433283
  N   1.38586588856708      0.48645129710851      0.62192819360825
  H   2.30317055898657      0.07408867504412      0.69060180819000
  H   1.43667389323066      1.47207361772167      0.83028342027943
