13
Coordinates from ORCA-job run
  C   -0.50350973041529     -0.39009410432167     -0.00836795634796
  C   0.60175453677612      0.61027143352781     -0.44412397792241
  Cl  -0.53398674072739     -1.78966771558462     -1.07745008563535
  H   0.38082112578487      0.87703586829216     -1.48133655081023
  H   0.47591323547493      1.49981773230735      0.18025048607150
  C   -0.30309531106435     -0.81987480604499      1.36724047132880
  N   -0.03916038974216     -1.15955271671382      2.46105564933567
  N   -1.82868744839025      0.37798242903061     -0.10166633134900
  O   -2.40688819512024      0.37510422434193     -1.17580528009543
  O   -2.11980937452306      1.01789393978597      0.90208514907523
  N   1.95016069495320      0.13761420436164     -0.33674793622556
  H   2.11317266591789     -0.68063610004796     -0.90669089917117
  H   2.21131493107575     -0.05789438893443      0.62055726174588
