13
Coordinates from ORCA-job run
  C   -0.49659786059237     -0.38738406314166     -0.03896992572051
  C   0.60341954323091      0.64839249053222     -0.39632036268715
  Cl  -0.55796238993506     -1.67154651949975     -1.24191942649984
  H   0.49863452900812      1.46905063344253      0.31923679967176
  H   0.36077035604507      1.02266458836657     -1.39491959961170
  C   -0.27387543581679     -0.95406937186927      1.28246208029492
  N   -0.08566153777362     -1.38696913003858      2.35877297478289
  N   -1.82132597760427      0.39278405720112     -0.02242957145379
  O   -2.46196336438282      0.44401217220861     -1.05881304864537
  O   -2.04640538648762      0.98496077201605      1.02612376487188
  N   1.95116122376934      0.16124049221739     -0.37042174704455
  H   2.09416389639665     -0.59905788430805     -1.02037999788656
  H   2.23564240414247     -0.12607823712717      0.55657805992800
