13
Coordinates from ORCA-job run
  C   -0.57755538776105     -0.47049542271539     -0.29603265102981
  C   0.67736031118190      0.25191619109503     -0.82756462922485
  Cl  -1.61756066101217     -0.98055062697524     -1.63068731653139
  H   1.21730437364958     -0.46772319043620     -1.44799600339600
  H   0.32552335098862      1.05964456353205     -1.47169731399759
  C   -0.21715332453006     -1.61166602608255      0.53298703553599
  N   0.17423050390329     -2.53358816901651      1.14802716822607
  N   -1.35243936303371      0.53969787646732      0.55950063253448
  O   -1.66241050544526      1.57620167809055     -0.00944340480577
  O   -1.55005361243041      0.25214420102572      1.73324244471589
  N   1.54695504774066      0.77907049340247      0.18568819948315
  H   1.90622964810653      0.07165055537363      0.81160265746329
  H   1.13156961864209      1.53469787623913      0.71137318102653
