13
Coordinates from ORCA-job run
  C   -0.43474952275825     -0.57965050846522     -0.09382880512896
  C   1.01693408339963     -0.02911792483767     -0.16172654948221
  Cl  -1.08728632924347     -0.83319303194448     -1.70732647734286
  H   1.38957542658127     -0.00485468332763      0.86503237663222
  H   1.59714465039538     -0.76766189130963     -0.72028593751287
  C   -0.50058260819099     -1.81186502356390      0.67648907010732
  N   -0.48837917723093     -2.82127477880122      1.27879530863112
  N   -1.24798723026594      0.49104258580012      0.65195568039657
  O   -1.98630907049139      1.22089256241446      0.01303133211721
  O   -0.98312113370327      0.55998451791212      1.84635308023789
  N   1.16782463239420      1.26579935289972     -0.75711689477638
  H   0.76291692550461      2.00320543993910     -0.19733238309665
  H   0.79401935360914      1.30669338328421     -1.69503980078238
