13
Coordinates from ORCA-job run
  C   -0.58575817083951     -0.42173546359142     -0.37993148465450
  C   0.75557922405610      0.25839730981545     -0.64294941796135
  Cl  -1.45948150248662     -0.71166675592180     -1.89576950417727
  H   0.56072354997014      1.14189293494015     -1.25349570825071
  H   1.35993050227604     -0.43658473771632     -1.23170900329761
  C   -0.41729264436042     -1.66869936216867      0.35242910360118
  N   -0.21819601541719     -2.69249752186682      0.89299769906735
  N   -1.45177134658264      0.52619118230912      0.46162184960288
  O   -1.33793769410875      1.71660902260770      0.20496237852252
  O   -2.20316747702104      0.01494182821624      1.27820870995990
  N   1.34673774919689      0.56250089040280      0.64232073576146
  H   2.26232255209375      0.15627260504361      0.75593520174286
  H   1.38831127322328      1.55537806792996      0.81537944008327
