13
Coordinates from ORCA-job run
  C   -0.49229690219768     -0.38343671880574     -0.13093557889241
  C   0.62903699713802      0.68343069404219     -0.25997159131102
  Cl  -0.38655030755083     -1.56062431944642     -1.43691237847191
  H   0.50567802131531      1.13827211170912     -1.24676842945688
  H   0.42253434485922      1.44088897033695      0.50211347335007
  C   -0.42009722811050     -1.05986204169335      1.15528780413487
  N   -0.25007107207556     -1.59346519886811      2.18864352350751
  N   -1.81750573420103      0.38516710527926     -0.21633569171604
  O   -2.22885786781004      0.81713035638390      0.85421900034453
  O   -2.27738462029354      0.59031345811090     -1.32751717331417
  N   1.96998092313228      0.20305433037848     -0.10551630121663
  H   2.13904425248587     -0.16619609424938      0.82075457040894
  H   2.20648919330851     -0.49467265317776     -0.79706122736689
