13
Coordinates from ORCA-job run
  C   -0.43022135393890     -0.51347678522064     -0.29294193432505
  C   1.01999529235943     -0.09762772399017      0.08153898651223
  Cl  -0.67433845901005     -0.44738624681195     -2.03327697368933
  H   1.12514706235042     -0.26837454991239      1.15561393340743
  H   1.68085816719732     -0.79219234616930     -0.44278398398724
  C   -0.74748669150712     -1.84038150473131      0.21185934984047
  N   -0.91931411380267     -2.93305829826411      0.60976885761649
  N   -1.34559491340851      0.49760050805631      0.41618638047400
  O   -1.39067304345140      0.34659520414126      1.63138190328104
  O   -1.85396063982563      1.39119378831103     -0.23908226084106
  N   1.38367534528372      1.25345933075458     -0.22767724281911
  H   0.88959797031972      1.93107594504558      0.33602079545567
  H   1.26231537743369      1.47257267879110     -1.20660781092560
