11
Coordinates from ORCA-job run
  C   -0.60863727708481     -0.05092607489665      0.10289057828587
  C   0.36301762701943      0.23902346360002      1.01645226810551
  H   0.14071623116936      0.57041652088669      2.01937653551350
  N   -0.46780339266004     -0.53853525173424     -1.15569324440175
  H   0.46439490021589     -0.51987083384753     -1.54119157289100
  H   -1.25139206285259     -0.46556131924791     -1.78213593499931
  C   -1.96444077173347      0.10622387250352      0.56263526770503
  N   -3.07664599290902      0.24357693290271      0.92055133891564
  N   1.75888065656904      0.15846852646790      0.71718243715635
  O   2.53845162782837      0.46560204178917      1.61856020140092
  O   2.10445845443783     -0.20741787842366     -0.41662787479076
