11
Coordinates from ORCA-job run
  C   -0.40682251302956     -0.24902858923137     -0.06850935620901
  C   0.88161368326604     -0.10878655510967      0.32717997904252
  H   1.67860846093186     -0.74896963396017     -0.02752209744285
  N   -0.83106156097130     -1.27505384956746     -0.88468539136607
  H   -1.67082577858273     -1.09980529294024     -1.41315631833154
  H   -0.11559778500434     -1.76896829530606     -1.39549129849928
  C   -1.47683411555731      0.60306751160548      0.37882937480062
  N   -2.45165489514432      1.21400006268899      0.62350770516272
  N   1.33268004674656      0.88872443638658      1.26457086365694
  O   0.51515358828013      1.65502654626311      1.77023259667841
  O   2.54574086906497      0.88979365917082      1.48504394250754
