11
Coordinates from ORCA-job run
  C   -0.61056531411508     -0.04716783030598      0.11366605850973
  C   0.37991510011059      0.22177910546669      1.01317962019919
  H   0.18410983214972      0.40058271947287      2.05953219410183
  N   -0.51077985617509     -0.21690768980582     -1.22921613573326
  H   -1.27947926517769     -0.65401433400852     -1.70853829108146
  H   0.42074185456477     -0.33708226037681     -1.59763824936039
  C   -1.94766224691546     -0.07619305108333      0.64786842774260
  N   -3.04454615988423     -0.11239915541270      1.07117218048688
  N   1.76366434367036      0.26329264245600      0.65549688591716
  O   2.56512407026878      0.48487822683679      1.56261645646932
  O   2.07847764150335      0.07223162676082     -0.52913914725160
