11
Coordinates from ORCA-job run
  C   -0.40126681636338     -0.24314956236870     -0.08192613390419
  C   0.89760275349152     -0.02597882758266      0.23717815304052
  H   1.71921840340969     -0.49028659404781     -0.29204464692556
  N   -0.79386600611547     -1.14337683432465     -1.04811946466991
  H   -0.08369964013856     -1.45082969465201     -1.69421117824317
  H   -1.69413633287378     -0.97661762113308     -1.46850518740074
  C   -1.50604401222849      0.37755422854088      0.60048776950200
  N   -2.51136414767118      0.81149289218441      1.02998075915991
  N   1.33061447684334      0.82694214987481      1.31533462804879
  O   2.55252805587154      0.92565865848089      1.44664695254227
  O   0.49041326577477      1.38859120502792      2.01517834885010
