11
Coordinates from ORCA-job run
  C   -0.39881692318576     -0.16891199599462     -0.13778040082721
  C   0.89761996807492     -0.01962573707905      0.22723215075287
  H   1.71579491295456     -0.48694783717931     -0.30477773142058
  N   -0.78250747448538     -0.85197774922097     -1.27108360805347
  H   -0.09369078757224     -1.46109582137100     -1.68487129722866
  H   -1.71750087420802     -1.22728035748364     -1.26545417031681
  C   -1.50085427330116      0.43137948067178      0.56651681851894
  N   -2.50573639674899      0.82485229744962      1.03427937316436
  N   1.33373793213985      0.78184183282013      1.34267027351751
  O   0.50063249873962      1.39394635684876      2.00803116949631
  O   2.55032141759260      0.78281953053829      1.54323742239675
