11
Coordinates from ORCA-job run
  C   -0.58906514210606      0.02666041939130      0.00662987453729
  C   0.35215747219690      0.60861828643993      0.80548616079612
  H   0.12300556596048      1.41707350791743      1.48302261189043
  N   -0.42226874491055     -0.94081851429632     -0.93047827629241
  H   0.46470395412504     -1.42172000886695     -0.92433744694308
  H   -1.23822066568472     -1.43443172241637     -1.25030022979453
  C   -1.92046342265463      0.56455144298755      0.11608993376899
  N   -3.01575534868837      0.98483543444572      0.20126826638815
  N   1.71540056461778      0.17847600309730      0.83911975881513
  O   2.06645538091486     -0.74787177476986      0.09231737306494
  O   2.46305038622927      0.76362692607027      1.62218197376895
