11
Coordinates from ORCA-job run
  C   -0.56068947285992      0.04052585132782     -0.06671636678894
  C   0.55108260362528      0.75071219492282      0.28302982118873
  H   0.67065971847309      1.79825397905112      0.05167347969375
  N   -0.86514322383756     -1.25040763266263      0.22104102828694
  H   -0.11350422071107     -1.81745318647583      0.58370128664257
  H   -1.59196814840699     -1.69487592566387     -0.31363967126771
  C   -1.58031076436555      0.77997932382068     -0.76493686736367
  N   -2.41824604207459      1.36658314486191     -1.34573252379246
  N   1.66721214975135      0.16366962960397      0.95698975236230
  O   2.62375581820945      0.90111598699712      1.19311416462453
  O   1.61515158219650     -1.03810336578310      1.26047589641396
