11
Coordinates from ORCA-job run
  C   -0.59608086540267      0.01146865111006      0.02750374437994
  C   0.33720038720876      0.53758584860969      0.87255949137807
  H   0.08524942194030      1.23440477889579      1.65812072035321
  N   -0.40606760068593     -0.80383342750010     -1.04083870308808
  H   0.50547836432872     -1.22851840063733     -1.12148214097419
  H   -1.20305467418861     -1.30357825695451     -1.39753335918558
  C   -1.95163282434302      0.44339970683615      0.25056464135986
  N   -3.06455890535955      0.77672809881603      0.43376729834582
  N   1.72491078510812      0.19962050183522      0.80723141580242
  O   2.10355437674612     -0.59371021400129     -0.06846614490994
  O   2.46500153464777      0.72643271299029      1.63757303653845
