11
Coordinates from ORCA-job run
  C   -0.58010403076392      0.02793672616825     -0.02245541354137
  C   0.55248715649628      0.75219063899901      0.21088946494324
  H   0.64566465567497      1.79257983647606     -0.06313869626718
  N   -0.85522571238726     -1.25117939467024      0.33863680743441
  H   -1.61676854103986     -1.71673326253925     -0.12550766372996
  H   -0.07261930126809     -1.80338892151629      0.65528886254606
  C   -1.65329550281002      0.74079077637681     -0.66579680696339
  N   -2.52962203372176      1.30901496159990     -1.20647927170673
  N   1.72171131841688      0.19611434157698      0.81704751839478
  O   2.68716033009378      0.94690262489773      0.95473230908318
  O   1.70161166130899     -0.99422832736894      1.16678288980697
