11
Coordinates from ORCA-job run
  C   -0.60362531279589     -0.03453126800771      0.06264631686134
  C   0.34573363739835      0.61410807634928      0.79880253465005
  H   0.11387749835343      1.46655081445274      1.41873479270594
  N   -0.46712431245240     -1.14206835443005     -0.70658058109487
  H   -1.19358098587758     -1.36133596931510     -1.36659858470843
  H   0.47485996484732     -1.44222103276539     -0.90335644591252
  C   -1.94283704674520      0.47776166835642      0.19755605160895
  N   -3.04032241651275      0.88888830778917      0.29734324931247
  N   1.73170323227708      0.26987181850051      0.76110549151190
  O   2.50163067573098      0.97249083819284      1.41559428228780
  O   2.07968506577665     -0.71051489912271      0.08475289277738
