11
Coordinates from ORCA-job run
  C   -0.60359044874048     -0.03783400678821      0.06817446812445
  C   0.32169553904905      0.41218048581404      0.96494668476298
  H   0.05564008401863      0.98163072916335      1.84253875119322
  N   -0.41168929881381     -0.81624293361517     -1.02612163752434
  H   -1.14502984776329     -0.86109746280500     -1.71276941816366
  H   0.54328542841140     -0.94562920901596     -1.32434978597280
  C   -1.97325311067868      0.29698997477596      0.36213206565324
  N   -3.09590054695499      0.57179284611344      0.58035933998803
  N   1.72554702230458      0.18969298297593      0.80898069457253
  O   2.12075847333350     -0.45594861002044     -0.17390237035803
  O   2.46253670583410      0.66546520340204      1.67201120772439
