11
Coordinates from ORCA-job run
  C   -0.36837728880301     -0.10198934128856     -0.19397718459421
  C   0.90819091840388      0.21744227213551      0.05493804648820
  H   1.74679454945986     -0.12840508982674     -0.55648711055751
  N   -0.75952861762962     -0.87904970875435     -1.26045688512520
  H   -0.17890240932076     -1.68191545170537     -1.50056119892510
  H   -1.76152577054607     -1.06786073904269     -1.30405147549961
  C   -1.41790031384299      0.33857424982265      0.66471151043570
  N   -2.42479817797085      0.46549559863542      1.25677907049077
  N   1.30739244103148      0.81223084677512      1.30914299838057
  O   2.40345625153979      0.42418013494048      1.73043848948493
  O   0.54619841767828      1.60029722830852      1.85952373942148
