11
Coordinates from ORCA-job run
  C   -0.40122842493272     -0.24151645192410     -0.08407509655136
  C   0.89559393426077     -0.03921581164069      0.25262690093370
  H   1.71793454198254     -0.52343096378304     -0.25745484425374
  N   -0.79151512819948     -1.15062253911556     -1.04338518949664
  H   -0.07483065687139     -1.47325373719902     -1.67506735001780
  H   -1.68094463375557     -0.97381213862201     -1.48250929715730
  C   -1.50697358172253      0.40563425504131      0.57126575230054
  N   -2.51181000338823      0.86091124933691      0.97913704524651
  N   1.32518030469136      0.82279157460978      1.32470447427924
  O   2.54644729470054      0.90724887362679      1.47146749255782
  O   0.48314635323472      1.40626568966964      2.00429011215904
