11
Coordinates from ORCA-job run
  C   -0.60272044427189     -0.02118653839877      0.05095439974036
  C   0.34175627266332      0.61581745586792      0.80298803669478
  H   0.10186557968275      1.38997388903821      1.51593252397364
  N   -0.42035375622380     -0.94793290836035     -0.92227071353033
  H   -1.21277686325159     -1.48622724020700     -1.22809249028809
  H   0.50411344771555     -1.34192989697746     -1.00373518395152
  C   -1.96363982500247      0.39421099377985      0.27305271776677
  N   -3.07779964860979      0.72770532941326      0.44903491969318
  N   1.73502235577678      0.30504019737221      0.72473708327076
  O   2.48683400843803      0.93869059242774      1.46491801777837
  O   2.10669887308311     -0.57416187395561     -0.06751931114793
