11
Coordinates from ORCA-job run
  C   -0.58100601349542      0.02238175797811     -0.02290844834998
  C   0.40401983466313      0.74026905934981      0.59163381729059
  H   0.29823480937244      1.78295590148581      0.84978189834017
  N   -0.59553192630642     -1.29929494343941     -0.32687344041847
  H   0.27934169731954     -1.79276897169963     -0.24020576861855
  H   -1.28700842741184     -1.63583081318771     -0.97488290536537
  C   -1.78666400338570      0.74866481980460     -0.32801221585679
  N   -2.77430184400488      1.33541196152364     -0.58081848196832
  N   1.67251582513575      0.17896099718635      0.93764866284072
  O   2.48436968749932      0.93245054292450      1.47425734870794
  O   1.88703036061407     -1.01520031192606      0.67937953339805
