11
Coordinates from ORCA-job run
  C   -0.40737554298290     -0.23921820907244     -0.07771486998804
  C   0.83611634782203     -0.18800012737800      0.45833461226070
  H   1.57125588526813     -0.96881043874004      0.31409837555506
  N   -0.87681022190532     -1.33175698649797     -0.77383276205156
  H   -1.62153255766588     -1.15204171737884     -1.42810931610563
  H   -0.18483663801212     -1.98740497543576     -1.10234142878545
  C   -1.39163192313627      0.79746702923267      0.08795363392406
  N   -2.29304657726949      1.55277306374725      0.10516950035333
  N   1.31643972007805      0.89553587253980      1.27818269296212
  O   0.56424935905181      1.83087610546662      1.54394943778195
  O   2.48617214875195      0.78958038351671      1.65331012409347
