11
Coordinates from ORCA-job run
  C   -0.38905888306353     -0.15341907557115     -0.15678484596276
  C   0.86396528399477     -0.17922650400247      0.35849926525448
  H   1.61603455430760     -0.89009264016602      0.04255744258726
  N   -0.78843575115572     -0.96870721317140     -1.19322083785657
  H   -1.77711187460045     -1.15229611559592     -1.25553952740939
  H   -0.20449066609420     -1.76697988310349     -1.38897803682028
  C   -1.40599181336672      0.77418928844727      0.26322365443671
  N   -2.34711384124823      1.43722857476107      0.50413436424056
  N   1.34042431748111      0.73561015286724      1.36505362236475
  O   2.50031840126000      0.54604893032697      1.73799173379392
  O   0.59246027248538      1.61764448520791      1.78206316537132
