11
Coordinates from ORCA-job run
  C   -0.38045128291344     -0.28884055287839     -0.06725763938051
  C   0.87453843568459      0.19229362891601      0.10482150186242
  H   1.66455987994151      0.04801110619428     -0.62027567461120
  N   -0.73685724573123     -1.08481661580772     -1.13420355031319
  H   -0.10958027184570     -1.08653649021835     -1.92358603788389
  H   -1.71375999215068     -1.08051752421072     -1.38112034672067
  C   -1.44800214115192     -0.09046622942275      0.87733870979259
  N   -2.42575411755812     -0.00310970154492      1.52524036286509
  N   1.30061719702509      0.93511736257595      1.26407994345346
  O   0.50497916152249      1.13333452308787      2.18002708111812
  O   2.46971037717741      1.32553049330873      1.23493564981777
