11
Coordinates from ORCA-job run
  C   -0.39361920802353     -0.18229274099472     -0.13709525296469
  C   0.89302037254348     -0.06269204918838      0.27061441040490
  H   1.70225911521821     -0.63830982056905     -0.15906742163586
  N   -0.77138024995949     -0.97382288364912     -1.19997533250003
  H   -1.72693108566485     -1.29333770697411     -1.19393664391181
  H   -0.10487809046951     -1.66672193489273     -1.50380489637972
  C   -1.48519702718271      0.55903517720946      0.43750527343127
  N   -2.48242778373019      1.06148033951987      0.80682714225146
  N   1.32914744898771      0.83678787174000      1.30882446657198
  O   0.51104467406122      1.58087303361795      1.84579369009364
  O   2.52996183421965      0.77800071418083      1.58231456463887
