11
Coordinates from ORCA-job run
  C   -0.40625638114610     -0.27623871492778     -0.04005261920280
  C   0.89889384935101      0.00813256027004      0.18723244872998
  H   1.70682917738971     -0.46380816805142     -0.35625797848628
  N   -0.81666185845113     -1.25693739904571     -0.91678621709615
  H   -0.13097002573416     -1.58264286006390     -1.58038972942921
  H   -1.74313075324812     -1.14857319282346     -1.29768477333570
  C   -1.49454213344615      0.35426235410625      0.65944637869172
  N   -2.48974125705753      0.78522279083281      1.11470551280065
  N   1.35800645517626      0.95022108425895      1.17686559868390
  O   2.58085359017052      1.09774028915392      1.23159139952907
  O   0.53671933699569      1.53362125629030      1.88132997911483
