11
Coordinates from ORCA-job run
  C   -0.58324883949893      0.10327192873852      0.01543036417086
  C   0.61069887482583      0.70119631257218      0.29745147701592
  H   0.77512730961101      1.76136171527594      0.18009158218316
  N   -0.94019287260871     -1.19466174627581      0.18698740476286
  H   -0.19164935227458     -1.84376970318126      0.37722308806307
  H   -1.75937236005339     -1.52710929415894     -0.29246366035761
  C   -1.62686080698445      0.98018534830463     -0.44981373378895
  N   -2.48660684962575      1.68000124990245     -0.84290583231170
  N   1.75726403719419     -0.02735592257117      0.74361309156309
  O   1.65857516377005     -1.25352480643898      0.90425185924076
  O   2.78526569564473      0.62040491783244      0.93913435945855
