11
Coordinates from ORCA-job run
  C   -0.51911603947868     -0.00343680093271     -0.14520743146866
  C   0.40785202989604      0.80056795687847      0.45213621977402
  H   0.31370341898053      1.87542403560602      0.48398865018627
  N   -0.48709164106229     -1.34961525500528     -0.31625114075044
  H   0.21125147332789     -1.85113723421002      0.21180055185730
  H   -1.34836333739184     -1.81703847330739     -0.54308260795759
  C   -1.64121026802424      0.67297743169682     -0.74316778202018
  N   -2.57062541143445      1.20681255981755     -1.22775354207116
  N   1.56673263280805      0.28923316528159      1.11569861132699
  O   1.75431724500156     -0.93696397074190      1.12674608917813
  O   2.31254989737745      1.11317658491684      1.64409238194532
