11
Coordinates from ORCA-job run
  C   -0.58918346121535     -0.00547569332049      0.00483156287718
  C   0.41678740441718      0.78685971283749      0.47718877481717
  H   0.31354459477097      1.85559344901947      0.58872384501402
  N   -0.61516485551977     -1.35694325645734     -0.11666759484543
  H   0.26893595377533     -1.83244130008692     -0.01580181312131
  H   -1.32016894993683     -1.76559768100304     -0.70612269985741
  C   -1.81231139375488      0.67407117957212     -0.33635028495857
  N   -2.81494046313280      1.21418229088300     -0.63051995750595
  N   1.70348013516743      0.27685785250929      0.83567430220621
  O   1.90937166590146     -0.94250146151682      0.73698357720703
  O   2.53764936952725      1.09539490756325      1.22106028816707
