11
Coordinates from ORCA-job run
  C   -0.40885971432187     -0.20164750701302     -0.10465043579341
  C   0.89901783458866      0.00860228696147      0.18109836783623
  H   1.70390625216026     -0.47640984126389     -0.35535190737190
  N   -0.82735992725114     -0.97733186056649     -1.16361528900870
  H   -0.14239113750059     -1.59706041595934     -1.56754340718537
  H   -1.75042878878523     -1.37314036903483     -1.08454418136404
  C   -1.49236328786013      0.41979031426379      0.61013037296759
  N   -2.48427142866024      0.82053903575453      1.09890669995648
  N   1.36520989986286      0.89811384014928      1.21486696890190
  O   0.54824684726838      1.53725764301947      1.87470260563588
  O   2.58929345049903      0.94128687368903      1.35600020542534
