11
Coordinates from ORCA-job run
  C   -0.41048912724896     -0.25924018481541     -0.05337950374761
  C   0.89863043653625     -0.01151446629527      0.19322389968109
  H   1.70127117827103     -0.47477644695473     -0.36537097847352
  N   -0.83530749769353     -1.19345334500833     -0.97320674264379
  H   -1.75667977199020     -1.04825079564845     -1.35438845079794
  H   -0.15236733221384     -1.50230084038729     -1.64769651271687
  C   -1.48970716139381      0.36333287020453      0.66700798715439
  N   -2.47846210983764      0.79538456369676      1.13509235688978
  N   1.37043985582770      0.87956987743908      1.22330161414531
  O   0.55791209021340      1.43603942762937      1.95906027407609
  O   2.59475943952960      1.01520934013973      1.27735605643307
