11
Coordinates from ORCA-job run
  C   -0.42213199747502     -0.26296983544672     -0.02705440364676
  C   0.87742117464106     -0.12843380452477      0.33188555361764
  H   1.63903888875031     -0.85061080546429      0.06892516062096
  N   -0.90547301743512     -1.37510890992941     -0.68244363495670
  H   -1.74182846096347     -1.23610169712133     -1.22720971009339
  H   -0.21979726072568     -1.96934966453737     -1.12236767658457
  C   -1.44544025371409      0.69395572368200      0.30191820158459
  N   -2.38674352138836      1.37995828793730      0.46491084956135
  N   1.38770415359513      0.96824057407476      1.11543138377642
  O   0.61575955390418      1.84146323743527      1.50599023786727
  O   2.60149074081108      0.93795689389456      1.33001403825320
