11
Coordinates from ORCA-job run
  C   -0.57572213709010     -0.00252954080196     -0.03353284363278
  C   0.43569397577607      0.79700823198335      0.41419190258938
  H   0.32707428778894      1.86466657892571      0.53027247288649
  N   -0.55030820255384     -1.33498209128888     -0.29032485544037
  H   -1.42904504797128     -1.81764923015523     -0.37117407960946
  H   0.25141403512260     -1.84201774042974      0.05337516333134
  C   -1.80994134760438      0.66918517785208     -0.34924047476815
  N   -2.82888834475056      1.20023346224792     -0.60073732188820
  N   1.71592542521829      0.28829722062380      0.79713163247191
  O   1.92734366598025     -0.92989730619208      0.69594555458266
  O   2.53645369008401      1.10568523723501      1.21309284947718
