11
Coordinates from ORCA-job run
  C   -0.58383587269645      0.01134327784357     -0.01018886428838
  C   0.27151840988189      0.47720975027257      0.94573036230764
  H   -0.05943344108489      1.07275366277646      1.78310850893249
  N   -0.29355154900917     -0.68400140002847     -1.13894107455140
  H   0.63915689912774     -1.06347935567775     -1.20297103499821
  H   -1.04463053281895     -1.16486062060030     -1.60400191632355
  C   -1.96724448199439      0.37464478558809      0.15918517464720
  N   -3.10262715214214      0.65370212795216      0.28774649248952
  N   1.67115291418459      0.18530169748363      0.94386421976035
  O   2.13578821170456     -0.49686623671427      0.01771403297211
  O   2.33370659484720      0.63425231110431      1.87875409905223
