11
Coordinates from ORCA-job run
  C   -0.60181924302504     -0.03229734218792      0.05641423260653
  C   0.35420106272401      0.70216650024033      0.69606438332648
  H   0.14261127014778      1.64833463564646      1.17066128579046
  N   -0.48585866611689     -1.25902123841243     -0.51263444007763
  H   -1.20192965618101     -1.55169587527798     -1.15544911674138
  H   0.45273479051420     -1.60606968781457     -0.64186996760989
  C   -1.92636704353618      0.53315623954374      0.05209111530082
  N   -3.01187037156199      0.98546461899109      0.02849691450990
  N   1.72388646294486      0.29842367661002      0.76902259853847
  O   2.49728000984268      1.06122885266380      1.34726643084027
  O   2.05613138424759     -0.77869038000254      0.25093656351596
