11
Coordinates from ORCA-job run
  C   -0.38077221987081     -0.17978066529814     -0.15301082271138
  C   0.84503382761167     -0.19371459226645      0.42442476357712
  H   1.57135988815771     -0.97497900885678      0.24278204862455
  N   -0.77634552330340     -1.10846003685699     -1.09061423407363
  H   -0.22628387299149     -1.95129702932289     -1.15020994841899
  H   -1.76948070226974     -1.25343712967713     -1.17835699877148
  C   -1.36602825579036      0.84089131340700      0.08949294936713
  N   -2.28165814305203      1.57180210799598      0.19291840658439
  N   1.32407402158527      0.82508517390133      1.32394375526696
  O   2.45523790752641      0.63506467865441      1.77628811060675
  O   0.60486307239676      1.78782518831965      1.58334196994858
