11
Coordinates from ORCA-job run
  C   -0.38837116443539     -0.18362774602680     -0.14160083062140
  C   0.89538379830330     -0.03080456809948      0.26390270402702
  H   1.72526810287691     -0.54597909995136     -0.20157204274157
  N   -0.74143002498731     -0.93696473334862     -1.23957410474167
  H   -1.68402795367513     -1.29195999328008     -1.24994551090091
  H   -0.04914576457608     -1.58342189097234     -1.58458518214947
  C   -1.50495312939391      0.48341198892048      0.47461575883455
  N   -2.51926453799903      0.92665136066436      0.87232821362626
  N   1.30235927206825      0.83467687038027      1.34197024074879
  O   0.45581817292982      1.50383561187020      1.93099909507618
  O   2.50936322888858      0.82618219984337      1.59346165884222
