11
Coordinates from ORCA-job run
  C   -0.58202337313878      0.02492579396782     -0.01535816462419
  C   0.34642542183665      0.64726992188009      0.76781618846973
  H   0.11633323008406      1.51460200599220      1.36787565989500
  N   -0.40840720951751     -1.01836878667492     -0.86581100833497
  H   0.46471263388970     -1.51810215575454     -0.78911310069657
  H   -1.22559027802698     -1.51670814778344     -1.17499011309506
  C   -1.90212145700944      0.60030722111329      0.00426251210135
  N   -2.98804860478164      1.05214103264901      0.01627818978198
  N   1.69690311739857      0.19152742508217      0.88201873546710
  O   2.04807372756466     -0.80092031960671      0.22565270123362
  O   2.43374279170070      0.82232600913504      1.63936839980203
