11
Coordinates from ORCA-job run
  C   -0.56164176437634      0.00870629067438     -0.06795869000747
  C   0.41096671129886      0.78201406881232      0.49672880814775
  H   0.28307244807779      1.83807317322403      0.68020176056576
  N   -0.50411738051730     -1.30179620771916     -0.41580247117446
  H   -1.36972754083432     -1.78508919884092     -0.58539123116012
  H   0.28205858070799     -1.82478720006435     -0.06022786196378
  C   -1.78221080262530      0.69181477729933     -0.41090287993144
  N   -2.79012479529639      1.23188663964981     -0.68647837943987
  N   1.67157653153608      0.25734863108982      0.92093156272248
  O   1.90361249222526     -0.94891148840108      0.74748781307109
  O   2.45553551980366      1.04974051427581      1.44241156917005
