11
Coordinates from ORCA-job run
  C   -0.39776813486512     -0.20389200101936     -0.11821314505243
  C   0.88357582843891      0.15743702468276      0.13439150967904
  H   1.70252956077021     -0.07345692352850     -0.53410861123976
  N   -0.78635193770134     -0.81053271923949     -1.29282258057505
  H   -0.05377101668678     -1.21720001799868     -1.85370549646287
  H   -1.62825882505892     -1.36217395187016     -1.24732145306864
  C   -1.49613955883519      0.07729876441052      0.76818240151638
  N   -2.48964933290666      0.20593251154473      1.38446495447789
  N   1.29935872410024      0.88717158051140      1.30551104877481
  O   0.45577996491066      1.24457879175663      2.12525272584014
  O   2.51169472783399      1.09583694075016      1.38936864611048
