11
Coordinates from ORCA-job run
  C   -0.40232784237813     -0.22226303875862     -0.09462145358882
  C   0.87410300656562      0.19641605331079      0.08687179903059
  H   1.65001021633909      0.05094486980852     -0.65473028637736
  N   -0.83718264575347     -0.81897958274184     -1.25679298315781
  H   -1.65921107229842     -1.39476938855777     -1.17814929457288
  H   -0.13111018661186     -1.17628571414863     -1.88048506474101
  C   -1.45525201020438     -0.01603120433280      0.86498111168842
  N   -2.41709437761139      0.05502281681766      1.53844538504209
  N   1.32621454770026      0.92139036356635      1.24691856143142
  O   0.53209718369574      1.16985910277076      2.15167805610175
  O   2.51875318055695      1.23469572226560      1.23588416914363
