11
Coordinates from ORCA-job run
  C   -0.36858575427607     -0.23644256130269     -0.08027975897026
  C   0.91562883188405      0.14833151887414      0.09953610939181
  H   1.67267869514227      0.07323180849945     -0.67050259026182
  N   -0.84797163150654     -0.80368999894231     -1.24330386061745
  H   -1.70791792389687     -1.32624346342226     -1.15468359923094
  H   -0.15288875420940     -1.26400902922784     -1.81378159204117
  C   -1.41767499921074      0.01611013595758      0.87365339775558
  N   -2.46849457562403      0.10877299010647      1.39923973399615
  N   1.34002863054774      0.89418404238638      1.25858922041160
  O   2.39934369787832      1.50673951893388      1.12598516958909
  O   0.63585378327129      0.88301503813720      2.26554776997741
