11
Coordinates from ORCA-job run
  C   -0.58093357777099      0.06324804522311     -0.00767617378724
  C   0.59554712802588      0.72310241229013      0.19982190673666
  H   0.70244960552591      1.78597780210148      0.04653827324986
  N   -0.83061270679359     -1.26790799219862      0.07714559824580
  H   -1.78905023100864     -1.56642457128671      0.14040150954520
  H   -0.11700873458754     -1.83018505528041      0.51605365190443
  C   -1.68430964819353      0.87640918467124     -0.44958798299863
  N   -2.59984863666838      1.52559435864517     -0.80177256396464
  N   1.78217712678356      0.06954876711239      0.65678091133297
  O   1.74578980505009     -1.15287597317099      0.86536305446228
  O   2.77779986963723      0.77451302189320      0.81793181527331
