11
Coordinates from ORCA-job run
  C   -0.38913338592875     -0.24960330910829     -0.10369820917241
  C   0.84645086964669      0.27595508496517      0.08502691372004
  H   1.65274229939141      0.14714879819596     -0.62378920629471
  N   -0.76508645411802     -0.88486686252288     -1.26476550837055
  H   -0.01530671704136     -1.18680295195999     -1.86964528376355
  H   -1.52026981129480     -1.54735089861201     -1.19060243050653
  C   -1.45799534431972     -0.11734677846138      0.85188276991442
  N   -2.41498777336021     -0.11914884047174      1.53516805517335
  N   1.23690112694381      1.03452913007269      1.24551516664083
  O   0.38949265393281      1.33546002140855      2.08406825452179
  O   2.43719253614814      1.31202660649392      1.31083947813731
