11
Coordinates from ORCA-job run
  C   -0.57471382717747      0.11784743105580     -0.00252935861754
  C   0.65325135126666      0.66992459470400      0.22156535816542
  H   0.84618701202277      1.72631818639511      0.11269915226651
  N   -0.93233239111645     -1.19092975238427      0.02894210253740
  H   -1.91159112161160     -1.41219219045963      0.09059971966680
  H   -0.26465031918491     -1.82829352681374      0.43609624846853
  C   -1.60953871214294      1.03728893575471     -0.39961042291464
  N   -2.46887118203506      1.77664135918354     -0.71343556177493
  N   1.78311362897730     -0.09618130978379      0.64665404824852
  O   1.64994400906942     -1.32037773674022      0.79689470671355
  O   2.83020155193228      0.51995400908850      0.84212400724036
