11
Coordinates from ORCA-job run
  C   -0.40393599191680     -0.20337815773344     -0.10555988199453
  C   0.85914107863827     -0.18969266734371      0.38632749509455
  H   1.56393549497184     -0.99189727731227      0.21774090982286
  N   -0.87177637731897     -1.18716587633676     -0.94736462871785
  H   -1.86896689067277     -1.32529166654544     -0.95751958278507
  H   -0.33026446804906     -2.03621733260888     -0.99994135288042
  C   -1.36113154901467      0.84687396923544      0.12509911464391
  N   -2.27183171518787      1.58185094084307      0.24241081616719
  N   1.40383700125232      0.89280541569418      1.16473933458642
  O   0.71115186529045      1.88258048600423      1.39394851702152
  O   2.56784155200725      0.73153216610357      1.54011925904143
