11
Coordinates from ORCA-job run
  C   -0.52641672937376      0.00651586236910     -0.13389216016799
  C   0.39198473841731      0.78923937628065      0.50379844888544
  H   0.27120635811400      1.85601563486433      0.61590249296595
  N   -0.46339039022848     -1.32191587957312     -0.40460369449184
  H   -1.31588093574998     -1.79503170832488     -0.65177789957182
  H   0.25961410846538     -1.84151669173061      0.07002412413333
  C   -1.67836668129860      0.69486825699499     -0.65678612931745
  N   -2.63082235377839      1.23945391737897     -1.08072460276867
  N   1.57854960517734      0.26259639966230      1.10298874647598
  O   2.31565305317932      1.06561341925448      1.67413564063724
  O   1.79686922707586     -0.95583858717623      1.02093503321985
