11
Coordinates from ORCA-job run
  C   -0.33080468612675     -0.39220179505322     -0.06302836995686
  C   0.90619022314840      0.07825405432918      0.16259398208698
  H   1.65025443251928      0.11226443363450     -0.62090979738076
  N   -0.74273204162161     -1.13080041398719     -1.15274896005467
  H   -0.08073980443781     -1.22609111987042     -1.90269236708585
  H   -1.68548028496007     -0.94376546194021     -1.46024521023006
  C   -1.38536418190525     -0.07824984195572      0.85750337356389
  N   -2.30816271867053      0.28344500292939      1.49141645497339
  N   1.22628927698781      0.89222510570563      1.30148752050870
  O   0.90288869512967      0.48805836528971      2.41762587399917
  O   1.84666108993688      1.91586167091836      1.02899749957605
