11
Coordinates from ORCA-job run
  C   -0.40730163188654     -0.21346315300664     -0.09839428924642
  C   0.89840731885981      0.02926793143551      0.17025617868004
  H   1.70814357507571     -0.43965494477000     -0.37297072305624
  N   -0.82069781770101     -1.00385260768035     -1.14881193196099
  H   -0.12577517710790     -1.61065435078492     -1.55568134650774
  H   -1.73119635894749     -1.42439490124085     -1.05227965856410
  C   -1.49652660050680      0.38650522453487      0.62600264985187
  N   -2.49180914137874      0.76454842713898      1.12596888745860
  N   1.35543700538897      0.93752304035773      1.19192128958460
  O   2.57971129310262      1.00941521037448      1.31851016789145
  O   0.53160753510136      1.56476012364118      1.85447877586893
