11
Coordinates from ORCA-job run
  C   -0.58897218916764      0.01294922231713      0.00519231050772
  C   0.42860430171287      0.76415479574463      0.51798672030381
  H   0.34225394347129      1.82754791779822      0.68296672802030
  N   -0.63609957413581     -1.33008451454524     -0.18550080643351
  H   -1.34472849028429     -1.69562773679667     -0.79855235376640
  H   0.23993835102582     -1.82426806650097     -0.10822939620317
  C   -1.80111987619610      0.72819343326548     -0.30083411992845
  N   -2.79531204287969      1.29788625546718     -0.56637999520456
  N   1.70723991924247      0.21672023303678      0.84930448973961
  O   1.89455500538922     -0.99893096225887      0.68793273856547
  O   2.55364065182187      1.00145942247233      1.27611368439918
