12

C	0.0	0.0	0.0
C	-0.444609	-0.287014	-1.439506
Br	2.013278	0.0	0.0
H	-0.023147	-1.227897	-1.802746
H	-0.284856	-0.845389	0.625475
H	-1.541093	-0.369351	-1.394379
N	-0.480379	1.201739	0.587223
H	-1.486576	1.068007	0.725835
H	-0.349856	1.977446	-0.053168
C	-0.085339	0.789587	-2.355947
N	0.192404	1.669821	-3.081558
Br	-3.67677	0.0	0.0
