12

C	0.0	0.0	0.0
C	-0.495247	-0.195699	-1.428174
Br	1.95134	0.0	0.0
H	-1.593368	-0.217026	-1.37338
H	-0.269167	-0.890895	0.577265
H	-0.147879	-1.156641	-1.816289
N	-0.492822	1.242385	0.516366
H	-0.288199	1.30373	1.507188
H	-1.512558	1.203591	0.41765
C	-0.064707	0.862426	-2.337552
N	0.275378	1.672056	-3.11618
Br	-3.723318	0.0	0.0
