12

C	0.0	0.0	0.0
C	-0.493774	-0.475733	-1.361301
Br	2.011114	0.0	0.0
H	-0.222257	0.259483	-2.125659
H	-0.27593	-0.71039	0.777533
H	-1.59139	-0.496269	-1.265042
N	-0.513876	1.26378	0.281668
H	-0.181221	2.004773	-0.314786
H	-0.539643	1.520704	1.252823
C	0.016563	-1.783952	-1.754155
N	0.398749	-2.846222	-2.07549
Br	-3.774026	0.0	0.0
