19

C	0.0	0.0	0.0
C	-0.480231	-0.040592	-1.471422
F	1.388488	0.0	0.0
H	-1.567051	0.109838	-1.393804
C	-0.461778	1.299165	0.635589
H	-0.082353	1.313353	1.660057
H	-0.068438	2.166193	0.098279
H	-1.555304	1.270342	0.617935
N	-0.525303	-1.077706	0.784061
H	-0.290217	-1.961804	0.343386
H	-1.551397	-0.915467	0.676866
N	-0.3121	-1.428757	-2.011654
O	-1.322213	-2.060293	-2.323539
O	0.835337	-1.872931	-2.120005
C	0.260792	0.892827	-2.413412
H	0.146223	1.927849	-2.084967
H	1.322953	0.641312	-2.427854
H	-0.143894	0.814228	-3.427173
F	-2.884084	0.0	0.0
