19

C	0.0	0.0	0.0
C	-0.358695	0.208689	-1.520686
F	1.416171	0.0	0.0
H	-0.603992	-0.778554	-1.910408
C	-0.409717	1.169114	0.874186
H	-1.501965	1.183883	0.867351
H	0.018848	2.106002	0.510856
H	-0.037483	0.985568	1.888351
N	-0.560608	-1.250602	0.393731
H	-0.427371	-1.341106	1.398545
H	-1.581875	-1.051533	0.26127
N	0.896766	0.58723	-2.255155
O	1.307312	1.73957	-2.133817
O	1.435285	-0.267855	-2.958235
C	-1.425015	1.222707	-1.883436
H	-2.332898	0.913704	-1.347707
H	-1.11975	2.224718	-1.581787
H	-1.571222	1.214824	-2.969045
F	-2.966962	0.0	0.0
