19

C	0.0	0.0	0.0
C	-0.287952	-0.251193	-1.526351
F	1.400908	0.0	0.0
H	0.53446	0.246881	-2.047607
C	-0.402319	1.381171	0.48039
H	-1.490345	1.423529	0.470529
H	0.03275	2.152367	-0.15515
H	-0.012863	1.475797	1.497008
N	-0.52024	-0.964331	0.904654
H	-0.317331	-1.899615	0.569921
H	-1.552273	-0.778977	0.782011
N	-1.492171	0.4288	-2.127934
O	-2.318407	-0.254967	-2.720147
O	-1.477392	1.657453	-2.131313
C	-0.316487	-1.724905	-1.865692
H	-1.218262	-2.170448	-1.446975
H	0.574201	-2.204351	-1.449843
H	-0.325346	-1.880947	-2.945827
F	-2.75872	0.0	0.0
