19

C	0.0	0.0	0.0
C	-0.330417	-0.040324	-1.52043
F	1.427105	0.0	0.0
H	0.525351	0.455375	-1.988434
C	-0.35786	1.294628	0.712668
H	0.056166	1.220692	1.72543
H	-1.445304	1.344711	0.738125
H	0.072426	2.165287	0.218332
N	-0.499177	-1.169091	0.645737
H	-1.532242	-0.979865	0.530006
H	-0.293569	-1.065439	1.635811
N	-1.476357	0.819311	-2.003601
O	-2.319134	0.313242	-2.732839
O	-1.391869	2.025151	-1.779245
C	-0.480892	-1.449099	-2.049476
H	-1.413388	-1.867035	-1.676888
H	-0.494888	-1.450048	-3.14164
H	0.352644	-2.050926	-1.686061
F	-2.724924	0.0	0.0
