19

C	0.0	0.0	0.0
C	-0.275499	0.113789	-1.543039
F	1.415936	0.0	0.0
H	-0.206418	-0.904669	-1.922531
C	-0.442683	1.212881	0.791661
H	-0.038688	2.132847	0.366006
H	-1.536872	1.199423	0.774588
H	-0.077951	1.107529	1.819854
N	-0.569942	-1.230595	0.450547
H	-0.463908	-1.251723	1.461731
H	-1.588171	-1.047871	0.294869
N	0.89743	0.803896	-2.188158
O	1.050499	2.003684	-1.971359
O	1.616426	0.140964	-2.935362
C	-1.519846	0.818308	-2.032404
H	-1.467209	1.876717	-1.778921
H	-2.388737	0.400719	-1.501736
H	-1.584417	0.718529	-3.120594
F	-3.052713	0.0	0.0
