19

C	0.0	0.0	0.0
C	-0.406877	0.118838	-1.521557
F	1.39761	0.0	0.0
H	-0.845565	1.101565	-1.687508
C	-0.415916	1.276063	0.708428
H	-0.062196	1.22077	1.740973
H	-1.507345	1.299661	0.658575
H	0.036769	2.143924	0.218572
N	-0.494226	-1.117114	0.7265
H	-0.36404	-1.951674	0.1662
H	-1.518786	-0.909657	0.6973
N	-1.480516	-0.808402	-2.008368
O	-2.325918	-0.333656	-2.757292
O	-1.337199	-2.013844	-1.799208
C	0.761744	-0.129454	-2.475501
H	1.547181	0.609625	-2.31995
H	0.415128	-0.071518	-3.511679
H	1.187481	-1.118779	-2.300151
F	-2.75834	0.0	0.0
