16
Coordinates from ORCA-job run
  C   0.72242925871263      0.40840033387444     -0.38243569234675
  C   -0.67017609694148     -0.16183063956685     -0.06805890825475
  Cl  0.70004206776570      1.18074704199274     -2.01005316507623
  H   -0.93076813434505     -0.84241611626227     -0.88781686493975
  H   0.94355991659247      1.21772132343476      0.32162145437679
  C   1.83398334844948     -0.62537129704547     -0.36495119081465
  H   2.77777660391966     -0.17999703755349     -0.68165843753875
  H   1.97350490096031     -1.02395583630983      0.64172419366500
  H   1.59967373009840     -1.44769636208132     -1.04587534023425
  C   -1.72895545440102      0.92779320155679      0.02845622981216
  H   -1.81022531638112      1.50322577949232     -0.89290634149015
  H   -1.48386224454488      1.61962541713577      0.84200935723333
  H   -2.69334510698043      0.47096487676995      0.25283977006854
  N   -0.70933308216092     -0.93960813058940      1.16676664500483
  H   -0.43323113745790     -0.36709791335464      1.95691228481585
  H   -0.09207325328585     -1.73950464149350      1.12242600571876
