15

C	0.0	0.0	0.0
C	-0.457769	0.020224	-1.453567
F	1.387907	0.0	0.0
H	0.009375	-0.834137	-1.955998
H	-1.542648	-0.111714	-1.393884
N	-0.561225	1.089747	0.716157
H	-1.597117	0.885811	0.552273
H	-0.373355	0.958443	1.705897
C	-0.336552	-1.333036	0.599914
N	-0.503977	-2.398464	1.06548
C	-0.072005	1.323651	-2.143268
H	1.005438	1.500033	-2.088827
H	-0.36151	1.293576	-3.198578
H	-0.578464	2.163549	-1.669405
F	-2.801242	0.0	0.0
