15

C	0.0	0.0	0.0
C	-0.444538	0.191791	-1.462965
F	1.411635	0.0	0.0
H	-1.146213	1.039946	-1.462021
H	0.47577	0.477727	-2.004249
N	-0.527653	1.033813	0.813301
H	-0.317283	0.80861	1.782778
H	-1.562371	0.852691	0.658466
C	-0.319475	-1.359198	0.520776
N	-0.436504	-2.430165	0.988859
C	-1.152759	-1.010132	-2.103854
H	-1.342512	-0.823114	-3.163981
H	-0.570252	-1.942818	-2.029294
H	-2.103049	-1.109025	-1.574892
F	-2.725581	0.0	0.0
