15

C	0.0	0.0	0.0
C	-0.447062	0.01679	-1.455397
F	1.414822	0.0	0.0
H	-1.525933	-0.156892	-1.406467
H	0.060081	-0.812046	-1.961939
N	-0.558729	1.08646	0.715141
H	-1.596245	0.878757	0.546395
H	-0.376514	0.947953	1.704874
C	-0.320828	-1.330891	0.606407
N	-0.47049	-2.373362	1.127153
C	-0.118078	1.343636	-2.129014
H	-0.357281	1.295815	-3.196468
H	0.941895	1.591039	-2.024307
H	-0.701073	2.146721	-1.678844
F	-2.790123	0.0	0.0
