15

C	0.0	0.0	0.0
C	-0.446108	-0.012585	-1.456264
F	1.41494	0.0	0.0
H	-1.526948	-0.174757	-1.402763
H	0.052751	-0.85811	-1.943024
N	-0.559447	1.100036	0.693144
H	-1.597126	0.889585	0.528598
H	-0.374	0.986958	1.685269
C	-0.319429	-1.318759	0.633579
N	-0.470738	-2.349566	1.176797
C	-0.101532	1.294242	-2.161059
H	-0.668826	2.116893	-1.725458
H	0.963315	1.527145	-2.069047
H	-0.348871	1.22691	-3.225478
F	-2.791234	0.0	0.0
