15

C	0.0	0.0	0.0
C	-0.255976	-0.03518	-1.535604
F	1.38621	0.0	0.0
H	-0.110176	1.009995	-1.833253
H	0.60486	-0.594021	-1.917956
N	-0.597942	1.116983	0.623875
H	-1.631229	0.892122	0.432773
H	-0.463897	1.035635	1.628335
C	-0.350714	-1.308488	0.634208
N	-0.517948	-2.330321	1.189461
C	-1.517742	-0.606431	-2.168048
H	-1.415847	-0.524355	-3.258061
H	-2.401379	-0.105049	-1.783282
H	-1.630025	-1.663242	-1.91246
F	-2.847028	0.0	0.0
