14

C	0.0	0.0	0.0
C	-0.542765	0.269323	-1.393693
F	1.409205	0.0	0.0
H	-0.285252	-0.538341	-2.07375
H	-1.636825	0.384647	-1.291471
N	-0.503351	0.883112	0.957577
H	-0.117354	0.73259	1.87615
H	-0.48426	1.845296	0.659491
C	-0.340639	-1.396733	0.367044
N	-0.481547	-2.524311	0.660443
N	0.043153	1.500805	-1.982972
O	0.526036	1.412749	-3.110699
O	-0.01093	2.541467	-1.326497
Br	-3.810239	0.0	0.0
