14

C	0.0	0.0	0.0
C	-0.529477	-0.267097	-1.39326
F	1.403279	0.0	0.0
H	-0.358219	0.596168	-2.033778
H	-1.610662	-0.465606	-1.300016
N	-0.502261	1.247337	0.411334
H	-0.457011	1.409709	1.403829
H	-0.143728	2.015906	-0.13419
C	-0.376641	-1.026792	0.994537
N	-0.517922	-1.786204	1.877495
N	0.153186	-1.410057	-2.046197
O	0.269318	-2.448223	-1.398759
O	0.536464	-1.250401	-3.206592
Br	-3.796207	0.0	0.0
