14

C	0.0	0.0	0.0
C	-0.489049	-0.07686	-1.439021
F	1.376037	0.0	0.0
H	-0.226131	0.856487	-1.929783
H	-1.566933	-0.26189	-1.436558
N	-0.498432	1.206951	0.567081
H	-1.520685	1.184828	0.458497
H	-0.310979	1.205251	1.56435
C	-0.342239	-1.22223	0.785609
N	-0.527698	-2.145422	1.487229
N	0.199486	-1.169032	-2.168032
O	1.075716	-0.853052	-2.974917
O	-0.150107	-2.321598	-1.914733
Br	-3.661646	0.0	0.0
