14

C	0.0	0.0	0.0
C	-0.545153	-0.040699	-1.417048
F	1.41094	0.0	0.0
H	-1.641084	0.086048	-1.341889
H	-0.28299	-0.974216	-1.907796
N	-0.503941	1.066065	0.74598
H	-0.506206	1.939986	0.245924
H	-0.115332	1.12239	1.673613
C	-0.334684	-1.285196	0.664378
N	-0.506417	-2.308849	1.211726
N	0.029806	1.038815	-2.260988
O	0.485551	0.716281	-3.356535
O	-0.008937	2.193627	-1.834861
Br	-3.825245	0.0	0.0
