14

C	0.0	0.0	0.0
C	-0.484395	0.056231	-1.433063
F	1.417368	0.0	0.0
H	-1.561041	-0.155307	-1.451564
H	-0.275481	1.046145	-1.831413
N	-0.472804	1.164502	0.669175
H	-1.494673	1.171704	0.556779
H	-0.285727	1.071336	1.662359
C	-0.326937	-1.267579	0.705454
N	-0.511976	-2.202365	1.392469
N	0.217013	-0.913587	-2.308804
O	0.558734	-0.510764	-3.420346
O	0.380166	-2.056901	-1.892194
Br	-3.636293	0.0	0.0
