14

C	0.0	0.0	0.0
C	-0.461925	0.05754	-1.452894
F	1.388463	0.0	0.0
H	-1.55235	-0.004164	-1.488514
H	0.036064	-0.729155	-2.017166
N	-0.492709	1.113075	0.723737
H	-1.499	1.180264	0.536941
H	-0.380647	0.957279	1.718863
C	-0.351561	-1.338309	0.555913
N	-0.527498	-2.411603	0.999847
N	-0.0297	1.350815	-2.051849
O	1.09914	1.389964	-2.544319
O	-0.821054	2.288711	-2.01417
Br	-3.656287	0.0	0.0
