17

C	-0.472805	0.098497	-1.446073
C	0.0	0.0	0.0
F	-1.876466	0.097435	-1.47401
H	1.100454	0.0	0.0
C	0.023962	1.356302	-2.125751
H	-0.422731	2.214336	-1.622127
H	1.11299	1.400753	-2.048671
H	-0.273072	1.366295	-3.176076
C	-0.056385	-1.098694	-2.200395
N	0.234263	-2.012577	-2.876431
N	-0.498166	-1.225646	0.569658
H	-1.458651	-1.103503	0.8673
H	0.078149	-1.502527	1.352846
N	-0.470917	1.203814	0.72848
H	-0.42432	0.962652	1.713148
H	0.236379	1.924755	0.60544
Br	3.551977	0.0	0.0
