17

C	-0.416066	0.070809	-1.470924
C	0.0	0.0	0.0
F	-1.797684	0.386133	-1.529886
H	1.095895	0.0	0.0
C	0.348168	1.133145	-2.231647
H	1.417826	0.918971	-2.1627
H	0.030051	1.156113	-3.275551
H	0.157666	2.106464	-1.77604
C	-0.274859	-1.233642	-2.140362
N	-0.16905	-2.221529	-2.765702
N	-0.505661	-1.225555	0.589641
H	0.072891	-1.431647	1.396431
H	-1.442611	-1.044446	0.934989
N	-0.408573	1.210627	0.717623
H	-1.176764	1.674954	0.251677
H	0.375725	1.845372	0.78739
Br	3.554091	0.0	0.0
