17

C	-0.450216	0.023557	-1.463813
C	0.0	0.0	0.0
F	-1.817688	0.32868	-1.52515
H	1.101491	0.0	0.0
C	0.321295	1.064169	-2.245909
H	1.388986	0.834979	-2.204091
H	-0.024841	1.091571	-3.281492
H	0.148263	2.026621	-1.765034
C	-0.305584	-1.308925	-2.083756
N	-0.206706	-2.368153	-2.581173
N	-0.570572	-1.164516	0.694232
H	-0.18192	-1.145368	1.633055
H	-0.199037	-2.011033	0.270937
N	-0.431353	1.239228	0.611118
H	-1.370683	1.112586	0.96975
H	0.197206	1.470334	1.369916
Br	3.591364	0.0	0.0
