17

C	-0.558197	-0.015131	-1.426508
C	0.0	0.0	0.0
F	-0.064226	-1.130662	-2.091798
H	1.094132	0.0	0.0
C	-2.073755	-0.104478	-1.453253
H	-2.516113	0.790116	-1.012882
H	-2.364604	-0.993571	-0.893206
H	-2.41732	-0.194945	-2.484555
C	-0.124305	1.180319	-2.175312
N	0.120726	2.117332	-2.837601
N	-0.422996	-1.238355	0.672421
H	-0.986896	-1.014433	1.484648
H	0.410247	-1.71564	0.999769
N	-0.426137	1.246387	0.622398
H	0.303936	1.569019	1.244974
H	-1.281112	1.127465	1.152309
Br	3.542001	0.0	0.0
