17

C	-0.451329	0.017198	-1.463731
C	0.0	0.0	0.0
F	-1.817924	0.325448	-1.525798
H	1.101461	0.0	0.0
C	0.322426	1.051955	-2.250919
H	0.152454	2.017081	-1.774408
H	1.389406	0.820885	-2.208796
H	-0.024547	1.075313	-3.286271
C	-0.3114	-1.318691	-2.077224
N	-0.216816	-2.380465	-2.570251
N	-0.570545	-1.161428	0.699039
H	-0.181432	-1.139354	1.637706
H	-0.20012	-2.010215	0.27845
N	-0.430888	1.242071	0.606007
H	-1.369763	1.116914	0.968302
H	0.199978	1.476841	1.36196
Br	3.59198	0.0	0.0
