15

C	0.0	0.0	0.0
C	-0.517889	0.007507	-1.509896
F	1.374734	0.0	0.0
H	-0.697757	-1.025859	-1.80625
C	-0.428032	1.222344	0.69621
N	-0.648337	2.2341	1.250811
C	-0.453532	-1.207132	0.699333
N	-0.680672	-2.226209	1.23781
N	0.681539	0.464872	-2.311396
O	1.299472	-0.380174	-2.951635
O	0.941972	1.66248	-2.254921
N	-1.607946	0.825477	-1.85499
H	-1.452304	1.7772	-1.542181
H	-2.474629	0.483582	-1.403924
Cl	-3.914296	0.0	0.0
