15

C	0.0	0.0	0.0
C	-0.379093	-0.622108	-1.38563
F	1.371	0.0	0.0
H	0.591632	-0.747541	-1.876501
C	-0.427737	1.377709	0.294895
N	-0.531882	2.485005	0.674382
C	-0.404428	-0.876152	1.116772
N	-0.481072	-1.571081	2.061551
N	-1.036998	0.392299	-2.340487
O	-1.838588	-0.055591	-3.149062
O	-0.570718	1.528057	-2.340353
N	-1.026889	-1.867334	-1.286358
H	-1.946313	-1.69462	-0.871216
H	-1.143648	-2.263681	-2.209607
Cl	-3.066571	0.0	0.0
