15

C	0.0	0.0	0.0
C	-0.366595	0.014835	-1.526047
F	1.380019	0.0	0.0
H	0.601068	-0.150083	-2.009607
C	-0.461687	1.139204	0.805287
N	-0.688425	2.058589	1.500305
C	-0.423671	-1.267193	0.619654
N	-0.54938	-2.299206	1.167504
N	-0.653824	1.481144	-1.959242
O	-1.574446	1.67769	-2.738877
O	0.151039	2.320453	-1.558162
N	-1.282335	-0.950324	-1.943703
H	-2.202876	-0.769096	-1.517378
H	-1.328072	-0.984642	-2.953109
Cl	-3.342208	0.0	0.0
