17

C	0.0	0.0	0.0
C	-0.186765	-0.069726	-1.556267
Cl	1.804631	0.0	0.0
H	0.509221	0.657601	-1.965544
C	-0.384059	1.356725	0.426097
N	-0.565049	2.454574	0.803746
C	-0.566702	-1.038731	0.919197
H	-1.66262	-0.991252	0.807784
H	-0.191589	-2.024077	0.673166
H	-0.295596	-0.774227	1.941042
N	-1.477969	0.371121	-2.270554
O	-2.112853	-0.465751	-2.86997
O	-1.666707	1.573646	-2.212223
N	0.214483	-1.366665	-2.185184
O	0.270896	-2.398799	-1.528422
O	0.465337	-1.267137	-3.393492
Br	-3.66877	0.0	0.0
