17

C	0.0	0.0	0.0
C	-0.61138	0.082271	-1.398633
Cl	1.784512	0.0	0.0
H	-1.696432	0.275092	-1.274194
C	-0.392476	1.197293	0.756091
N	-0.646716	2.124778	1.431008
C	-0.503524	-1.235159	0.750944
H	-0.184101	-1.159444	1.791101
H	-1.59622	-1.238001	0.704782
H	-0.082567	-2.134493	0.306938
N	-0.485892	-1.15964	-2.220778
O	-1.294374	-1.242635	-3.140089
O	0.406039	-1.964368	-1.965946
N	0.009852	1.182358	-2.210361
O	0.70135	0.872735	-3.175224
O	-0.221949	2.318229	-1.814051
Br	-3.742165	0.0	0.0
