16

C	-0.394281	-0.033441	-1.455953
C	0.0	0.0	0.0
F	-1.782078	-0.074094	-1.643924
H	1.093167	0.0	0.0
C	0.079861	1.211688	-2.099123
N	0.398152	2.202024	-2.644283
C	0.196302	-1.151952	-2.218784
N	0.636333	-1.955775	-2.952887
N	-0.47121	-1.218202	0.676947
O	-0.537594	-1.19686	1.906928
O	-0.732482	-2.213943	-0.005252
C	-0.455775	1.244463	0.733047
H	-0.001759	2.118416	0.264562
H	-1.543665	1.358944	0.748933
H	-0.085887	1.192225	1.754888
F	2.471202	0.0	0.0
