16

C	-0.38235	-0.082256	-1.458231
C	0.0	0.0	0.0
F	-1.764592	-0.170541	-1.659623
H	1.092087	0.0	0.0
C	0.055961	1.160666	-2.129687
N	0.307598	2.163493	-2.686319
C	0.254671	-1.203187	-2.17758
N	0.740207	-2.023582	-2.862344
N	-0.465688	-1.205272	0.706307
O	-0.543449	-1.1511	1.934974
O	-0.709938	-2.221679	0.048378
C	-0.471796	1.25972	0.695361
H	-0.00852	2.124034	0.218028
H	-1.560648	1.372975	0.68451
H	-0.126388	1.229736	1.726482
F	2.471645	0.0	0.0
