16

C	-0.385571	-0.026443	-1.477126
C	0.0	0.0	0.0
F	-0.071295	1.220962	-2.006304
H	1.093189	0.0	0.0
C	0.363278	-1.023347	-2.264599
N	0.922093	-1.755397	-2.992741
C	-1.838867	-0.210845	-1.690291
N	-3.003774	-0.272327	-1.831236
N	-0.452098	-1.238612	0.632767
O	-0.738621	-2.194967	-0.102602
O	-0.478414	-1.287911	1.862411
C	-0.507861	1.218137	0.735149
H	-0.110794	2.10813	0.248728
H	-1.602207	1.273996	0.773936
H	-0.117338	1.185389	1.750937
F	2.476078	0.0	0.0
