13

C	-0.244028	-0.127776	-1.484331
C	0.0	0.0	0.0
Br	0.232901	-1.872869	-2.151212
H	1.096325	0.0	0.0
H	0.367128	0.600255	-2.016149
N	-1.67257	0.132793	-1.910877
O	-2.567419	-0.214507	-1.151317
O	-1.822069	0.67898	-3.000094
C	-0.527918	-1.073065	0.8168
N	-0.868416	-1.95544	1.515671
C	-0.436562	1.307796	0.453201
N	-0.749437	2.387534	0.799124
F	2.431156	0.0	0.0
