13

C	-0.501294	0.068978	-1.435453
C	0.0	0.0	0.0
Br	0.410978	1.455071	-2.431411
H	1.095265	0.0	0.0
H	-1.56837	0.263906	-1.536566
N	-0.280123	-1.241994	-2.149441
O	-1.162131	-1.564737	-2.946402
O	0.741125	-1.867336	-1.903741
C	-0.512601	-1.191339	0.655311
N	-0.927209	-2.157312	1.183455
C	-0.443847	1.191522	0.704224
N	-0.784343	2.167992	1.264457
F	2.426289	0.0	0.0
