13

C	-0.499429	0.04196	-1.437751
C	0.0	0.0	0.0
Br	0.444493	1.373784	-2.475483
H	1.095412	0.0	0.0
H	-1.560537	0.259439	-1.544772
N	-0.310714	-1.292905	-2.111585
O	0.718054	-1.911014	-1.884458
O	-1.224415	-1.64224	-2.859596
C	-0.513531	-1.177628	0.67882
N	-0.929223	-2.131577	1.227094
C	-0.439907	1.205193	0.682662
N	-0.771941	2.194105	1.225289
F	2.425069	0.0	0.0
