13

C	-0.493764	0.04815	-1.438853
C	0.0	0.0	0.0
Br	0.419239	1.425122	-2.443432
H	1.095514	0.0	0.0
H	-1.560867	0.237785	-1.550768
N	-0.261325	-1.26695	-2.138825
O	-1.138945	-1.602718	-2.934714
O	0.765098	-1.879815	-1.885575
C	-0.512577	-1.185932	0.665106
N	-0.929792	-2.151002	1.192712
C	-0.449886	1.198001	0.689352
N	-0.796613	2.177318	1.240353
F	2.426259	0.0	0.0
