13

C	-0.225692	-0.148305	-1.486195
C	0.0	0.0	0.0
Br	0.234064	-1.910123	-2.120257
H	1.094501	0.0	0.0
H	0.40635	0.560985	-2.017151
N	-1.641437	0.126152	-1.937401
O	-2.553147	-0.227532	-1.198748
O	-1.766612	0.686685	-3.024716
C	-0.540379	-1.054813	0.830313
N	-0.92009	-1.909806	1.542183
C	-0.439753	1.316959	0.422584
N	-0.769714	2.403468	0.727054
F	2.433253	0.0	0.0
