13

C	-0.510702	0.013249	-1.416923
C	0.0	0.0	0.0
Br	-0.039204	-1.56355	-2.398042
H	1.087957	0.0	0.0
H	-0.045961	0.858167	-1.927699
H	-0.35763	0.892441	0.517289
N	-2.007151	0.305081	-1.482976
O	-2.334015	1.308184	-0.853492
O	-2.748488	-0.391238	-2.155098
N	-0.531249	-1.157873	0.770487
O	-1.660173	-1.555054	0.471209
O	0.157746	-1.598235	1.681871
Br	3.472766	0.0	0.0
