13

C	-0.488121	0.018211	-1.423658
C	0.0	0.0	0.0
Br	-0.005253	-1.551061	-2.410647
H	1.087951	0.0	0.0
H	-0.006135	0.863479	-1.919122
H	-0.342633	0.904181	0.50745
N	-1.979435	0.324093	-1.513559
O	-2.708312	-0.341739	-2.228136
O	-2.317447	1.307918	-0.858925
N	-0.558754	-1.133202	0.783806
O	0.046222	-1.46942	1.793542
O	-1.62713	-1.610755	0.399624
Br	3.456928	0.0	0.0
