13

C	-0.610627	0.002556	-1.379309
C	0.0	0.0	0.0
Br	0.238061	1.283836	-2.544059
H	1.085789	0.0	0.0
H	-1.668073	0.252669	-1.361346
H	-0.355267	-0.866454	0.563561
N	-0.531656	-1.363846	-2.013078
O	-1.219912	-1.527111	-3.016786
O	0.176106	-2.209503	-1.476534
N	-0.499423	1.193397	0.755458
O	0.236173	1.656957	1.616532
O	-1.640328	1.596574	0.507858
Br	3.506657	0.0	0.0
