13

C	-0.622844	0.018821	-1.369477
C	0.0	0.0	0.0
Br	-0.089641	1.633736	-2.291112
H	1.087254	0.0	0.0
H	-1.709537	-0.00151	-1.358207
H	-0.318293	0.886136	0.553546
N	-0.225559	-1.163351	-2.220463
O	0.750123	-1.813145	-1.877027
O	-0.938492	-1.366206	-3.200009
N	-0.50642	-1.161975	0.783425
O	-0.13644	-1.243193	1.947332
O	-1.280244	-1.945551	0.225968
Br	3.468038	0.0	0.0
