13

C	-0.512506	-0.007783	-1.409675
C	0.0	0.0	0.0
Br	-0.01612	-1.661245	-2.275029
H	1.090871	0.0	0.0
H	-0.133727	0.813533	-2.010119
H	-0.373951	-0.838828	0.581381
N	-2.017568	0.09205	-1.463335
O	-2.650455	-0.390949	-0.529123
O	-2.496235	0.632329	-2.45488
N	-0.449417	1.235961	0.693146
O	-0.412749	1.23044	1.917822
O	-0.799612	2.190397	-0.00596
Br	3.417691	0.0	0.0
