18

C	-0.360156	0.034608	-1.483955
C	0.0	0.0	0.0
Br	-2.508211	0.432344	-1.563925
H	1.092219	0.0	0.0
C	0.245628	1.266167	-2.124002
H	-0.115606	2.179711	-1.65917
H	1.330816	1.191214	-1.994091
H	-0.004366	1.296657	-3.187491
N	-0.051043	-1.098403	-2.192937
H	-0.422224	-1.950032	-1.800964
H	-0.166421	-1.010544	-3.190482
N	-0.421144	-1.279866	0.720068
O	-0.940241	-2.205304	0.08551
O	-0.184811	-1.318794	1.917737
N	-0.430753	1.109503	0.774513
H	-1.24936	1.563481	0.396256
H	0.329384	1.747569	0.951778
Cl	3.274129	0.0	0.0
