18

C	-0.450668	0.015139	-1.453741
C	0.0	0.0	0.0
Br	-2.672302	-0.091105	-1.276987
H	1.095449	0.0	0.0
C	-0.239791	1.365073	-2.09419
H	-0.764069	2.144094	-1.552231
H	0.836747	1.561184	-2.061935
H	-0.578608	1.341257	-3.132945
N	0.017639	-1.005847	-2.221393
H	-0.245268	-0.981273	-3.193259
H	0.042852	-1.916816	-1.790669
N	-0.394836	-1.312654	0.690331
O	-0.138692	-2.374965	0.122541
O	-0.906163	-1.235271	1.802351
N	-0.443305	1.136311	0.718139
H	0.135961	1.259586	1.537145
H	-1.412367	1.040043	0.993695
Cl	3.261192	0.0	0.0
