18

C	-0.48595	0.085678	-1.466761
C	0.0	0.0	0.0
Br	-0.158868	-1.624274	-2.377513
H	1.090917	0.0	0.0
C	-1.965485	0.403292	-1.599405
H	-2.165511	1.370228	-1.127816
H	-2.219929	0.47144	-2.65705
H	-2.57953	-0.363407	-1.123211
N	0.297127	1.088412	-2.156629
H	0.168416	1.944904	-1.621451
H	1.283373	0.842225	-2.05054
N	-0.512837	-1.237359	0.701599
O	0.211986	-2.222511	0.765386
O	-1.661116	-1.1751	1.166265
N	-0.421274	1.194518	0.686427
H	0.244142	1.394347	1.422925
H	-1.339172	1.058136	1.090464
Cl	3.334077	0.0	0.0
