18

C	-0.581849	-0.012755	-1.435425
C	0.0	0.0	0.0
Br	0.303438	1.477566	-2.35846
H	1.088909	0.0	0.0
C	-0.239876	-1.289115	-2.179135
H	0.825517	-1.506381	-2.088238
H	-0.516519	-1.177362	-3.22718
H	-0.80805	-2.124996	-1.758708
N	-2.002485	0.26363	-1.511818
H	-2.171157	1.157761	-1.060588
H	-2.486208	-0.449587	-0.973066
N	-0.43711	-1.326126	0.613324
O	0.332765	-2.277691	0.580643
O	-1.589843	-1.375167	1.070777
N	-0.501857	1.100763	0.762787
H	0.176264	1.343405	1.47496
H	-1.381529	0.852318	1.198461
Cl	3.345941	0.0	0.0
