18

C	-0.47972	-0.120953	-1.467405
C	0.0	0.0	0.0
Br	-0.239355	-1.976083	-2.089295
H	1.089184	0.0	0.0
C	-1.940172	0.237856	-1.661037
H	-2.185246	0.160378	-2.721273
H	-2.09783	1.270108	-1.337639
H	-2.587921	-0.420903	-1.083386
N	0.350537	0.713847	-2.304397
H	1.329032	0.522957	-2.076531
H	0.180561	1.6707	-2.006873
N	-0.519	-1.125264	0.865746
O	-1.682005	-1.012073	1.275476
O	0.216921	-2.073091	1.104271
N	-0.413734	1.279838	0.515888
H	-1.329246	1.206952	0.943306
H	0.262813	1.580891	1.207009
Cl	3.329396	0.0	0.0
