15
Coordinates from ORCA-job run
  C   0.71045253423428     -0.54997924355995     -0.17717920044322
  C   -0.45698301196344      0.11703903148039      0.55198800223856
  F   1.01063720899138     -1.73811338060035      0.42466577041649
  H   -0.09356000405307      0.29505919355847      1.57316354452790
  C   0.43230073592714     -0.76189952506587     -1.59651757525290
  N   0.16218344989550     -0.94620337191948     -2.72424176263932
  N   1.93314310548389      0.34702384727342     -0.01970181207951
  O   2.34374151740118      0.44223163540597      1.12973866655832
  O   2.37746738568841      0.89489361628132     -1.01776938811450
  N   -1.58814206504988     -0.79025517686948      0.45352567481386
  H   -1.39085555981715     -1.66497908335262      0.92673647811514
  H   -2.39465105881616     -0.36764365843798      0.89761108690923
  N   -0.68039185188300      1.38735214128422     -0.08072826745691
  H   -1.27555635904314      1.27477643109322     -0.89341628767324
  H   -1.09078602699595      2.05969754342871      0.55112507008012
