15
Coordinates from ORCA-job run
  C   0.61132828655606     -0.62269007630616     -0.39831478849132
  C   -0.78430031821096     -0.10620315309941     -0.02351115158150
  F   0.67721917452710     -1.95102577456891     -0.11297128314517
  H   -1.46718185882964     -0.78435194660881     -0.55807409449981
  C   0.95959631060942     -0.39175788270608     -1.79832449980491
  N   1.24323786896129     -0.27970116045331     -2.93231771573093
  N   1.64817995289976      0.08071242308727      0.48228011460162
  O   1.78882030590976      1.27366293654533      0.24931900679411
  O   2.20342232938250     -0.58744109486440      1.33502409677191
  N   -0.98609931587301      1.21001594150272     -0.55355762265210
  H   -1.96919600791817      1.43933120922020     -0.59597299072840
  H   -0.49484143006998      1.89848746391019      0.00277814896364
  N   -0.87390804693167     -0.18488915352988      1.42824875283291
  H   -1.78229493904692      0.15037180679816      1.72472998267360
  H   -0.77298231196555     -1.14252153892691      1.74866404399632
