15
Coordinates from ORCA-job run
  C   0.61750545890904     -0.40811204893333     -0.44358785418616
  C   -0.50519430136538      0.43776695569947      0.15625521634288
  F   0.23148907905772     -1.71319351032855     -0.45948612134901
  H   -0.15537121442098      1.47247238407319      0.14729738337916
  C   1.01288404885080      0.01568692043114     -1.78614348827692
  N   1.35000022611934      0.34938416776384     -2.86020734703039
  N   1.83786022079892     -0.28663020795392      0.46785558951891
  O   2.21357677342706     -1.28984255752180      1.04569288161441
  O   2.30231579375411      0.84309706012068      0.52734440339857
  N   -0.63790372022580      0.02596599636336      1.53930590312210
  H   -1.05620154965536     -0.89407519029468      1.60655084845458
  H   -1.20735092585981      0.68242851774752      2.05658375867876
  N   -1.62608004838925      0.33068607277621     -0.75603936805445
  H   -2.33124037222823      1.02321945808292     -0.54078846139791
  H   -2.04728946877219     -0.58885401802607     -0.70063334421454
