15
Coordinates from ORCA-job run
  C   0.64779716038349     -0.61456464807137     -0.41605148200121
  C   -0.75743966071169     -0.19200869421213      0.07653717916748
  F   0.81381287619909     -1.93862036541482     -0.22102742949909
  H   -1.43439106494125     -0.82771352711929     -0.51612092867550
  C   0.84514775104148     -0.29318329432212     -1.83304165047656
  N   0.91603597249015     -0.07654331570280     -2.98552283696238
  N   1.70831120212556      0.12441539049250      0.39199697055289
  O   2.08170016194904     -0.42174112209393      1.41923657400981
  O   2.04668558098296      1.21726096084879     -0.04491535653046
  N   -0.91059793810435      1.23620146642847     -0.12311410466278
  H   -1.84503319170232      1.51090327640673      0.15278461049877
  H   -0.76716609426888      1.51695388714308     -1.08686191327378
  N   -0.90025772800957     -0.57207948957156      1.45105538453996
  H   -0.59728946350406      0.17501473892708      2.06284311202101
  H   -1.84631556392966     -0.84329526373864      1.67220187129185
