15
Coordinates from ORCA-job run
  C   0.76701307671319     -0.55786647802559     -0.10644644733743
  C   -0.47902440338525     -0.00275061182806      0.58933626459548
  F   1.26490600832759     -1.62474518749087      0.57132489879408
  H   -0.22537686624279      0.03831790251955      1.65462752004156
  C   0.49086739537435     -0.91591886621235     -1.49799821840677
  N   0.18407140653972     -1.23927422141083     -2.58416012766692
  N   1.87145811287614      0.49645635465227     -0.06884344442562
  O   2.00210669763263      1.06433466321356      1.01150080077637
  O   2.56039141521301      0.65005974892818     -1.06857729087338
  N   -1.52586236371557     -0.96977685907767      0.40795401949232
  H   -1.94065582358390     -0.89337165747062     -0.51366173019460
  H   -2.24219691998288     -0.87804770994538      1.11413967096451
  N   -0.74674369120358      1.29776575714401     -0.01277007704461
  H   -0.24545207816968      2.03624242611228      0.46613934176430
  H   -1.73650196639298      1.49857473889151      0.03643481952070
