15
Coordinates from ORCA-job run
  C   0.69125315519397     -0.48249669604826     -0.13717620684302
  C   -0.59126857661533     -0.00624833741732      0.55811616862276
  F   1.05273190914637     -1.71399054607898      0.34032232328708
  H   -0.36002137558719      0.01881696349810      1.62980172240005
  C   0.53680214109592     -0.52390544378812     -1.59097785351816
  N   0.36815375043090     -0.52464070839395     -2.75304051436257
  N   1.86666451222125      0.43448350609773      0.20473113444629
  O   1.85665120162324      0.92570715403165      1.32908653247382
  O   2.74856325309566      0.55131599495021     -0.63800390458549
  N   -1.62156666004435     -0.94719431283438      0.16967677529362
  H   -1.46452616094565     -1.85327894863080      0.59317605633649
  H   -2.51045150163140     -0.58341750103452      0.49171839161310
  N   -1.01754680790675      1.30492319495537      0.15809415512765
  H   -0.40112361044717      2.03348901619773      0.48784875146952
  H   -1.15531522962947      1.36643666449554     -0.84337353176113
