15
Coordinates from ORCA-job run
  C   0.52572727414339     -0.42286444468247     -0.46609687451061
  C   -0.53763458334273      0.52216914814467      0.12511353240803
  F   0.00415657456767     -1.67411932635111     -0.56762568327292
  H   -0.08865575368354      1.51792362282632      0.15457804871814
  C   1.05504614912040      0.01484262018071     -1.75470004300460
  N   1.48979229804180      0.36802232966731     -2.78706242492681
  N   1.68038966582493     -0.48260275795816      0.52812628383008
  O   1.85558094406433     -1.52800552864160      1.13279743093091
  O   2.28421634320443      0.57460995009705      0.66286212456700
  N   -0.92423720644928      0.16494298239473      1.47235646585328
  H   -1.12138430993378     -0.82531431183282      1.55644986478858
  H   -0.23013426889948      0.42804966028340      2.16061044993338
  N   -1.61683142829882      0.52490059516468     -0.83228116893532
  H   -2.30927999333547      1.20132118824876     -0.53502949690755
  H   -2.06575170502384     -0.38387572754147     -0.85009850947158
