15
Coordinates from ORCA-job run
  C   0.59344402347281     -0.62453956162188     -0.42095944152212
  C   -0.78699241178440     -0.09370241259452     -0.01073261683818
  F   0.64374524783441     -1.95881091640863     -0.16137210657464
  H   -1.49005603807177     -0.75057984226320     -0.54579587208161
  C   0.91891343499469     -0.37292402695956     -1.82293662524563
  N   1.18326901787587     -0.24282037587791     -2.95965592815727
  N   1.65716733731993      0.04616401554868      0.45270871614503
  O   1.81621473577803      1.23997628031537      0.23571974856925
  O   2.21355500514168     -0.64524634941372      1.28601936641716
  N   -0.97633443833542      1.23533551081423     -0.51177518776959
  H   -1.95547986810739      1.48348274492593     -0.53048208807412
  H   -0.46034072769866      1.90467783797047      0.04475499972795
  N   -0.85129276898787     -0.19943369165202      1.44063892370240
  H   -1.74953256211655      0.14139827139299      1.76099525459717
  H   -0.75527998731536     -1.16397748417623      1.74087285710421
