15
Coordinates from ORCA-job run
  C   0.75755552882904     -0.59464214827616     -0.10599902338483
  C   -0.46411889758922      0.01927876515151      0.58765138880626
  F   1.09781614624225     -1.77210709291589      0.46665583271364
  H   -0.18923833114335      0.05066790518069      1.64556250035999
  C   0.51112296011726     -0.77200538947600     -1.53987750660899
  N   0.18588862889108     -0.90889650232401     -2.66023284468534
  N   1.93613217629126      0.35277846812549      0.09771318852821
  O   2.38870193077004      0.92837720496822     -0.88106089793930
  O   2.30742030176098      0.44689836970276      1.25896290631422
  N   -1.56179131258519     -0.90822363827923      0.42888996771733
  H   -2.01146289707270     -0.79537814071956     -0.47225813445067
  H   -2.25339367600635     -0.78178780167556      1.15525296976230
  N   -0.57611532725131      1.38152904045630      0.10863863369670
  H   -1.14651557608579      1.93948798809138      0.72962532225433
  H   -0.98300165516801      1.41502297199006     -0.81952430308386
