15
Coordinates from ORCA-job run
  C   0.56085835074597     -0.56136684942887     -0.38014328684356
  C   -0.46264378352883      0.42313590697763      0.20963850296502
  F   0.13170304096440     -1.83124662794680     -0.23945992697190
  H   0.01932892755354      1.40827353392406      0.21217123784609
  C   0.86086299616790     -0.27566248961388     -1.78559711608211
  N   1.04457910451097     -0.01053943789873     -2.91501422222120
  N   1.85508136336726     -0.40609698604760      0.41769327649981
  O   2.23257966440421     -1.36285744539348      1.06841338161824
  O   2.37269744617810      0.69992557890031      0.32702284705168
  N   -0.66058982183952      0.02090467144667      1.57469595035886
  H   -1.05927746939811      0.76708233688335      2.12700940003775
  H   -1.26026372747577     -0.79426084295079      1.61459369232167
  N   -1.66487601551697      0.33404825750307     -0.60717249667831
  H   -1.54289440034647      0.79706759011396     -1.50172163528093
  H   -2.42714567578666      0.79059280353108     -0.12212960462112
