15
Coordinates from ORCA-job run
  C   0.64858269427889     -0.62651386624464     -0.39593635884642
  C   -0.75866292633297     -0.18739407623255      0.07549775065870
  F   0.80510540850301     -1.94677555617417     -0.17038904973438
  H   -1.43230065976454     -0.83869824143287     -0.50393051029487
  C   0.86194659466815     -0.33660951331509     -1.81740069078490
  N   0.94349979442498     -0.13771278209997     -2.97236454936426
  N   1.70613549628465      0.12417505083267      0.40564737767805
  O   2.08001065847441     -0.40876763726577      1.43948986238633
  O   2.04143410718855      1.21296578316763     -0.04367541439434
  N   -0.91075053800609      1.23491754767677     -0.16373393476579
  H   -0.74731766304783      1.49161145458370     -1.13093407591197
  H   -1.85175901831168      1.51311499265112      0.08511463079654
  N   -0.90981159108432     -0.52784570891559      1.45933977265396
  H   -1.85308689992990     -0.80697481762104      1.68184209202419
  H   -0.62202545734530      0.24150737038979      2.05043309789916
