15
Coordinates from ORCA-job run
  C   0.69035138630063     -0.55744229759344     -0.22789141691496
  C   -0.47354347802998      0.06240282102160      0.54689751963063
  F   0.90890521736960     -1.83119707600909      0.21259251215137
  H   -0.14650726455147      0.07218802260256      1.59539271198021
  C   0.46190248852394     -0.55785013409429     -1.67182887807265
  N   0.23158073188483     -0.57283171617343     -2.82305893517287
  N   1.94607200605158      0.24483584602112      0.09552301742617
  O   2.45511856443791      0.90272405316974     -0.79982570480382
  O   2.31297681998257      0.15837058353015      1.26024966132318
  N   -1.64266909048137     -0.75822834719077      0.27796177249892
  H   -2.44653812936106     -0.35798115905251      0.74676115638714
  H   -1.51017392610353     -1.69978264756882      0.62980226003781
  N   -0.60591906193084      1.42061772128800      0.09818542712499
  H   -1.16681986633486      1.45869868277637     -0.74525044212626
  H   -1.01573639775797      2.01447564727280      0.80448933853014
