15
Coordinates from ORCA-job run
  C   0.77152803943168     -0.57846412004813     -0.09464827398608
  C   -0.48263836318614     -0.00119946484044      0.57213026445737
  F   1.11404716308143     -1.76249109586583      0.46266781263538
  H   -0.24145469690952      0.01383021446636      1.63856986062779
  C   0.57437481574535     -0.72795367620347     -1.53938123469083
  N   0.28618678989995     -0.84777415896441     -2.67178761769056
  N   1.92564656971920      0.38402730021360      0.16757725176440
  O   2.39898267189559      0.98947227003933     -0.78304489836958
  O   2.25709422942484      0.45998335652954      1.34221200605274
  N   -1.55735030147054     -0.94439286906142      0.35969184374214
  H   -1.98708325253827     -0.81491146128139     -0.54877145871413
  H   -2.26841936299505     -0.85454499858329      1.07241376886061
  N   -0.60440059078056      1.36826512012295      0.11672216126389
  H   -0.97877435563648      1.41347935438309     -0.82452692201715
  H   -1.20673935568149      1.90267422909351      0.72817543606401
