15
Coordinates from ORCA-job run
  C   0.57169275341176     -0.63840750670020     -0.42980887111832
  C   -0.78964611465774     -0.06467765503377     -0.01408628558218
  F   0.57298250516624     -1.97782626685852     -0.19243399869790
  H   -1.51457112916154     -0.68717916991858     -0.56086872552742
  C   0.91015848312515     -0.37548269851131     -1.82658640814040
  N   1.18060619082224     -0.23568426242266     -2.96067816461435
  N   1.65679795628672     -0.02133187689397      0.45732085850356
  O   1.85893317358126      1.16944577506094      0.26156937994059
  O   2.18733202779100     -0.74661210520298      1.27868857069728
  N   -0.92948283872175      1.27847441089726     -0.49392048989458
  H   -1.89966976452565      1.55985014428708     -0.51439772505005
  H   -0.39602145779537      1.91966500005211      0.07973626683685
  N   -0.86163522352023     -0.19060571704033      1.43525724137071
  H   -0.79649968206878     -1.16222174893949      1.72071592568856
  H   -1.74997687973331      0.17259367722440      1.75849242558766
