15
Coordinates from ORCA-job run
  C   0.69217403167183     -0.55626796802982     -0.22649529737534
  C   -0.47487703454950      0.06082807964743      0.54609074714204
  F   0.91107392532530     -1.83046170080449      0.21247299058637
  H   -0.15020334731067      0.07019236492147      1.59535583845644
  C   0.46683569477005     -0.55411818806024     -1.67093872711598
  N   0.23781025261402     -0.56519667006580     -2.82243516155522
  N   1.94593186174885      0.24676335280000      0.10136901374996
  O   2.45870833759698      0.90370503322670     -0.79253178041368
  O   2.30832967622888      0.16132702489067      1.26749727609513
  N   -1.64153031272755     -0.76179021229855      0.27328522723249
  H   -2.44878927377174     -0.36110314490751      0.73552625465886
  H   -1.51038615921871     -1.70270568153131      0.62730188105008
  N   -0.60842151270252      1.41905423532087      0.09847063752951
  H   -1.16522343176710      1.45775745851196     -0.74764330606247
  H   -1.02143270790811      2.01201601637862      0.80367440602181
