15
Coordinates from ORCA-job run
  C   0.62399532302060     -0.48088842721981     -0.39012301042422
  C   -0.50912260258658      0.36285471265021      0.21674181928551
  F   0.32902413319244     -1.79406138595722     -0.31507831124821
  H   -0.13387602358137      1.39180186132190      0.27342611525667
  C   0.92032999739505     -0.10267874693393     -1.77424491498556
  N   1.09902425960744      0.22650576871106     -2.88756983636731
  N   1.87858424595130     -0.22745863973183      0.44500914284663
  O   2.27850277801485      0.92949356068119      0.41409972380375
  O   2.34300042662563     -1.16814269075957      1.06198338345489
  N   -0.69032769524954     -0.11956413239737      1.55773642560794
  H   -1.17811183877888      0.55416686279940      2.13128492865608
  H   -1.19870829786647     -0.99535718565732      1.54808939513839
  N   -1.67893465736344      0.18600185254510     -0.63257813204713
  H   -1.58953243699538      0.70167101553742     -1.50175050013805
  H   -2.49484761138564      0.53565557441077     -0.14602622883937
