15
Coordinates from ORCA-job run
  C   0.59074108829774     -0.67424900147112     -0.44005916517362
  C   -0.80056526440220     -0.16696053496418     -0.02309575987910
  F   0.64176534454942     -2.01820869856573     -0.31829015990997
  H   -1.47786848826115     -0.88324970445514     -0.49905136957640
  C   0.99140099356044     -0.28259714037826     -1.79449391165988
  N   1.35705440968718     -0.00794717355605     -2.87627888276146
  N   1.63547229871550     -0.09723080725593      0.52210849900135
  O   1.55844246665661      1.11668540751526      0.68900417391107
  O   2.43326384552182     -0.86536727108501      1.02454830278528
  N   -1.05197735182155      1.12779414177046     -0.60771287989656
  H   -0.47477894830196      1.83791243496260     -0.17573330025891
  H   -2.02659389108102      1.37849582351589     -0.50760475675433
  N   -0.90077975648685     -0.35458849830442      1.41484804846408
  H   -0.63315217971754      0.49068096555700      1.90423655681928
  H   -1.84242456691646     -0.60116994328537      1.68557460488917
