15
Coordinates from ORCA-job run
  C   0.74446684934311     -0.56769126393922     -0.05648750836022
  C   -0.56135669986331     -0.04767041341316      0.59320091304782
  F   1.17501300415556     -1.68682208056654      0.56407706820735
  H   -0.34433716245521     -0.05896382818370      1.66627119433885
  C   0.57735583326381     -0.79924965289029     -1.49174898001820
  N   0.33368599863417     -0.98794826378378     -2.62532733037183
  N   1.80737291314082      0.50380692823832      0.15667162512877
  O   2.02205198500000      1.27695446937070     -0.76961263659054
  O   2.28675958522750      0.54090664817902      1.28191381525559
  N   -1.56385397904743     -1.04494818691126      0.31369377088726
  H   -2.33747572965353     -0.92150702700802      0.95493134451004
  H   -1.92812850018505     -0.92228197545732     -0.62561351051559
  N   -0.92605077965215      1.29689078565658      0.21655530408343
  H   -0.96842222924966      1.41871473580675     -0.78853098609027
  H   -0.31608108865862      2.00080912490190      0.61100591648754
