15
Coordinates from ORCA-job run
  C   0.51419102806684     -0.39862556802285     -0.38795320008639
  C   -0.61143750285058      0.51384130560196      0.19704212447811
  F   0.06206085106398     -1.67814018096336     -0.44418009542605
  H   -0.19438981909034      1.52328137399425      0.24412852418836
  C   0.97476032032580      0.03255415329086     -1.70531711748993
  N   1.26844799833530      0.41677802781980     -2.77630854502978
  N   1.68934446921209     -0.35375858575861      0.57139997535697
  O   2.25921269252233      0.73078997069948      0.61699663109509
  O   1.90597258779357     -1.34377933231253      1.25243560027873
  N   -0.96491725941408      0.08605069330813      1.52389733871310
  H   -0.33636930909980      0.44815475634059      2.22618736233550
  H   -1.01385652805698     -0.92192379111223      1.60090378265297
  N   -1.77334774030133      0.52402987512802     -0.65437190413339
  H   -1.55182840751447      0.79975950421160     -1.60314705891506
  H   -2.22584338099236     -0.38101220222511     -0.66271341801822
