15
Coordinates from ORCA-job run
  C   0.57268432561354     -0.52973225741923     -0.49440481045534
  C   -0.82004641754016     -0.17064786693227      0.09070609072140
  F   0.73035757016253     -1.87926154564315     -0.46312997557088
  H   -1.51097615074700     -0.79915594505670     -0.49428972383044
  C   0.74314824534421     -0.02974779993952     -1.85722717842543
  N   0.80550747181327      0.36338259670915     -2.96254619337443
  N   1.64989098858802      0.08524011474821      0.38856840076108
  O   1.71760748558798      1.30727786008287      0.32680177689545
  O   2.30134966485831     -0.66678579027582      1.08940133410071
  N   -1.23705108343070      1.19259494376958     -0.04690779983548
  H   -0.54654482138158      1.81850594281031      0.34892867975878
  H   -1.40963249221567      1.44315619691758     -1.01138203198215
  N   -0.75270857551645     -0.47828701559749      1.50102378226037
  H   -1.62235905531211     -0.18586622918719      1.92829065979477
  H   -0.62022715582419     -1.46967320498634      1.65916698918158
