15
Coordinates from ORCA-job run
  C   0.70697609835527     -0.51725694543011     -0.08242082898987
  C   -0.55170735931482      0.08320594691195      0.56896112499479
  F   0.91158704052323     -1.77302605590017      0.40683905370520
  H   -0.32716717305200      0.08455328792373      1.64013028364845
  C   0.58895888110566     -0.56162469270256     -1.54019801969013
  N   0.35695444158998     -0.60292184093539     -2.69119127573927
  N   1.91026277125666      0.32248446514113      0.31559917295474
  O   2.19460110217552      0.26434937481511      1.50417646379228
  O   2.45651638138943      0.98658302294640     -0.55396238185179
  N   -1.73665779143558     -0.71583096733694      0.36015591022581
  H   -1.95905052934615     -0.80119003578145     -0.62576582717243
  H   -1.63631033203068     -1.64273233109212      0.75615070814423
  N   -0.64221628890016      1.44456235053425      0.11336187556640
  H   -0.95584029919572      1.48535558641256     -0.85083421733403
  H   -1.31690694312063      1.94448883449361      0.67799795774563
