15
Coordinates from ORCA-job run
  C   0.58998896722856     -0.35767167565585     -0.46187768151659
  C   -0.59025356483460      0.38011762070158      0.22263609281727
  F   0.21718786270996     -1.59287106078534     -0.85784322329117
  H   -0.27750809305506      1.42426613643265      0.34639712977464
  C   1.10054146900160      0.40415429197106     -1.60444963421149
  N   1.43980923548450      1.04873036892347     -2.52613457373654
  N   1.72153984683713     -0.50318016015287      0.54809521685325
  O   2.10878067620215      0.56380985028301      1.01478546020140
  O   2.10620759915373     -1.62554290169501      0.82289610335530
  N   -0.86674795969268     -0.32070914121645      1.45836100747212
  H   -1.82830921329127     -0.13016412949998      1.70911526481585
  H   -0.26976668941844      0.00594400635577      2.20784057753313
  N   -1.77642150434102      0.34952528851046     -0.59112797583137
  H   -1.69981473992029      0.95145616337511     -1.40028313459576
  H   -1.97623389206427     -0.59786465754761     -0.88841062964005
