15
Coordinates from ORCA-job run
  C   0.58465463104546     -0.45543358705719     -0.38193627240302
  C   -0.59014381860643      0.39542421145634      0.17667198136101
  F   0.28949589996896     -1.76878232734293     -0.31291513431497
  H   -0.21744995176916      1.42568820740565      0.25662078608565
  C   0.95346926650493     -0.07810184419111     -1.74523035286344
  N   1.18132907874730      0.25727735178747     -2.84791068326721
  N   1.78179656251886     -0.19425136884090      0.52458353430789
  O   2.09791556404411     -1.07929357973789      1.30482879498446
  O   2.26543839018272      0.92742708936214      0.42574367781015
  N   -1.00637755867258     -0.04116552421707      1.48018728764058
  H   -0.34361192802428      0.20212943129460      2.20354538852419
  H   -1.16590939600593     -1.04143221707850      1.48337376661901
  N   -1.69837887397230      0.20371416343809     -0.73199058993391
  H   -1.58971633067549      0.74935492485535     -1.57804451892963
  H   -2.54151153528617      0.49844506886597     -0.25652766562078
