15
Coordinates from ORCA-job run
  C   0.69049966305583     -0.45983582188765     -0.00707158960014
  C   -0.70168575129549      0.22351393053202     -0.02419208457270
  F   0.98100174565474     -0.92406012046063      1.22636388279118
  H   -0.94720633482191      0.40734098585847     -1.07744701210325
  C   0.75850479453297     -1.55010379811803     -0.98352357366860
  N   0.73904662294523     -2.43094670114205     -1.76034652127795
  N   1.74290193939846      0.57466712343546     -0.38639793471256
  O   2.63309146228764      0.80866803881052      0.41115573500376
  O   1.54976926976494      1.09986160752147     -1.47888496623086
  N   -0.59862910081857      1.41397007615791      0.79220616342149
  H   -1.53072173819226      1.64743079985606      1.11000666400141
  H   -0.23574813123789      2.19522024224377      0.26001098531478
  N   -1.71538619407775     -0.62668774370851      0.54130690039386
  H   -1.41888667614208     -0.97805672124001      1.44381656888269
  H   -1.94655157105387     -1.40098189785879     -0.06700321764311
