15
Coordinates from ORCA-job run
  C   0.66258632728034     -0.52227454502349     -0.03224192064902
  C   -0.63174341105105      0.08714075948558      0.60055399608871
  F   0.91554200802843     -1.73087510671293      0.53858551288910
  H   -0.39308643025524      0.16682262378777      1.66815107451175
  C   0.53445758481660     -0.65937378632216     -1.48032789779950
  N   0.31282484292975     -0.76808905338628     -2.62909061625810
  N   1.82919984804220      0.38914268275926      0.29413210483146
  O   2.35273950628666      0.21436994771285      1.38572569935415
  O   2.07296326178144      1.27575459751788     -0.51837205509235
  N   -1.74596382691265     -0.80800582980336      0.43720120208530
  H   -1.50208504980750     -1.76115615591909      0.67192516874406
  H   -2.11630665711562     -0.77240593719177     -0.50459112936215
  N   -0.95886133470514      1.38553195909506      0.09108831405340
  H   -0.31515231821882      2.10033790374617      0.39718272911912
  H   -1.01711435109940      1.40207994025452     -0.91992218251594
