15
Coordinates from ORCA-job run
  C   0.71377530158703     -0.53879801693186     -0.19772787289671
  C   -0.49651381619094      0.05184134833882      0.52723769726521
  F   0.95003405816829     -1.80429981552505      0.25762458173892
  H   -0.21063628856015      0.07728050414459      1.58746510051173
  C   0.54304926348789     -0.55118918567485     -1.64966701673438
  N   0.35968822428045     -0.57395787543324     -2.80915565177045
  N   1.93308051294204      0.29939201635442      0.17081538594124
  O   2.25608776319276      0.22732040478546      1.34962094563882
  O   2.45821630782943      0.96856036369749     -0.70672425142493
  N   -1.63071411323628     -0.80324788839627      0.21927866265514
  H   -2.46191854620214     -0.42623696838596      0.65898308414368
  H   -1.48307964025726     -1.74006743983194      0.57787523528393
  N   -0.64995293312900      1.40296597775105      0.06413808564850
  H   -1.10039020109646      1.99031658735493      0.75046454770246
  H   -1.18072589281565      1.42011998775241     -0.79922853370315
