15
Coordinates from ORCA-job run
  C   0.75823388214525     -0.58829844049283     -0.13353557844802
  C   -0.46650339478472     -0.01113752943494      0.58597876084587
  F   1.09504207326407     -1.79398403119890      0.37901191783523
  H   -0.19683073445024     -0.03619222454155      1.64545587749376
  C   0.51859824976500     -0.69114287171524     -1.57586278742550
  N   0.20044208925420     -0.76761642015498     -2.70399805225096
  N   1.93596916185965      0.34666703377578      0.12381123690644
  O   2.38802146949462      0.97724257283500     -0.82083216685798
  O   2.30679590517257      0.37632832295326      1.28866851964168
  N   -1.56370825876023     -0.92826821662244      0.37204386978912
  H   -2.01646334598192     -0.75897932372769     -0.51857791483081
  H   -2.25264392265945     -0.85148934062916      1.10765915744915
  N   -0.57644107104878      1.37475091544493      0.18002315909769
  H   -1.16004742730718      1.89505458285876      0.82138225398574
  H   -0.96946467596286      1.45706497064998     -0.75122825323138
