15
Coordinates from ORCA-job run
  C   0.60012537553456     -0.44279205314522     -0.43543568903121
  C   -0.49164248506862      0.45575070366279      0.14508562856628
  F   0.18458381743938     -1.73785741141879     -0.38420466223076
  H   -0.11901814194381      1.48051678907798      0.08168672777041
  C   0.97834086692950     -0.08988580137765     -1.80326295265301
  N   1.30003239234059      0.18604625198148     -2.89830074826017
  N   1.83998293888148     -0.30801577984674      0.44651898004683
  O   2.33223985588859      0.81165139774268      0.44255723174623
  O   2.20129709850888     -1.29019059957768      1.06809734919121
  N   -0.60692813329886      0.11124085735062      1.54795360761604
  H   -1.15090664405782      0.80433619684260      2.04409931281569
  H   -1.04576575722150     -0.79407410323474      1.66556071982979
  N   -1.63197016911426      0.33281135314488     -0.74054532505560
  H   -2.31552064140805      1.05313467871609     -0.54824575215434
  H   -2.07485037341007     -0.57167247991830     -0.63256442819740
