16

C	0.0	0.0	0.0
C	-0.415077	0.541903	-1.443932
F	1.386963	0.0	0.0
H	0.562271	0.887339	-1.802606
C	-0.414455	0.934147	1.057001
N	-0.556437	1.759648	1.880925
C	-0.422745	-1.372092	0.311598
N	-0.588132	-2.513777	0.536152
N	-1.320637	1.657241	-1.506263
H	-0.994552	2.423033	-0.928491
H	-2.235549	1.364584	-1.154912
C	-0.908771	-0.593312	-2.329862
H	-1.078778	-0.195372	-3.332412
H	-1.851922	-0.975369	-1.935959
H	-0.173558	-1.399529	-2.38806
Br	-3.753654	0.0	0.0
