16

C	0.0	0.0	0.0
C	-0.416474	0.067539	-1.536158
F	1.383516	0.0	0.0
H	0.508091	0.475551	-1.965756
C	-0.412501	1.228816	0.696506
N	-0.568241	2.270595	1.216348
C	-0.444348	-1.198437	0.721809
N	-0.662899	-2.217259	1.264418
N	-1.497407	0.929831	-1.913804
H	-2.372551	0.638137	-1.467185
H	-1.322564	1.888013	-1.632009
C	-0.651713	-1.336898	-2.072522
H	-1.5776	-1.742784	-1.656571
H	-0.75548	-1.277776	-3.157466
H	0.179328	-2.005563	-1.826301
Br	-4.014262	0.0	0.0
