19

C	-0.266064	0.0388	-1.500506
C	0.0	0.0	0.0
Br	0.244126	-1.678501	-2.270853
H	1.091729	0.0	0.0
N	-1.716083	0.342423	-1.883344
O	-2.093684	1.461504	-1.529625
O	-2.401948	-0.464245	-2.493706
C	0.649157	1.09561	-2.105599
H	0.639412	1.036342	-3.194988
H	0.317227	2.088254	-1.796307
H	1.64526	0.88556	-1.692357
N	-0.603031	-1.191573	0.641693
O	0.011207	-1.721443	1.563656
O	-1.726822	-1.53632	0.25933
C	-0.446914	1.201628	0.820532
H	-1.532309	1.316592	0.860979
H	-0.048127	1.058574	1.827903
H	-0.001716	2.111298	0.419127
F	2.600921	0.0	0.0
