19

C	-0.287489	0.143067	-1.499278
C	0.0	0.0	0.0
Br	-0.175098	-1.51598	-2.526978
H	1.091936	0.0	0.0
N	-1.726821	0.613318	-1.693488
O	-2.610157	-0.109556	-1.243801
O	-1.909271	1.709164	-2.222228
C	0.722035	1.109468	-2.088312
H	0.653727	1.138638	-3.175347
H	1.699817	0.761491	-1.728968
H	0.547282	2.11382	-1.701626
N	-0.523907	-1.238986	0.627673
O	-1.459283	-1.143553	1.431535
O	0.03582	-2.297658	0.349534
C	-0.483673	1.214098	0.774021
H	0.004153	2.10764	0.383363
H	-0.171098	1.101956	1.813064
H	-1.568506	1.339145	0.756307
F	2.594527	0.0	0.0
