19

C	-0.650316	0.039136	-1.383698
C	0.0	0.0	0.0
Br	0.305276	1.339529	-2.482676
H	1.096596	0.0	0.0
N	-0.508651	-1.327159	-2.063431
O	-1.45539	-2.091969	-1.873027
O	0.497946	-1.588173	-2.701505
C	-2.125014	0.406423	-1.378818
H	-2.659846	-0.239051	-0.681205
H	-2.554229	0.296211	-2.376062
H	-2.234278	1.443116	-1.064223
N	-0.439425	-1.251433	0.688321
O	-1.352692	-1.196266	1.522782
O	0.156827	-2.286887	0.394065
C	-0.377176	1.202086	0.847167
H	-0.055904	2.105833	0.326476
H	0.205771	1.139807	1.767941
H	-1.435564	1.267094	1.103099
F	2.528643	0.0	0.0
