19

C	-0.25488	-0.064462	-1.507354
C	0.0	0.0	0.0
Br	0.159777	-1.861164	-2.141082
H	1.094355	0.0	0.0
N	-1.694838	0.271095	-1.902412
O	-1.98393	1.461822	-1.763515
O	-2.46706	-0.594257	-2.291821
C	0.716214	0.89308	-2.182377
H	0.438666	1.919792	-1.94365
H	0.706311	0.759413	-3.265531
H	1.698155	0.664032	-1.743066
N	-0.612268	-1.156199	0.700307
O	0.098061	-1.860546	1.411285
O	-1.830598	-1.307321	0.5582
C	-0.482553	1.256145	0.705879
H	-1.567094	1.37489	0.681144
H	-0.143804	1.193758	1.743905
H	-0.009734	2.131766	0.26233
F	2.615204	0.0	0.0
