19

C	-0.45378	-0.001328	-1.460874
C	0.0	0.0	0.0
Br	0.425095	-1.442456	-2.41804
H	1.091465	0.0	0.0
N	-1.976271	-0.221595	-1.535796
O	-2.422764	-1.322326	-1.821741
O	-2.645835	0.779658	-1.280866
C	-0.111744	1.303519	-2.154794
H	-0.379365	1.243158	-3.211568
H	0.96396	1.467975	-2.068027
H	-0.654441	2.130781	-1.702046
N	-0.393448	-1.309568	0.629412
O	0.504406	-2.106535	0.887008
O	-1.578497	-1.437044	0.956237
C	-0.547235	1.125565	0.858796
H	-1.635941	1.134027	0.890759
H	-0.161982	0.997123	1.872902
H	-0.186591	2.085779	0.489275
F	2.51388	0.0	0.0
