16

C	-0.323164	-0.00946	-1.481961
C	0.0	0.0	0.0
Br	-2.506301	0.331688	-1.679496
H	1.097815	0.0	0.0
H	-0.021384	0.909492	-1.978041
N	0.053204	-1.121283	-2.177487
H	-0.073349	-1.095749	-3.175267
H	-0.172	-2.006836	-1.759504
C	-0.494157	-1.23425	0.737235
H	-0.199447	-1.132656	1.781752
H	-0.034608	-2.151748	0.357843
H	-1.5836	-1.320338	0.681599
N	-0.420299	1.208667	0.693292
H	0.204665	1.965859	0.445819
H	-1.363014	1.456295	0.414886
Cl	3.463085	0.0	0.0
