16

C	-0.558899	0.048574	-1.418895
C	0.0	0.0	0.0
Br	0.113781	1.672547	-2.337464
H	1.09287	0.0	0.0
H	-0.141286	-0.769462	-2.009521
N	-1.998411	0.046799	-1.503024
H	-2.334132	0.592118	-0.711852
H	-2.332839	-0.906121	-1.402702
C	-0.441719	-1.301672	0.661954
H	0.066018	-1.405463	1.62236
H	-0.157768	-2.165229	0.055668
H	-1.520129	-1.316578	0.834127
N	-0.562522	1.127519	0.76579
H	-0.291997	0.993604	1.736447
H	-0.069317	1.963503	0.464483
Cl	3.543565	0.0	0.0
