16

C	-0.2641	-0.008057	-1.498417
C	0.0	0.0	0.0
Br	-2.216178	-0.169821	-1.878119
H	1.099877	0.0	0.0
H	-0.012572	0.982205	-1.877459
N	0.44362	-1.002476	-2.264561
H	1.435258	-0.812538	-2.116079
H	0.261312	-1.919587	-1.872629
C	-0.468597	-1.243105	0.745008
H	-1.561335	-1.290293	0.789111
H	-0.099867	-2.164005	0.284643
H	-0.074155	-1.213999	1.763977
N	-0.465319	1.256516	0.5781
H	0.134761	1.493505	1.358585
H	-1.411044	1.145699	0.926853
Cl	3.4493	0.0	0.0
