16

C	-0.463553	-0.006065	-1.467097
C	0.0	0.0	0.0
Br	0.03387	1.685616	-2.337254
H	1.095504	0.0	0.0
H	0.103109	-0.766315	-2.009678
N	-1.875684	-0.21932	-1.724904
H	-2.424555	0.433165	-1.175154
H	-2.114455	-1.159074	-1.427572
C	-0.446579	-1.304262	0.65814
H	-0.174283	-2.174905	0.052761
H	-1.527788	-1.319303	0.837936
H	0.058831	-1.387765	1.620234
N	-0.457298	1.118775	0.81357
H	-1.435656	1.322727	0.630647
H	0.081519	1.940611	0.567226
Cl	3.523931	0.0	0.0
