9
Coordinates from ORCA-job run
  C   0.48423830529164     -0.28524470963031      0.16338482009649
  C   -1.01201825260037     -0.20852263703356     -0.10092425721427
  Cl  1.28211169253533     -1.34040396247295     -1.04355497494747
  H   -1.20133050818144      0.21333346608894     -1.08802167652280
  H   0.68241209578026     -0.73657021972778      1.13726435750178
  H   -1.44558906971943     -1.20785141606887     -0.05406637088927
  H   -1.48758754064917      0.42227215270082      0.65328059630181
  C   1.10713648366770      1.03667212208217      0.13684293843821
  N   1.59062679387549      2.10631520406154      0.14379456723553
