15

C	-0.623738	-0.05535	-1.368239
C	0.0	0.0	0.0
Cl	-2.371306	-0.18279	-1.286558
H	1.087936	0.0	0.0
H	-0.331261	-0.862105	0.573867
N	-0.201733	1.10616	-2.2794
O	1.005799	1.152458	-2.445747
O	-1.061296	1.821507	-2.759486
N	-0.12496	-1.298647	-2.114882
O	-0.294321	-1.28673	-3.32561
O	0.346547	-2.199478	-1.437129
N	-0.459953	1.200465	0.735487
O	-0.548993	2.254109	0.107004
O	-0.681301	1.065361	1.935528
Br	3.379516	0.0	0.0
