15

C	-0.505141	0.040184	-1.420534
C	0.0	0.0	0.0
Cl	0.418671	1.044973	-2.477645
H	1.088564	0.0	0.0
H	-0.372743	-0.871431	0.528007
N	-0.528221	-1.387267	-2.005026
O	-0.0619	-2.289789	-1.327018
O	-1.036674	-1.484566	-3.113691
N	-2.006788	0.396586	-1.461225
O	-2.414833	1.214963	-2.262623
O	-2.669781	-0.254866	-0.659235
N	-0.449153	1.189007	0.764959
O	-0.401927	1.085084	1.984642
O	-0.799578	2.193556	0.145597
Br	3.382604	0.0	0.0
