15

C	-0.472328	-0.005798	-1.42883
C	0.0	0.0	0.0
Cl	0.001431	1.504397	-2.173747
H	1.088081	0.0	0.0
H	-0.348083	0.91319	0.482381
N	0.110587	-1.168129	-2.23323
O	0.113508	-1.05439	-3.449173
O	0.488106	-2.127212	-1.574219
N	-2.002121	-0.112367	-1.546092
O	-2.468346	-0.9374	-2.314501
O	-2.615444	0.684166	-0.852155
N	-0.528179	-1.119166	0.824745
O	-1.457774	-1.79135	0.377721
O	-0.02344	-1.246803	1.932134
Br	3.384124	0.0	0.0
