15

C	-0.546695	0.003737	-1.403177
C	0.0	0.0	0.0
Cl	0.178243	1.322663	-2.280847
H	1.090762	0.0	0.0
H	-0.339157	0.900153	0.511297
N	-0.280637	-1.303697	-2.170588
O	-1.259532	-1.962479	-2.49023
O	0.890531	-1.546781	-2.378067
N	-2.071506	0.164369	-1.424048
O	-2.649086	-0.157205	-0.391191
O	-2.585889	0.560584	-2.457693
N	-0.453156	-1.148319	0.822343
O	-0.700609	-0.917802	2.001027
O	-0.50272	-2.249493	0.279457
Br	3.392163	0.0	0.0
