15

C	0.0	0.0	0.0
C	-0.517976	0.229461	-1.420263
Br	1.967709	0.0	0.0
H	-0.198163	-0.581124	-2.080767
H	-1.619171	0.186121	-1.263376
N	-0.525704	1.058074	0.818423
H	-0.303986	0.853256	1.788597
H	-1.552085	0.90657	0.689844
C	-0.428985	-1.395625	0.453354
H	-0.073951	-1.580738	1.471292
H	-0.03603	-2.180197	-0.200436
H	-1.523986	-1.356752	0.425491
C	-0.121016	1.504943	-2.000145
N	0.165231	2.516706	-2.523268
F	-2.89424	0.0	0.0
