15

C	0.0	0.0	0.0
C	-0.516826	0.178834	-1.42808
Br	1.967271	0.0	0.0
H	-0.195139	-0.654115	-2.059192
H	-1.618242	0.1408	-1.270561
N	-0.525968	1.087184	0.779224
H	-1.552629	0.929021	0.657681
H	-0.30193	0.919682	1.755921
C	-0.430533	-1.377436	0.502999
H	-0.0386	-2.185528	-0.122117
H	-0.075506	-1.525966	1.526793
H	-1.52559	-1.337541	0.472853
C	-0.119679	1.433271	-2.052131
N	0.168403	2.42591	-2.609513
F	-2.893923	0.0	0.0
