15

C	0.0	0.0	0.0
C	-0.679686	-0.003854	-1.346501
Br	2.039198	0.0	0.0
H	-1.815261	0.039577	-0.929499
H	-0.499669	-0.939427	-1.882648
N	-0.363594	1.186543	0.695147
H	0.102178	1.241605	1.591809
H	-0.158917	2.016185	0.148734
C	-0.443246	-1.213467	0.791713
H	-0.10418	-2.136842	0.316888
H	-1.538289	-1.125961	0.78368
H	-0.048357	-1.176653	1.810584
C	-0.345293	1.13311	-2.174533
N	-0.102778	2.083137	-2.826289
F	-2.942851	0.0	0.0
