15

C	0.0	0.0	0.0
C	-0.507845	-0.219775	-1.436027
Br	1.972334	0.0	0.0
H	-0.16437	-1.173751	-1.846301
H	-1.608389	-0.231523	-1.258105
N	-0.516858	1.200809	0.594955
H	-0.316497	1.987503	-0.016657
H	-1.542374	1.011094	0.546722
C	-0.440805	-1.184225	0.849234
H	-0.092819	-1.03842	1.872948
H	-0.040257	-2.122614	0.458628
H	-1.535129	-1.164502	0.80426
C	-0.148152	0.858888	-2.343399
N	0.129203	1.739881	-3.069853
F	-2.886996	0.0	0.0
