15

C	0.0	0.0	0.0
C	-0.255788	0.056752	-1.537799
Br	1.975181	0.0	0.0
H	0.140924	1.015153	-1.893606
H	0.351341	-0.716255	-2.019357
N	-0.560996	1.06747	0.75082
H	-1.591889	0.833998	0.642152
H	-0.385405	1.942954	0.265023
C	-0.444366	-1.327729	0.588788
H	-1.538242	-1.300521	0.523199
H	-0.121383	-1.384301	1.630372
H	-0.023506	-2.168172	0.031255
C	-1.608262	-0.084826	-2.104044
N	-2.444461	-0.207816	-2.923053
F	-2.811216	0.0	0.0
