15

C	0.0	0.0	0.0
C	-0.508445	-0.186828	-1.439844
Br	1.972026	0.0	0.0
H	-0.163126	-1.129897	-1.873074
H	-1.60947	-0.205309	-1.260942
N	-0.516074	1.187419	0.622416
H	-1.542471	0.999385	0.568391
H	-0.313765	1.987035	0.028769
C	-0.440422	-1.203477	0.821278
H	-1.534845	-1.182532	0.778172
H	-0.091406	-1.081705	1.847396
H	-0.039819	-2.131927	0.409011
C	-0.150427	0.913379	-2.320864
N	0.130849	1.813006	-3.021842
F	-2.886104	0.0	0.0
