15
Coordinates from ORCA-job run
  C   0.37375034530937      0.19619036126223     -0.24949263397625
  C   -0.93733281332667     -0.57836095292976     -0.17658704662899
  Cl  1.22013266106557     -0.20360973696680     -1.78160630504078
  H   -1.43379876415359     -0.23347547197448      0.74933947387327
  H   -1.56865557965762     -0.27644989864592     -1.01712762196621
  C   0.12359551796183      1.69802314166273     -0.24965140352829
  H   -0.49856692813716      1.99557339052518     -1.09605141361047
  H   -0.38359102708154      1.98558622864808      0.67687019572191
  H   1.07064993614326      2.23758210297394     -0.31088680843752
  N   1.23198394875733     -0.26349161501140      0.83681847525356
  H   0.88276276069373      0.12269555254762      1.70901376047174
  H   2.17565620395644      0.08054043336470      0.70133846497127
  N   -0.70593049245232     -2.00952938874005     -0.23418232255580
  H   0.00594739949042     -2.24237346082042      0.44747133729829
  H   -1.55560316856906     -2.50790068589566     -0.00426615184572
