15
Coordinates from ORCA-job run
  C   0.52089003178755      0.23574174232390     -0.22077734123071
  C   -0.32741973323954     -0.97198048078623      0.18096887916246
  Cl  0.75324904656337      0.12319511470592     -2.01858476146669
  H   0.24803749015115     -1.87712919167881     -0.07055443279394
  H   -0.41989337132021     -0.93420239052400      1.27261627606725
  C   -0.16146040039259      1.55051879395375      0.09016831529562
  H   -0.31348107142249      1.63089298744356      1.17204157265819
  H   -1.13453796135897      1.59655092175114     -0.39295042026340
  H   0.46760834836206      2.37641426773150     -0.24211584188193
  N   1.84175956181593      0.22323982764320      0.36327517010040
  H   1.77505148313017      0.43275983381232      1.35288049060261
  H   2.27576583316910     -0.68597063504091      0.24901935252164
  N   -1.66470670086794     -0.92957257768861     -0.39205035221283
  H   -1.61230803363699     -1.13454906226559     -1.38226100553917
  H   -2.24655452274059     -1.63690915138115      0.03832409898050
