15
Coordinates from ORCA-job run
  C   0.57104610350371      0.17873608567358     -0.40253221954180
  C   -0.45402412346605     -0.94960746245786     -0.51145223213122
  Cl  1.36752094243752      0.30809390759006     -2.02407583675009
  H   0.09670774250084     -1.85440407682116     -0.77529911253014
  H   -1.14651749569870     -0.72274272561078     -1.33051380644237
  C   -0.08670160809540      1.52255429378824     -0.12087795491082
  H   -0.82406536607758      1.77934965520814     -0.88529346192374
  H   -0.57405822756937      1.48129183450557      0.85693801627802
  H   0.66644751122179      2.31328108784258     -0.09701992948523
  N   1.56442885202694     -0.22003884016819      0.55841253419808
  H   1.06365957219858     -0.52872316186007      1.38599568272078
  H   2.16424520146425      0.55976396662578      0.80008378651109
  N   -1.10519066490117     -1.14034777070407      0.78584823901954
  H   -1.33751454563880     -2.11428498163892      0.92357728593010
  H   -1.96598389390657     -0.61192181197290      0.83620900905780
