15
Coordinates from ORCA-job run
  C   0.57196702642398      0.17509905116788     -0.40376112610545
  C   -0.46315897086852     -0.94376889925621     -0.51397785906697
  Cl  1.36202094571626      0.30485063663360     -2.02858638969001
  H   0.07837696133048     -1.85241565494517     -0.78347662015300
  H   -1.15638997441623     -0.70749545276395     -1.32988094420235
  C   -0.07273161979854      1.52354053618758     -0.11367050118157
  H   -0.55506229074584      1.48363768372896      0.86670399187010
  H   0.68755273248141      2.30742791131343     -0.09105386784611
  H   -0.81178029472914      1.78968196719760     -0.87321044012728
  N   1.56529103824901     -0.23617465441171      0.55141871966395
  H   1.06558716739513     -0.55349676758973      1.37630820503304
  H   2.16746897102165      0.53913884756188      0.80125818376626
  N   -1.11117787429787     -1.13558937656293      0.78477269789424
  H   -1.95872011945634     -0.58712665896693      0.84608804625323
  H   -1.36724369830544     -2.10530916929431      0.91006790389194
