15
Coordinates from ORCA-job run
  C   0.56905781246265      0.28061997187525     -0.36614974556054
  C   -0.39233998080080     -0.90783944615909     -0.49441366505732
  Cl  1.41953659933808      0.41364343626523     -1.94681170006658
  H   0.20459094889493     -1.79696998990651     -0.71483858618183
  H   -1.06674401071849     -0.74523924382977     -1.34517406251687
  C   -0.17485705780381      1.57619007068746     -0.10590818669926
  H   -0.66235236224413      1.52261228052316      0.87115946880708
  H   0.53376274781954      2.40359093951575     -0.09117440667675
  H   -0.92798852328776      1.75886339112243     -0.87552805294228
  N   1.57757406903360      0.10081760781517      0.65868765068935
  H   2.17683410944953     -0.67815213435740      0.40500670486839
  H   1.07642821940522     -0.16383808506084      1.50299907387452
  N   -1.08112500384419     -1.09745554086541      0.78290372943176
  H   -1.95731772971789     -0.59226987941928      0.79165533831592
  H   -1.29505983798647     -2.07457337820615      0.92858643971443
