15
Coordinates from ORCA-job run
  C   0.32364788775529      0.19472890634503     -0.18413277354887
  C   -0.98281379208345     -0.60441664418136     -0.08905305102276
  Cl  1.16462601104199     -0.26538560314749     -1.71223121546192
  H   -1.48411125634511     -0.27232694857863      0.83029008397488
  H   -1.62856476842321     -0.32208969884832     -0.92458424690306
  C   0.05900656899923      1.69136756802679     -0.24654565789703
  H   0.99768138645751      2.24422069720804     -0.32289440218501
  H   -0.45613437949367      2.00517833817382      0.66707187155285
  H   -0.56500826021821      1.94955831989769     -1.10465656464760
  N   1.19089861400769     -0.22358175633470      0.90487692184779
  H   0.79487107621264      0.10810838246972      1.77941532576969
  H   2.10892713503809      0.19398121411772      0.80119472039362
  N   -0.85588440809847     -2.04658057095590     -0.05071063241534
  H   -0.12199152270996     -2.27927899532917      0.60887138019361
  H   -0.54615029214035     -2.37548320886324     -0.95691175965084
