15
Coordinates from ORCA-job run
  C   0.50023152065329      0.13009878375502     -0.04672544995310
  C   -0.38938005953948     -1.10586857885424      0.14962270842835
  Cl  0.97182884626301      0.14421278417028     -1.85418463710509
  H   -0.62035197897236     -1.14506035700397      1.21872779173278
  H   0.21332413471205     -1.98973229686485     -0.08462860137782
  C   -0.21823410001030      1.43725899694917      0.21112645953853
  H   -0.56000464979338      1.45326605926566      1.24928882187532
  H   0.45296528881618      2.28330949743010      0.04930834346568
  H   -1.06927876043380      1.55562498900961     -0.45814979213848
  N   1.63828850989510      0.01481809023817      0.79026701296513
  H   2.26795512189915      0.79945862398943      0.67743462913728
  H   2.14862752767418     -0.84015160085404      0.60484732219596
  N   -1.62421844614621     -1.18641534810426     -0.59859747188095
  H   -2.26836380562659     -0.45939573810805     -0.31867805965080
  H   -1.44438914939083     -1.09142390501802     -1.58965907723279
