15
Coordinates from ORCA-job run
  C   0.53075185300849      0.17169484149391     -0.18557059599600
  C   -0.32305050700726     -1.06689366005745      0.14097119470705
  Cl  0.87350720876970      0.11713264365535     -1.96377672168503
  H   0.27103626252328     -1.95019708778618     -0.11671400808802
  H   -0.45259893686542     -1.07497638664796      1.23031856212644
  C   -0.18149615215981      1.47419320218716      0.11775450169957
  H   0.47475357713175      2.31180682793732     -0.11818016086526
  H   -1.09592056276553      1.56964101812910     -0.46694940217682
  H   -0.43960170097492      1.51430287195845      1.18170284529205
  N   1.81284690148141      0.16629917588447      0.48319083065635
  H   2.27209838389685     -0.72927714426139      0.35666718506649
  H   1.67462021093429      0.31921617752403      1.47635104823835
  N   -1.62774952710749     -1.20133819629970     -0.47425128135189
  H   -1.54273460866486     -1.16421872589299     -1.48198647913813
  H   -2.24646240220049     -0.45738555782411     -0.18052751848517
