15
Coordinates from ORCA-job run
  C   0.52945166742479      0.23244252497880     -0.37681923125492
  C   -0.43853956032532     -0.94154773819668     -0.61466325746909
  Cl  1.41607476441235      0.44123039869591     -1.94194446129970
  H   -1.09553752332285     -0.69961255089808     -1.45450810871195
  H   0.15603998726655     -1.80909217750789     -0.91901445668470
  C   -0.19058446023879      1.53189012611878     -0.07112835911640
  H   -0.73739375861956      1.44869773263593      0.87284563395073
  H   0.53531006646191      2.33967009845528      0.02119456028562
  H   -0.89733725352939      1.77620074963030     -0.86533453536329
  N   1.52459150653018     -0.00408128032362      0.64192634295816
  H   1.95427531766472     -0.91516375207842      0.53108515838224
  H   1.11444287571866      0.06899685082325      1.56431051614600
  N   -1.26241934796510     -1.32460362549515      0.51817968429045
  H   -1.91216173163916     -0.59291224630218      0.77159124019849
  H   -0.69621254983897     -1.55311511053625      1.32427927368837
