19

C	-0.430083	0.092397	-1.47241
C	0.0	0.0	0.0
Cl	-2.190404	0.424385	-1.599872
H	1.0951	0.0	0.0
C	0.3424	1.161436	-2.206004
H	0.079219	1.175769	-3.265478
H	0.091939	2.114975	-1.744608
H	1.40957	0.970777	-2.080783
N	-0.191972	-1.262471	-2.137238
O	0.887066	-1.401244	-2.70528
O	-1.047043	-2.136457	-2.017293
C	-0.501425	-1.234797	0.734387
H	-1.593289	-1.305025	0.706212
H	-0.083718	-2.155497	0.325693
H	-0.174836	-1.159487	1.774451
N	-0.383279	1.262462	0.635624
H	0.34168	1.507123	1.299116
H	-1.258028	1.15284	1.135136
Cl	3.412348	0.0	0.0
