19

C	-0.566888	0.005923	-1.420145
C	0.0	0.0	0.0
Cl	0.264002	-1.213235	-2.426262
H	1.095089	0.0	0.0
C	-2.061071	-0.203592	-1.494417
H	-2.543687	0.54273	-0.861388
H	-2.302892	-1.203403	-1.135265
H	-2.406183	-0.101396	-2.520266
N	-0.241205	1.349326	-2.085508
O	-0.939616	1.681679	-3.042042
O	0.709296	1.986563	-1.6492
C	-0.432474	-1.25211	0.75305
H	-1.49696	-1.224089	1.00738
H	-0.220493	-2.157416	0.182624
H	0.148812	-1.307506	1.676874
N	-0.53926	1.191785	0.681313
H	0.165174	1.918062	0.613374
H	-0.641607	0.976856	1.667079
Cl	3.512981	0.0	0.0
