19

C	-0.405966	0.000603	-1.475404
C	0.0	0.0	0.0
Cl	0.34861	1.394653	-2.28633
H	1.102208	0.0	0.0
C	0.008654	-1.255974	-2.211913
H	-0.196632	-1.151769	-3.279286
H	1.082389	-1.388601	-2.059559
H	-0.534791	-2.11691	-1.827828
N	-1.924781	0.173811	-1.563842
O	-2.573711	-0.847895	-1.332802
O	-2.408574	1.271374	-1.800068
C	-0.461624	-1.228259	0.770864
H	-0.063721	-2.148713	0.343574
H	-1.5499	-1.285635	0.828872
H	-0.056117	-1.15304	1.784211
N	-0.560822	1.193334	0.649157
H	-0.102329	2.007944	0.252256
H	-0.259885	1.160811	1.617834
Cl	3.446732	0.0	0.0
