19

C	-0.376165	-0.01912	-1.484635
C	0.0	0.0	0.0
Cl	0.255203	1.455388	-2.261899
H	1.093992	0.0	0.0
C	0.194567	-1.213795	-2.221733
H	-0.256018	-2.135581	-1.860256
H	0.004532	-1.121729	-3.293046
H	1.27224	-1.22702	-2.040744
N	-1.899805	-0.00689	-1.618822
O	-2.491235	1.032485	-1.875389
O	-2.440671	-1.094624	-1.4112
C	-0.460763	-1.227044	0.774234
H	0.001502	-1.181744	1.76453
H	-0.128745	-2.156725	0.314412
H	-1.546143	-1.245103	0.888384
N	-0.579421	1.190531	0.633372
H	-0.054008	2.002183	0.322864
H	-0.395114	1.109002	1.626836
Cl	3.450345	0.0	0.0
