19

C	-0.557618	0.021794	-1.424221
C	0.0	0.0	0.0
Cl	0.277421	-1.189665	-2.435715
H	1.095016	0.0	0.0
C	-2.051068	-0.183635	-1.51495
H	-2.538599	0.55995	-0.88296
H	-2.298542	-1.185523	-1.165156
H	-2.386738	-0.073802	-2.543151
N	-0.217697	1.371137	-2.069711
O	-0.92949	1.742832	-3.002288
O	0.757397	1.973896	-1.641781
C	-0.441805	-1.252925	0.744732
H	-0.224632	-2.156168	0.173088
H	0.12738	-1.312381	1.675783
H	-1.509582	-1.224769	0.985336
N	-0.53605	1.193202	0.680556
H	0.18215	1.907645	0.640013
H	-0.674402	0.971568	1.659897
Cl	3.516216	0.0	0.0
