19

C	-0.427991	0.084649	-1.472888
C	0.0	0.0	0.0
Cl	-2.197794	0.38197	-1.601235
H	1.095741	0.0	0.0
C	0.321637	1.172914	-2.203435
H	0.049108	2.120206	-1.740565
H	1.393465	1.005205	-2.077941
H	0.059943	1.181968	-3.26313
N	-0.166589	-1.261997	-2.145894
O	0.893201	-1.367076	-2.755145
O	-0.988757	-2.160947	-1.999672
C	-0.497175	-1.230273	0.744788
H	-0.073664	-2.153822	0.346693
H	-0.172662	-1.140971	1.785759
H	-1.589528	-1.304928	0.715309
N	-0.389768	1.264905	0.627467
H	-1.266872	1.154251	1.122081
H	0.330537	1.515055	1.293462
Cl	3.410773	0.0	0.0
