18
Coordinates from ORCA-job run
  C   0.73632948471015     -0.18581163837274     -0.61858663751726
  C   -0.69657140534899      0.13176924506737     -0.25939344892452
  F   0.80805795066642     -1.04726792357775     -1.64796571358923
  H   -1.09304158584923      0.60671030555825     -1.16364336707288
  N   1.57427638628980      1.01061389415909     -1.05581738175837
  O   2.77633306747572      0.79658957146589     -1.14730791435412
  O   0.97691914951300      2.03672716918314     -1.35816718279753
  N   1.48504854124198     -0.79218148948156      0.55224475297952
  O   1.63195988079297     -2.00553348680830      0.54770013829777
  O   1.82664725621906      0.00422443296446      1.41851896025407
  C   -0.85449484258072      1.09666858490793      0.91433481335414
  H   -0.55446316595679      0.63271722721368      1.85469685341273
  H   -1.90986493716518      1.36596882171160      0.99501151865510
  H   -0.28265630561494      2.01321845796800      0.78042786746578
  C   -1.45419694417520     -1.17433548786069     -0.00590306778836
  H   -1.35955078664049     -1.87163605195501     -0.83811649188899
  H   -2.51303943216378     -0.94754042160525      0.13233294246275
  H   -1.09869231141380     -1.66990121053811      0.90063335880939
