18
Coordinates from ORCA-job run
  C   0.87604119213935      0.31623870367215     -0.30338668224158
  C   -0.61661835501906      0.42477951124796     -0.09535799478200
  F   1.48950096915979      1.49546577117407     -0.10348306376887
  H   -0.93563842229736      1.13905020040061     -0.86247540116262
  N   1.49875229689651     -0.70012406374329      0.63380894411289
  O   2.06860661938199     -0.26509812289525      1.62367978661080
  O   1.32014401781759     -1.87154675891944      0.32195616641565
  N   1.30500714326317     -0.11108263156913     -1.70271882742940
  O   0.46655880019802     -0.04591034269606     -2.59373896618860
  O   2.48964092206229     -0.39858491837443     -1.81718044734576
  C   -0.89089823761855      1.01966563884249      1.28849448130496
  H   -0.36148195289721      1.95963494710966      1.44322325992604
  H   -1.96152390152332      1.20942341593082      1.38568266133921
  H   -0.60204607114905      0.32706200795999      2.08262456687955
  C   -1.37868593953394     -0.88436448021982     -0.29285083519719
  H   -2.44808302915636     -0.66482158224058     -0.26078147134630
  H   -1.15916341920977     -1.59714420501572      0.50295424737501
  H   -1.16011263251409     -1.35364309066403     -1.25045042450179
