18
Coordinates from ORCA-job run
  C   0.85419287594191     -0.14288764959170      0.07467027983697
  C   -0.62121706507438      0.04793885878714     -0.16931717425165
  F   1.16057530730233     -0.20804186067063      1.37049339801302
  H   -0.75877324379635      0.01466013666723     -1.25186585303785
  N   1.42410306728144     -1.39534436873747     -0.59288299478892
  O   2.41060132680442     -1.88009474340128     -0.05347503787639
  O   0.86636337209435     -1.77923529428806     -1.61286763492520
  N   1.65305918604805      1.00412733565277     -0.54025422603707
  O   1.54300791984152      1.11210314342265     -1.75550230616001
  O   2.28330296419501      1.71713306589776      0.22493951433015
  C   -1.04889842066008      1.41561233691057      0.36490168541277
  H   -0.57360586962401      2.23522586060518     -0.17811622890841
  H   -2.12836763302002      1.52646633519418      0.24760131236183
  H   -0.81030213819430      1.51708941045823      1.42584802067951
  C   -1.40513727647461     -1.08635270050467      0.48901275794495
  H   -2.47013440413362     -0.94883452994319      0.29297519505434
  H   -1.25782180353346     -1.08724525450365      1.57079315354375
  H   -1.11994816499821     -2.06232008195505      0.09304613880821
