18
Coordinates from ORCA-job run
  C   0.86067752462682     -0.11943306973888     -0.01977402672668
  C   -0.63810193522625      0.02297876969288     -0.09627417680980
  F   1.31918095939504     -0.10402238872822      1.23211073741124
  H   -0.90185035190235     -0.07700623854646     -1.15100367172554
  N   1.38655630934569     -1.39353156608088     -0.68258305655804
  O   0.71656733450003     -1.85923637161065     -1.59527315815503
  O   2.45374222647445     -1.81100379603562     -0.25110576510088
  N   1.54696342602110      1.00891466879226     -0.78570643357533
  O   1.30291334490473      1.03644700792498     -1.98591093116193
  O   2.22905773797421      1.78780354215039     -0.13828663164669
  C   -1.04056448351790      1.40954405620719      0.40814818536364
  H   -2.12918706769613      1.48758281637628      0.41593274066685
  H   -0.65828779380256      2.20653782858019     -0.23307341936080
  H   -0.68034556716507      1.57945208399886      1.42512070806883
  C   -1.30527427395014     -1.08847597810955      0.71297844185415
  H   -1.04065982168234     -2.07884712527795      0.33936000684290
  H   -1.03092142053558     -1.02295919947266      1.76764179032155
  H   -2.38946614776375     -0.98574504012217      0.63869866029154
