18
Coordinates from ORCA-job run
  C   0.86507940389265     -0.05534113004906      0.06203973520383
  C   -0.61867560759980      0.08727701082821     -0.16290818743453
  F   1.20146536614594      0.00014496712996      1.35068613462297
  H   -0.76463018242230      0.09479902934314     -1.24480999153218
  N   1.36820341159824     -1.38466996831519     -0.49799915027408
  O   1.20859763469192     -1.52703431364208     -1.70413050987696
  O   1.83886948099634     -2.18191139552865      0.29828809766595
  N   1.69467827368015      0.99845438162873     -0.67267256177529
  O   1.22586534408588      1.44104238056046     -1.71352055032617
  O   2.77047975047942      1.27875112575463     -0.15967323144639
  C   -1.10815754109803      1.40457376839514      0.43681454702253
  H   -0.61510857198347      2.26643980395693     -0.01569127484099
  H   -0.94237825310280      1.42853245139249      1.51566664721339
  H   -2.18017357811054      1.50533054956528      0.25739388312481
  C   -1.34006569652697     -1.11519344109103      0.44759393384920
  H   -1.11455830437214     -1.21220564688844      1.51181400892115
  H   -2.41788789760580     -0.98125622002563      0.33970031930289
  H   -1.07360303274869     -2.04973335301490     -0.05059184942013
