18
Coordinates from ORCA-job run
  C   0.70006408229672     -0.27224581548861     -0.62860898545131
  C   -0.70029999306456      0.14230956117858     -0.24259560128104
  F   0.68952205403090     -1.21835391632328     -1.58345782810741
  H   -1.11405612975192      0.55700660824637     -1.16853906032653
  N   1.57129179693669      0.84285926695350     -1.19818495736934
  O   1.00724866118884      1.86617479666501     -1.56642509847755
  O   2.75799591289436      0.56515586960955     -1.31512142361975
  N   1.47098228829975     -0.81435999261700      0.55915545261299
  O   1.56666951430822     -2.02937229490757      0.65067610036321
  O   1.88060242428318      0.03385360139108      1.34286950693734
  C   -0.76558043988009      1.21007877840771      0.84790386979741
  H   -1.80319223341162      1.53740270029661      0.94320271883291
  H   -0.15787682330152      2.08254264367204      0.61432348762118
  H   -0.44934912263532      0.81350253140726      1.81346097316816
  C   -1.50325679700616     -1.09999634986089      0.15256231126340
  H   -2.54410740138304     -0.81212241352941      0.31213509966181
  H   -1.13106236143835     -1.53345260267554      1.08390379777840
  H   -1.47559543236610     -1.86898297242543     -0.61926036340388
