18
Coordinates from ORCA-job run
  C   0.88201319146098      0.37383503101249     -0.20410484776352
  C   -0.62385949243468      0.41549886186475     -0.08997053488352
  F   1.43788983942272      1.54004437344090      0.16692630021911
  H   -0.91695983403416      1.20422159221022     -0.79173694479255
  N   1.47858993000874     -0.72336413435248      0.65596855494571
  O   1.36102406490354     -1.85721865582212      0.20662738745481
  O   1.96777446649564     -0.38628737372290      1.72412640749262
  N   1.41756875441814      0.11917412847994     -1.60920508964524
  O   0.63898088932494      0.26475669026443     -2.54391975997708
  O   2.61612956922562     -0.12324323348861     -1.67163113281525
  C   -1.01029182232429      0.83881978970438      1.32982345500413
  H   -0.75561084916168      0.06479896723225      2.05772515892039
  H   -0.52133427646857      1.76577720948110      1.62893393077179
  H   -2.09025566614435      0.99258079519785      1.37123173369201
  C   -1.32397070556285     -0.88267763040584     -0.48738902924817
  H   -1.13066951377353     -1.67710108829862      0.23443476691609
  H   -2.40050181060774     -0.69907419726018     -0.50343616110784
  H   -1.02751673474845     -1.23054112553757     -1.47540419518348
