18
Coordinates from ORCA-job run
  C   0.89959014748188      0.35831656082569     -0.22558530627273
  C   -0.60259825610824      0.44074407247901     -0.05849451362489
  F   1.45681799362206      1.57402755568939     -0.12563258020632
  H   -0.85451505937055      1.28109649136268     -0.71763404059582
  N   1.62868383860635     -0.54601961613303      0.75644024738364
  O   2.79123672276196     -0.24722176210306      0.99243846970177
  O   1.00213414055497     -1.49938698133475      1.20164250270674
  N   1.24343183833440     -0.17938696189527     -1.61045482664146
  O   1.05560077250226      0.61462561917985     -2.52138794331172
  O   1.60747033099505     -1.34518982844618     -1.69288505257805
  C   -0.96016596739353      0.82581958966641      1.37717779735360
  H   -0.83638972718746     -0.02189103509057      2.05203488582336
  H   -0.35002826780382      1.65781777926175      1.73510546895849
  H   -2.00513415518711      1.13966308995952      1.41457426982237
  C   -1.36233738628707     -0.78858033182876     -0.55127017911276
  H   -1.17729923707244     -0.98431858661326     -1.60967880847082
  H   -2.43265059994195     -0.60277955786583     -0.43837311457996
  H   -1.10284712850678     -1.67733609711360      0.02098272364457
