18
Coordinates from ORCA-job run
  C   0.76357990790086     -0.27053357013351     -0.57370510140506
  C   -0.68323714275096      0.07423050879014     -0.29598912557703
  F   0.86684501111129     -1.05778823445511     -1.65422881643347
  H   -1.03612135493603      0.37111804386303     -1.29189673822091
  N   1.55583201342128      0.99939527582945     -0.86528965662063
  O   1.34990392980405      1.48491089958250     -1.96846979183052
  O   2.25894613454778      1.44459333489624      0.03260542078621
  N   1.51568556647437     -0.96554886863066      0.55177112291301
  O   1.12158999881432     -0.76635972893957      1.69402433871946
  O   2.46994156982706     -1.64844556280444      0.20569942169224
  C   -0.88049119325514      1.25808380968143      0.64771155472133
  H   -0.47506709433861      1.05428616310777      1.63702120589651
  H   -0.42138855549424      2.16971153905353      0.25931432571812
  H   -1.95134254420082      1.44959015026601      0.74469357502409
  C   -1.45800731582305     -1.17036411177896      0.13935933951836
  H   -1.23783434880726     -2.02666602196100     -0.50155516973993
  H   -2.52839752093511     -0.96803479875547      0.06689597529371
  H   -1.23043706135979     -1.43217882761140      1.17303811954449
