18
Coordinates from ORCA-job run
  C   0.80306913511238      0.13452041806369     -0.57028296489962
  C   -0.68387242648014      0.04783817865963     -0.30097179864130
  F   1.04786075364120      0.89130883076058     -1.64991843872533
  H   -1.07916219164688     -0.17227820664480     -1.30067726433971
  N   1.65249416416160      0.68992599502996      0.56259939990094
  O   1.23781496880998      0.51761436962567      1.70193810678404
  O   2.69208667213958      1.24062957203726      0.22726421152219
  N   1.36404976380614     -1.25367595131614     -0.86019290484816
  O   1.06159055680453     -1.70194684640152     -1.95695758367777
  O   1.99708601137003     -1.80720264689344      0.02937443044523
  C   -1.22639751489531      1.40587650296877      0.14559206360133
  H   -0.95568066001830      1.61491615267614      1.18109247404729
  H   -0.85810726555140      2.21479186674372     -0.48898612064152
  H   -2.31573295057900      1.39729801252007      0.07401165298471
  C   -1.09294106474809     -1.09109087361622      0.62988910140300
  H   -0.79150299161474     -2.06523659148120      0.23875405726419
  H   -0.67163605828896     -0.96646778991935      1.62567192590315
  H   -2.18201890202257     -1.09782099281282      0.71179965191733
