16

C	-0.422721	0.032485	-1.473429
C	0.0	0.0	0.0
F	-0.225675	-1.261478	-1.967382
H	1.088088	0.0	0.0
H	-0.405162	0.885578	0.494702
N	-1.809092	0.342862	-1.757626
H	-1.954407	1.33001	-1.582831
H	-2.386786	-0.161467	-1.090699
C	0.537636	0.957267	-2.192309
H	0.33485	2.0003	-1.928163
H	0.420971	0.831937	-3.270844
H	1.547075	0.705186	-1.848507
N	-0.629514	-1.158326	0.656818
O	-1.818309	-1.034263	1.003447
O	0.010845	-2.193673	0.795334
F	2.646931	0.0	0.0
