13

C	-0.247057	-0.062775	-1.51218
C	0.0	0.0	0.0
Cl	-0.044582	1.716495	-2.128321
H	1.094398	0.0	0.0
H	-0.402337	0.908205	0.445921
N	0.68662	-0.955395	-2.046239
H	1.613106	-0.778427	-1.625213
H	0.711134	-0.957587	-3.056882
C	-1.619041	-0.392135	-1.918886
N	-2.713179	-0.680569	-2.238358
C	-0.501565	-1.18181	0.675504
N	-0.901746	-2.123902	1.253238
H	2.736012	0.0	0.0
