13

C	-0.246494	-0.099928	-1.5114
C	0.0	0.0	0.0
Cl	-0.064377	1.665394	-2.167647
H	1.092879	0.0	0.0
H	-0.403686	0.917961	0.424382
N	0.696073	-0.995062	-2.025989
H	1.621389	-0.803897	-1.607284
H	0.721746	-1.018938	-3.036224
C	-1.61503	-0.453992	-1.908579
N	-2.707278	-0.75972	-2.216605
C	-0.500723	-1.16605	0.704054
N	-0.89997	-2.094124	1.304822
H	2.739481	0.0	0.0
