15

C	-0.306382	0.002459	-1.472945
C	0.0	0.0	0.0
Br	-2.244045	-0.168326	-1.852264
H	1.096152	0.0	0.0
H	0.131975	-0.901367	-1.894333
C	0.247797	1.249637	-2.125866
H	1.310685	1.304128	-1.861464
H	0.138313	1.200006	-3.211025
H	-0.260255	2.14435	-1.76058
N	-0.350629	-1.245051	0.673305
O	-0.247314	-2.282564	0.009042
O	-0.582721	-1.206566	1.887035
C	-0.49642	1.152297	0.713313
N	-0.831343	2.150405	1.238444
H	2.434356	0.0	0.0
