15

C	-0.394726	0.013312	-1.480729
C	0.0	0.0	0.0
Br	0.207894	1.750087	-2.221429
H	1.091678	0.0	0.0
H	-1.480195	0.060499	-1.593503
C	0.221634	-1.089959	-2.32333
H	0.027016	-0.894354	-3.381369
H	1.297532	-1.121592	-2.138209
H	-0.208772	-2.052429	-2.048056
N	-0.33912	-1.239284	0.686591
O	-0.970913	-1.182799	1.758373
O	0.161633	-2.281878	0.23121
C	-0.547212	1.127354	0.726016
N	-0.929515	2.079378	1.300245
H	2.425014	0.0	0.0
