15

C	-0.444429	-0.116094	-1.467038
C	0.0	0.0	0.0
Br	-0.299848	1.663268	-2.302685
H	1.091758	0.0	0.0
H	-1.506242	-0.360249	-1.531838
C	0.418551	-1.080276	-2.267934
H	1.469564	-0.853877	-2.086343
H	0.192713	-0.992759	-3.332198
H	0.215715	-2.099031	-1.938384
N	-0.38643	-1.174815	0.779044
O	-0.765234	-2.191108	0.176201
O	-0.196047	-1.122298	1.99859
C	-0.466765	1.175833	0.705991
N	-0.81883	2.130293	1.298113
H	2.458971	0.0	0.0
