15

C	-0.317717	-0.028086	-1.470324
C	0.0	0.0	0.0
Br	-2.264241	-0.15171	-1.822922
H	1.095759	0.0	0.0
H	0.088202	-0.956198	-1.870891
C	0.269593	1.18247	-2.162237
H	1.338191	1.203542	-1.914986
H	0.13843	1.11197	-3.244153
H	-0.198416	2.104088	-1.809381
N	-0.353071	-1.227858	0.705823
O	-0.258019	-2.281154	0.067832
O	-0.579932	-1.158674	1.918383
C	-0.490897	1.169563	0.689284
N	-0.868116	2.15918	1.200558
H	2.443856	0.0	0.0
