15

C	-0.403129	-0.057291	-1.479668
C	0.0	0.0	0.0
Br	0.150901	1.664091	-2.285858
H	1.091775	0.0	0.0
H	-1.490546	-0.039439	-1.584659
C	0.22864	-1.176947	-2.287177
H	1.30204	-1.196296	-2.088579
H	-0.197458	-2.135141	-1.994671
H	0.048396	-1.008365	-3.352188
N	-0.333316	-1.202858	0.752932
O	0.076985	-2.282194	0.292066
O	-0.844797	-1.083745	1.879696
C	-0.540358	1.160229	0.68054
N	-0.921744	2.135965	1.214938
H	2.427231	0.0	0.0
