15

C	-0.310549	-0.00079	-1.472032
C	0.0	0.0	0.0
Br	-2.24714	-0.199905	-1.841491
H	1.096177	0.0	0.0
H	0.137835	-0.898836	-1.895078
C	0.224826	1.253558	-2.127508
H	-0.291941	2.14141	-1.757413
H	1.289179	1.321327	-1.871537
H	0.106916	1.20361	-3.21228
N	-0.347483	-1.24619	0.67399
O	-0.215965	-2.284801	0.015706
O	-0.606022	-1.205801	1.881927
C	-0.500379	1.151138	0.712339
N	-0.830541	2.149521	1.239761
H	2.43731	0.0	0.0
