20

C	-0.469943	-0.061704	-1.465664
C	0.0	0.0	0.0
Br	-0.059328	1.678169	-2.318256
H	1.091578	0.0	0.0
C	0.377092	-1.105721	-2.18764
H	0.171128	-1.078868	-3.260242
H	0.122474	-2.104547	-1.81825
H	1.440476	-0.925356	-2.010324
C	-1.957684	-0.306413	-1.665805
H	-2.557607	0.454323	-1.168807
H	-2.188046	-0.303384	-2.733774
H	-2.22789	-1.28619	-1.260162
C	-0.453304	-1.195093	0.831951
H	-0.025245	-1.097928	1.832646
H	-0.057284	-2.115785	0.403007
H	-1.537806	-1.254754	0.917594
N	-0.498129	1.232137	0.684277
O	-1.710507	1.285525	0.925978
O	0.307601	2.107557	0.97726
Br	3.573367	0.0	0.0
