12

C	0.0	0.0	0.0
C	-0.481267	0.348485	-1.402125
F	1.380686	0.0	0.0
H	-1.575208	0.421533	-1.376107
H	-0.29562	0.792694	0.698919
H	-0.192422	-0.470395	-2.066397
N	-0.485787	-1.302636	0.341236
H	-0.309813	-1.463996	1.327241
H	-1.502565	-1.256237	0.234387
C	0.102679	1.594902	-1.887449
N	0.572373	2.593186	-2.288622
Cl	-3.57216	0.0	0.0
