12

C	0.0	0.0	0.0
C	-0.4912	-0.255826	-1.415239
F	1.404293	0.0	0.0
H	-0.244354	-1.283848	-1.701252
H	-0.331978	0.979342	0.345345
H	-1.586571	-0.158185	-1.386576
N	-0.486957	-1.005564	0.862255
H	0.02462	-1.868661	0.751251
H	-0.529521	-0.719751	1.826268
C	0.11165	0.656578	-2.383899
N	0.606448	1.386132	-3.158603
Cl	-3.78459	0.0	0.0
