12

C	0.0	0.0	0.0
C	-0.535197	-0.282422	-1.390868
F	1.410744	0.0	0.0
H	-1.628218	-0.163776	-1.319509
H	-0.312617	0.991783	0.328201
H	-0.318736	-1.320281	-1.664833
N	-0.487691	-0.96906	0.89886
H	-0.338989	-0.716126	1.862579
H	-0.108289	-1.88399	0.702443
C	0.038719	0.600703	-2.401838
N	0.501518	1.305715	-3.21781
Cl	-3.829297	0.0	0.0
