12

C	0.0	0.0	0.0
C	-0.441233	0.239821	-1.44649
F	1.394718	0.0	0.0
H	-1.535661	0.307943	-1.434654
H	-0.33195	0.831338	0.624953
H	-0.146176	-0.625587	-2.050629
N	-0.485578	-1.212396	0.570905
H	-0.397297	-1.962815	-0.107317
H	-1.4863	-1.072773	0.728374
C	0.149079	1.44059	-2.030199
N	0.621351	2.404351	-2.50514
Cl	-3.554405	0.0	0.0
