12

C	0.0	0.0	0.0
C	-0.563849	-0.222085	-1.38825
F	1.410542	0.0	0.0
H	-0.357491	-1.244111	-1.718576
H	-0.298465	0.982493	0.368554
H	-1.654874	-0.09904	-1.28602
N	-0.487818	-0.993891	0.869881
H	-0.210551	-0.837903	1.826448
H	-0.228666	-1.921666	0.567479
C	-0.015957	0.707376	-2.369324
N	0.412365	1.452547	-3.167927
Cl	-3.865399	0.0	0.0
