12

C	0.0	0.0	0.0
C	-0.48194	0.389492	-1.391115
F	1.3804	0.0	0.0
H	-1.5747	0.475956	-1.357891
H	-0.29575	0.772357	0.721564
H	-0.209132	-0.418947	-2.07505
N	-0.485859	-1.311787	0.302911
H	-1.502221	-1.266761	0.192459
H	-0.316824	-1.499299	1.285038
C	0.121224	1.636016	-1.849209
N	0.606516	2.636712	-2.224126
Cl	-3.57904	0.0	0.0
