12

C	0.0	0.0	0.0
C	-0.470539	-0.479735	-1.373463
F	1.401184	0.0	0.0
H	-0.183116	-1.527946	-1.504791
H	-0.330157	1.028408	0.151951
H	-1.566829	-0.420305	-1.351412
N	-0.477589	-0.786543	1.086404
H	-1.477157	-0.59062	1.168907
H	-0.38899	-1.770918	0.857197
C	0.044504	0.306581	-2.490164
N	0.419449	0.927063	-3.41426
Cl	-3.552839	0.0	0.0
