14

C	-0.526181	-0.042386	-1.413869
C	0.0	0.0	0.0
F	-0.069879	1.013695	-2.144877
H	1.093161	0.0	0.0
H	-0.329794	0.963542	0.401249
N	-0.072539	-1.295146	-2.17083
O	0.589487	-2.127805	-1.571131
O	-0.415892	-1.335269	-3.347396
C	-2.000851	-0.046288	-1.462345
N	-3.173629	0.011716	-1.476688
N	-0.599763	-1.10115	0.750669
H	0.083206	-1.845738	0.807119
H	-0.798676	-0.796671	1.695176
Br	3.562669	0.0	0.0
