14

C	-0.507262	0.020893	-1.417679
C	0.0	0.0	0.0
F	-0.223294	-1.141073	-2.077055
H	1.09363	0.0	0.0
H	-0.350186	-0.930908	0.451211
N	-2.047379	0.079649	-1.39074
O	-2.587854	-0.685805	-0.600986
O	-2.620721	0.820519	-2.180399
C	-0.02834	1.167691	-2.196163
N	0.366988	2.07728	-2.823486
N	-0.518301	1.200245	0.651316
H	-1.145435	0.961715	1.405968
H	0.257278	1.726878	1.030758
Br	3.52632	0.0	0.0
