14

C	-0.492137	0.022718	-1.430861
C	0.0	0.0	0.0
F	-0.062831	1.133662	-2.075291
H	1.099829	0.0	0.0
H	-0.36026	-0.920876	0.46082
N	0.052874	-1.195923	-2.181958
O	-0.317136	-2.274777	-1.730732
O	0.783289	-0.998251	-3.138655
C	-1.959248	-0.049257	-1.533236
N	-3.128104	-0.113901	-1.619221
N	-0.567528	1.174024	0.664624
H	-0.674947	0.97094	1.649387
H	0.111623	1.923635	0.595273
Br	3.551691	0.0	0.0
