14

C	-0.513575	-0.005935	-1.417561
C	0.0	0.0	0.0
F	-0.200889	-1.167272	-2.061922
H	1.095219	0.0	0.0
H	-0.351088	-0.92518	0.461466
N	-2.05313	0.022179	-1.374936
O	-2.564923	-0.864701	-0.701384
O	-2.649585	0.880275	-2.013822
C	-0.067007	1.142498	-2.211697
N	0.313631	2.053063	-2.846912
N	-0.53514	1.198365	0.644045
H	0.237431	1.791525	0.91994
H	-1.056017	0.956383	1.474598
Br	3.527711	0.0	0.0
