14

C	-0.550881	0.068448	-1.406681
C	0.0	0.0	0.0
F	-1.915336	0.223657	-1.37027
H	1.090646	0.0	0.0
H	-0.34509	0.912379	0.497697
N	-0.011582	1.31783	-2.099485
O	-0.480118	2.374059	-1.689691
O	0.842452	1.173566	-2.964212
C	-0.250164	-1.105751	-2.230024
N	-0.070878	-2.068638	-2.877099
N	-0.497835	-1.224933	0.616259
H	0.288946	-1.732597	0.997561
H	-1.144849	-1.023877	1.363004
Br	3.509209	0.0	0.0
