14

C	-0.541182	-0.045334	-1.407325
C	0.0	0.0	0.0
F	-0.057653	0.97797	-2.167411
H	1.093015	0.0	0.0
H	-0.327537	0.962959	0.405087
N	-0.137395	-1.327375	-2.146587
O	0.612788	-2.11115	-1.583731
O	-0.596976	-1.431924	-3.28092
C	-2.014798	-0.002338	-1.438096
N	-3.18455	0.096195	-1.426626
N	-0.595457	-1.107182	0.746819
H	-0.83315	-0.801145	1.679464
H	0.102308	-1.835781	0.829704
Br	3.56262	0.0	0.0
