12

C	0.0	0.0	0.0
C	-0.42968	-0.267344	-1.443633
F	1.375733	0.0	0.0
H	-1.525146	-0.256266	-1.495721
H	-0.014664	0.541656	-2.054375
C	-0.417536	1.345272	0.435541
N	-0.731484	2.41989	0.791112
C	-0.432506	-1.024112	0.965509
N	-0.62484	-1.771203	1.851718
C	0.143387	-1.528525	-1.909321
N	0.635333	-2.522572	-2.295604
Br	-3.468097	0.0	0.0
