13
Coordinates from ORCA-job run
  C   -0.59153776217350     -0.46119445727900      0.51678229395566
  C   0.83419277044670     -0.62359445289521      0.00322357968922
  Cl  -0.55169922565406      0.14576942873019      2.20493576807492
  H   0.77366843325368     -1.19195544284341     -0.93556529405164
  H   -1.05826058367453     -1.44838176051600      0.57470008191432
  H   1.38677448347506     -1.24240580566706      0.71457694193886
  C   -1.42027066050734      0.47341033923960     -0.33900904247096
  H   -0.96213453776004      1.46212223864161     -0.34991634908909
  H   -1.46917637715271      0.08980114233695     -1.36338809368815
  H   -2.43720155532780      0.55963602895284      0.04533238019960
  N   1.49230511879123      0.66559449471869     -0.17483761816821
  H   1.60122730476032      0.89134236328761     -1.15216704555188
  H   2.40311259152300      0.67885588329320      0.25733239724736
