13
Coordinates from ORCA-job run
  C   -0.44322676292471     -0.15710217985350      0.35900732676599
  C   0.85576574233931      0.06830876343592     -0.41292136524492
  Cl  -0.31287844089777      0.62312680486092      1.97632097275817
  H   0.71804109979815     -0.36059460647107     -1.41208894752717
  H   -0.56409111960608     -1.22431850334455      0.56554316218755
  H   0.99604619817452      1.14590980562209     -0.54159578620101
  C   -1.65755440665745      0.38978974782958     -0.36487134371557
  H   -1.76546290277711     -0.10775867820494     -1.33297912726243
  H   -1.54830906926609      1.46295771395274     -0.53493077978498
  H   -2.56903341282670      0.22550599652448      0.21112671979129
  N   2.07257142514426     -0.48509611822533      0.15311392952913
  H   2.23349523638236     -0.09151583630654      1.07167550161634
  H   1.98563641311732     -1.48821290981982      0.26159973708760
