13
Coordinates from ORCA-job run
  C   -0.54820222427751     -0.53321067072465      0.27724739128191
  C   0.97824037448245     -0.43949393874809      0.33377620548918
  Cl  -1.12485773642701     -1.22807100747585      1.83185218955170
  H   1.38152582598546     -1.42544088842106      0.57858267207754
  H   -0.83936608335992     -1.25534870477617     -0.49109468387561
  H   1.25636408341147      0.22802874206208      1.15491817364695
  C   -1.23557416344493      0.79633791204127      0.03843654342634
  H   -2.32020925056466      0.68215054264677      0.04554877567924
  H   -0.94658989411475      1.20301454387450     -0.93365154889468
  H   -0.96084199760098      1.51119468083772      0.81776492943499
  N   1.62134318693158      0.02981875856898     -0.88313970633035
  H   1.36072160810837      0.98287108702490     -1.09572071956182
  H   1.37644627087043     -0.55285105691041     -1.67352022192539
