13
Coordinates from ORCA-job run
  C   -0.52353672396884     -0.44667965807963      0.49968993896283
  C   0.87781182293142     -0.72818425912074     -0.04844819520686
  Cl  -0.38141324003749      0.26117952991978      2.15025935425602
  H   1.39045339707124     -1.40214985028254      0.64288425769643
  H   -1.04168805083194     -1.39884177857041      0.64097010090111
  H   0.75329757458978     -1.27272342756809     -0.99169421349218
  C   -1.35044798505436      0.47819675228975     -0.37035916763403
  H   -1.44022187946375      0.05593883459808     -1.37595636380937
  H   -0.88658702030089      1.46296723306513     -0.44224890519822
  H   -2.35231237199630      0.60928517485117      0.03990536512943
  N   1.74167939136073      0.41149227091764     -0.29302602041950
  H   1.85671117915000      0.95339422921911      0.55388095773469
  H   1.35625390655040      1.01612494876074     -1.00585710892035
