19

C	-0.411436	0.000886	-1.457851
C	0.0	0.0	0.0
F	0.059266	1.149417	-2.027749
H	1.092259	0.0	0.0
C	0.13342	-1.188223	-2.206291
H	1.2131	-1.210111	-2.034425
H	-0.082535	-1.061378	-3.26998
H	-0.32646	-2.110007	-1.85491
N	-1.930799	0.044155	-1.671092
O	-2.544903	-0.960092	-1.315677
O	-2.422589	1.031358	-2.199999
C	-0.52368	-1.116616	0.876386
H	-1.609294	-1.096057	0.966118
H	-0.210026	-2.082505	0.478908
H	-0.064731	-1.005762	1.862196
N	-0.447725	1.303328	0.600189
O	0.396184	2.046607	1.087375
O	-1.66297	1.529862	0.593188
H	2.795694	0.0	0.0
