19

C	-0.48414	0.094262	-1.436508
C	0.0	0.0	0.0
F	-1.853753	0.262394	-1.478514
H	1.089243	0.0	0.0
C	0.190892	1.103506	-2.330447
H	-0.023806	0.868984	-3.375917
H	1.265755	1.073845	-2.144536
H	-0.188921	2.092085	-2.086082
N	-0.230794	-1.291441	-2.030915
O	-1.173519	-2.076395	-2.102255
O	0.925509	-1.518701	-2.370619
C	-0.455118	-1.249474	0.724718
H	-1.539124	-1.375815	0.717491
H	0.020365	-2.118569	0.265425
H	-0.108451	-1.196728	1.755925
N	-0.379807	1.209951	0.734318
O	-0.061641	2.298726	0.235337
O	-0.894693	1.100334	1.856851
H	2.583728	0.0	0.0
