19

C	-0.481687	0.133394	-1.435591
C	0.0	0.0	0.0
F	-1.855872	0.286459	-1.475902
H	1.088951	0.0	0.0
C	0.17679	1.185517	-2.290726
H	1.253075	1.166444	-2.107115
H	-0.218082	2.157664	-2.009156
H	-0.037501	0.988411	-3.34357
N	-0.215934	-1.223058	-2.091418
O	0.929177	-1.415753	-2.487553
O	-1.142407	-2.026805	-2.153122
C	-0.465198	-1.254277	0.706524
H	-1.550234	-1.368885	0.701052
H	0.001045	-2.121073	0.236639
H	-0.115756	-1.214642	1.737235
N	-0.381414	1.200706	0.749363
O	-0.916026	1.075011	1.860381
O	-0.054738	2.296768	0.275284
H	2.580157	0.0	0.0
