19

C	-0.354442	-0.032769	-1.471006
C	0.0	0.0	0.0
F	-0.048615	1.183044	-2.012468
H	1.092251	0.0	0.0
C	0.430184	-1.099011	-2.18884
H	1.477717	-0.967863	-1.9037
H	0.092037	-2.092481	-1.901429
H	0.301403	-0.963151	-3.264267
N	-1.840949	-0.249583	-1.763687
O	-2.447503	0.585675	-2.421957
O	-2.306981	-1.308872	-1.345482
C	-0.422167	-1.169845	0.869219
H	-1.503833	-1.262115	0.959282
H	0.031172	-1.020851	1.852151
H	-0.013041	-2.093707	0.459567
N	-0.533728	1.242621	0.615727
O	0.177355	1.832696	1.421204
O	-1.688037	1.569602	0.317841
H	2.770467	0.0	0.0
