17

C	-0.576098	-0.01981	-1.394762
C	0.0	0.0	0.0
Br	0.392055	-1.196671	-2.558911
H	1.094435	0.0	0.0
N	-2.065103	-0.416176	-1.394748
O	-2.549199	-0.919182	-2.398197
O	-2.678946	-0.145368	-0.366311
N	-0.562627	1.385035	-1.989871
O	0.53482	1.862064	-2.212434
O	-1.650512	1.92977	-2.157594
N	-0.320348	-1.279346	0.619296
H	-1.0948	-1.188792	1.26285
H	0.509779	-1.575191	1.124618
N	-0.368495	1.230277	0.665038
H	-1.228138	1.13928	1.191311
H	0.403742	1.490654	1.270482
H	2.673873	0.0	0.0
