17

C	-0.56266	-0.099796	-1.374505
C	0.0	0.0	0.0
Br	-2.474786	-0.668731	-1.468318
H	1.096209	0.0	0.0
N	-0.405544	1.253216	-2.063898
O	-1.39167	1.897068	-2.378873
O	0.765173	1.573544	-2.213482
N	0.162375	-1.094829	-2.258468
O	0.216028	-0.843239	-3.457988
O	0.620323	-2.089046	-1.706384
N	-0.403449	-1.116209	0.865617
H	0.398219	-1.235598	1.486045
H	-0.419178	-1.966157	0.312545
N	-0.398525	1.27565	0.558733
H	0.407213	1.65084	1.052648
H	-1.149216	1.109122	1.218028
H	2.595865	0.0	0.0
