17

C	-0.584652	-0.011199	-1.391334
C	0.0	0.0	0.0
Br	0.339433	-1.217312	-2.558321
H	1.096576	0.0	0.0
N	-2.085072	-0.367091	-1.384645
O	-2.679671	-0.130639	-0.335737
O	-2.595419	-0.806701	-2.403849
N	-0.539191	1.392652	-1.990874
O	-1.610128	1.977461	-2.118404
O	0.567172	1.827987	-2.2539
N	-0.324198	-1.274713	0.621765
H	-1.121182	-1.190077	1.23874
H	0.494152	-1.562826	1.148069
N	-0.353517	1.235685	0.666925
H	0.427255	1.487035	1.265716
H	-1.204831	1.149328	1.205829
H	2.674537	0.0	0.0
