17

C	-0.56609	-0.199884	-1.388424
C	0.0	0.0	0.0
Br	-2.396127	-0.880333	-1.420638
H	1.114725	0.0	0.0
N	-0.496095	1.10723	-2.172283
O	0.574851	1.688955	-2.054242
O	-1.440972	1.461528	-2.861802
N	0.269025	-1.191631	-2.205795
O	0.517238	-2.260109	-1.676818
O	0.608245	-0.832483	-3.329479
N	-0.349263	-1.10113	0.85266
H	0.432739	-1.27291	1.475938
H	-1.202298	-0.930295	1.372508
N	-0.475781	1.313919	0.478555
H	-0.58195	1.226028	1.482709
H	0.299374	1.960665	0.336128
H	2.666816	0.0	0.0
