17

C	-0.505624	0.013192	-1.42677
C	0.0	0.0	0.0
Br	0.314997	1.41318	-2.45959
H	1.093652	0.0	0.0
N	-0.242103	-1.341461	-2.091434
O	-1.190399	-2.116052	-2.133313
O	0.89874	-1.555672	-2.461524
N	-2.032858	0.184759	-1.563895
O	-2.680658	0.17692	-0.519506
O	-2.496343	0.297928	-2.689508
N	-0.399012	-1.247729	0.617346
H	-1.218315	-1.095864	1.191755
H	0.375377	-1.518975	1.217103
N	-0.309549	1.206289	0.7443
H	0.492462	1.825186	0.688437
H	-1.150518	1.679675	0.447113
H	2.686797	0.0	0.0
