17

C	-0.59866	0.080866	-1.364941
C	0.0	0.0	0.0
Br	-2.539245	0.46746	-1.360517
H	1.099321	0.0	0.0
N	0.04162	1.144157	-2.241662
O	-0.280278	1.119345	-3.427733
O	0.842455	1.905167	-1.717137
N	-0.343529	-1.223635	-2.112793
O	-1.255484	-2.010899	-2.301132
O	0.83239	-1.366777	-2.427574
N	-0.3466	-1.287315	0.56474
H	-1.211018	-1.252825	1.09255
H	0.417305	-1.564387	1.174201
N	-0.335755	1.201499	0.747792
H	0.51948	1.503245	1.208991
H	-1.036759	0.997768	1.450372
H	2.594139	0.0	0.0
