17

C	-0.529717	0.054955	-1.423907
C	0.0	0.0	0.0
Br	0.495193	-1.060842	-2.611842
H	1.091709	0.0	0.0
N	-2.009524	-0.361515	-1.458529
O	-2.712424	0.30708	-0.700636
O	-2.390924	-1.281174	-2.160451
N	-0.514122	1.443363	-2.035599
O	-1.419328	1.724292	-2.818134
O	0.430491	2.159118	-1.732903
N	-0.421649	-1.308541	0.505252
H	-1.031681	-1.136114	1.295517
H	0.421837	-1.748557	0.867066
N	-0.387883	1.099442	0.855874
H	-1.281924	1.498962	0.610877
H	0.340366	1.802254	0.820465
H	2.698979	0.0	0.0
