15

C	-0.530862	-0.017596	-1.408393
C	0.0	0.0	0.0
F	-1.874254	-0.3686	-1.430543
H	1.088144	0.0	0.0
H	-0.308216	-0.975303	0.39676
N	-0.534417	1.380392	-2.056606
O	-1.233814	1.510202	-3.059719
O	0.2153	2.231788	-1.598465
N	0.219718	-0.84323	-2.258229
H	0.938709	-1.361247	-1.774179
H	-0.346676	-1.375102	-2.898394
N	-0.597408	1.076729	0.79151
H	-0.89416	0.69594	1.679724
H	0.143357	1.739427	0.986266
H	2.963802	0.0	0.0
