15

C	-0.292395	0.007592	-1.475419
C	0.0	0.0	0.0
F	-0.161488	-1.263427	-2.012347
H	1.094668	0.0	0.0
H	-0.323254	0.958529	0.411114
N	-1.753851	0.341763	-1.819002
O	-2.526804	0.619768	-0.906182
O	-2.050414	0.32352	-3.012043
N	0.509489	0.962916	-2.115432
H	0.478567	0.835179	-3.118856
H	1.465152	0.865759	-1.758533
N	-0.564156	-1.154997	0.682769
H	0.197155	-1.643035	1.137176
H	-1.214463	-0.852954	1.393196
H	2.934516	0.0	0.0
