15

C	-0.24405	-0.148438	-1.474364
C	0.0	0.0	0.0
F	-1.545896	-0.489003	-1.825874
H	1.100454	0.0	0.0
H	-0.434189	0.91923	0.385914
N	-0.140213	1.250406	-2.178085
O	0.34197	1.263286	-3.309673
O	-0.612774	2.226983	-1.605907
N	0.650135	-1.073985	-2.012295
H	0.684574	-1.009785	-3.021202
H	1.581604	-0.914198	-1.602642
N	-0.531071	-1.173973	0.723298
H	0.098134	-1.302317	1.511646
H	-0.360409	-1.980818	0.129737
H	2.913484	0.0	0.0
