15

C	-0.288183	0.016022	-1.47428
C	0.0	0.0	0.0
F	-0.188342	-1.286319	-1.993904
H	1.10159	0.0	0.0
H	-0.433173	-0.889762	0.454398
N	-1.755751	0.33989	-1.777529
O	-2.586616	-0.322955	-1.167936
O	-2.009431	1.182653	-2.634249
N	0.549463	0.93436	-2.099079
H	1.509401	0.767537	-1.778095
H	0.466113	0.927468	-3.106572
N	-0.552294	1.223156	0.607308
H	0.086088	1.971723	0.355231
H	-0.467876	1.118991	1.612215
H	2.954816	0.0	0.0
