15

C	-0.356923	-0.032561	-1.46986
C	0.0	0.0	0.0
F	-0.586233	-1.346717	-1.863021
H	1.091725	0.0	0.0
H	-0.418607	-0.866173	0.517681
N	-1.741662	0.617272	-1.664929
O	-2.654352	0.119121	-1.01346
O	-1.86625	1.56555	-2.435439
N	0.577874	0.582246	-2.311639
H	0.252371	1.473328	-2.649658
H	1.478964	0.645554	-1.836473
N	-0.395617	1.299638	0.54851
H	0.380988	1.653625	1.094047
H	-1.199989	1.205631	1.153275
H	2.905989	0.0	0.0
