13

C	0.0	0.0	0.0
C	-0.338713	-0.05363	-1.507196
Cl	1.753545	0.0	0.0
H	-1.426171	-0.147766	-1.570889
H	0.142947	-0.930911	-1.938762
C	-0.706037	1.07565	0.693132
N	-0.67445	2.107391	1.285748
N	-0.412281	-1.326751	0.639398
O	-0.464305	-2.311441	-0.09445
O	-0.466488	-1.345712	1.864296
C	0.105197	1.148166	-2.203736
N	0.433496	2.089586	-2.824165
H	-2.201594	0.0	0.0
