13

C	0.0	0.0	0.0
C	-0.32082	-0.002059	-1.513878
Cl	1.767894	0.0	0.0
H	-1.403331	-0.115501	-1.604072
H	0.185929	-0.850363	-1.972541
C	-0.723142	1.043996	0.721161
N	-0.713154	2.05578	1.349759
N	-0.395339	-1.350326	0.592827
O	-0.421471	-2.313367	-0.171786
O	-0.464702	-1.406861	1.814854
C	0.106489	1.237038	-2.150767
N	0.418407	2.218281	-2.715691
H	-2.167346	0.0	0.0
