13

C	0.0	0.0	0.0
C	-0.330214	-0.084988	-1.508472
Cl	1.752895	0.0	0.0
H	0.171793	-0.969255	-1.90229
H	-1.41417	-0.199698	-1.582765
C	-0.528697	1.19151	0.650611
N	-0.627335	2.249972	1.166147
N	-0.539362	-1.2174	0.692351
O	-0.546142	-2.261843	0.016153
O	-0.542265	-1.174523	1.929984
C	0.106127	1.099965	-2.233899
N	0.419575	2.037785	-2.868031
H	-2.165913	0.0	0.0
