14

C	0.0	0.0	0.0
C	-0.498954	-0.023876	-1.45396
Br	1.949617	0.0	0.0
H	-1.610341	-0.105168	-1.208163
H	-0.339916	-0.898533	0.508423
C	-0.462014	1.17106	0.737373
N	-0.647622	2.142721	1.371034
C	-0.001	-1.207798	-2.137194
N	0.388864	-2.146647	-2.729242
C	-0.162777	1.240122	-2.237327
H	0.916615	1.403846	-2.308513
H	-0.622673	2.100887	-1.747715
H	-0.564494	1.167144	-3.251318
F	-2.564136	0.0	0.0
