14

C	0.0	0.0	0.0
C	-0.417938	0.291774	-1.476061
Br	1.948089	0.0	0.0
H	0.477349	0.61974	-2.017348
H	-0.343515	-0.979575	0.308851
C	-0.430652	1.00087	0.967994
N	-0.553561	1.859545	1.761545
C	-1.379777	1.386476	-1.624518
N	-1.979187	2.348596	-1.937684
C	-0.947766	-0.985839	-2.12684
H	-1.123979	-0.83089	-3.19486
H	-1.874005	-1.212017	-1.603954
H	-0.217342	-1.794465	-2.009904
F	-2.357398	0.0	0.0
