14

C	0.0	0.0	0.0
C	-0.411467	-0.082257	-1.502323
Br	1.952327	0.0	0.0
H	0.483345	0.113284	-2.105269
H	-0.341688	-0.871971	0.54466
C	-0.427606	1.209991	0.691873
N	-0.552115	2.214237	1.291654
C	-1.390945	0.924837	-1.92377
N	-2.002311	1.729148	-2.527383
C	-0.925549	-1.486111	-1.821105
H	-0.193278	-2.235963	-1.507101
H	-1.852731	-1.589586	-1.261788
H	-1.100709	-1.599665	-2.894791
F	-2.353154	0.0	0.0
