14

C	0.0	0.0	0.0
C	-0.531846	0.08287	-1.435637
Br	1.947573	0.0	0.0
H	-1.650808	0.017779	-1.148932
H	-0.34086	-0.926848	0.454452
C	-0.442544	1.126519	0.818544
N	-0.618674	2.065801	1.502292
C	-0.107023	-1.079216	-2.194232
N	0.212075	-2.010409	-2.839406
C	-0.172616	1.379582	-2.15147
H	-0.553652	2.228847	-1.579915
H	0.908274	1.495231	-2.279409
H	-0.637662	1.399533	-3.139957
F	-2.603837	0.0	0.0
