20

C	-0.250987	0.123992	-1.499977
C	0.0	0.0	0.0
F	-1.495133	0.662638	-1.799912
H	1.094651	0.0	0.0
C	0.852718	0.900888	-2.178799
H	0.706845	1.960737	-1.951569
H	0.837571	0.766566	-3.262548
H	1.798699	0.573648	-1.723621
N	-0.289285	-1.280303	-2.091519
O	-1.386962	-1.808703	-2.260923
O	0.793794	-1.814396	-2.3035
C	-0.583916	-1.248549	0.639115
H	-1.669273	-1.323707	0.502553
H	-0.372084	-1.230623	1.711677
H	-0.118573	-2.151276	0.237619
C	-0.478078	1.263177	0.705899
H	-0.06326	2.161568	0.243185
H	-0.121415	1.243376	1.739982
H	-1.570954	1.350618	0.71357
F	2.724272	0.0	0.0
