20

C	-0.507834	0.021833	-1.426531
C	0.0	0.0	0.0
F	-0.129091	-1.128988	-2.075312
H	1.096338	0.0	0.0
C	-1.998921	0.178983	-1.637875
H	-2.509251	-0.641493	-1.134706
H	-2.352051	1.125429	-1.240088
H	-2.22728	0.130038	-2.705858
N	0.172541	1.152043	-2.202875
O	-0.249253	2.287187	-1.977317
O	1.057619	0.869701	-2.995256
C	-0.416979	-1.299639	0.682267
H	0.124982	-1.36105	1.630204
H	-1.49395	-1.363655	0.898353
H	-0.121182	-2.165264	0.087651
C	-0.439764	1.199037	0.828855
H	-0.11573	2.13892	0.38303
H	-1.525555	1.245946	0.993497
H	0.048508	1.121401	1.803759
F	2.640258	0.0	0.0
