14

C	-0.457307	0.037295	-1.45095
C	0.0	0.0	0.0
Cl	-2.236076	0.13832	-1.592155
H	1.094079	0.0	0.0
H	-0.335436	-0.965583	0.389336
N	0.093349	1.267009	-2.192666
O	0.590537	2.152094	-1.515237
O	-0.037376	1.259086	-3.409272
C	-0.011458	-1.140883	-2.187602
N	0.305811	-2.123046	-2.74748
N	-0.571808	1.093706	0.773048
H	-0.819941	0.752731	1.69132
H	0.14194	1.801595	0.88835
Br	3.528021	0.0	0.0
