14

C	-0.543813	-0.012157	-1.418295
C	0.0	0.0	0.0
Cl	0.141802	1.307805	-2.383023
H	1.100718	0.0	0.0
H	-0.318787	0.948633	0.44635
N	-0.179668	-1.322348	-2.129239
O	-0.904399	-1.638179	-3.068023
O	0.808528	-1.912944	-1.731821
C	-2.002453	0.08553	-1.418033
N	-3.164454	0.223303	-1.316299
N	-0.546221	-1.165744	0.682158
H	0.217877	-1.719493	1.047439
H	-1.160486	-0.900452	1.439586
Br	3.55697	0.0	0.0
