14

C	-0.498055	-0.005456	-1.442315
C	0.0	0.0	0.0
Cl	0.176439	-1.353119	-2.348548
H	1.097161	0.0	0.0
H	-0.363754	0.922967	0.456376
N	-2.040753	-0.132939	-1.377434
O	-2.583142	0.819517	-0.830715
O	-2.586858	-1.125161	-1.821873
C	-0.225657	1.248294	-2.138157
N	-0.020726	2.254902	-2.707657
N	-0.569295	-1.160661	0.682771
H	-0.715261	-0.925062	1.655443
H	0.119346	-1.904926	0.66462
Br	3.543652	0.0	0.0
