19

C	-0.367898	-0.014682	-1.487735
C	0.0	0.0	0.0
Br	-0.059565	1.734177	-2.300328
H	1.09653	0.0	0.0
C	0.421102	-1.047732	-2.264941
H	1.478517	-0.899463	-2.029712
H	0.250395	-0.946245	-3.334586
H	0.12207	-2.05415	-1.963633
N	-1.863447	-0.254237	-1.682069
O	-2.22596	-0.858419	-2.689674
O	-2.625928	0.181134	-0.821261
C	-0.420582	-1.306228	0.688443
H	-0.013024	-1.287107	1.702151
H	-0.011563	-2.192078	0.198295
H	-1.509	-1.397952	0.755813
N	-0.442861	1.193552	0.697346
H	-1.36029	1.054786	1.100789
H	0.225832	1.397853	1.429758
Br	3.577053	0.0	0.0
