19

C	-0.53206	-0.002529	-1.454941
C	0.0	0.0	0.0
Br	0.46161	-1.263312	-2.559678
H	1.092566	0.0	0.0
C	-2.008986	-0.318223	-1.587156
H	-2.174302	-1.360224	-1.320602
H	-2.602737	0.317445	-0.929072
H	-2.346334	-0.158893	-2.610946
N	-0.266227	1.388298	-2.014939
O	0.88868	1.707125	-2.253023
O	-1.244942	2.136048	-2.099713
C	-0.465453	-1.240277	0.752654
H	-1.536647	-1.19853	0.975344
H	-0.242546	-2.157926	0.203756
H	0.078178	-1.263583	1.697866
N	-0.397129	1.196368	0.734064
H	-1.333077	1.509071	0.505613
H	0.257833	1.9443	0.5433
Br	3.613181	0.0	0.0
