14
Coordinates from ORCA-job run
  C   -0.64721140283785     -0.34855844034228     -0.47930682323896
  C   0.80011033230431      0.00350592741855     -0.11830803760708
  Cl  -1.44053446332201      1.08957035982451     -1.20026615089607
  H   1.23444602174467     -0.90392065911228      0.31840296434301
  H   -0.63215036426494     -1.10140930229209     -1.27054851054553
  C   -1.43447218976769     -0.83481471430484      0.72046973791309
  H   -0.96686147370195     -1.73781816959015      1.12377896913932
  H   -2.45740926383986     -1.07642999774072      0.42943269998140
  H   -1.44935846360563     -0.07244923797677      1.49741079383653
  N   0.84913778663027      1.04508232907885      0.89349377469357
  H   1.79946746427502      1.16606511551466      1.22117147705460
  H   0.54335304174152      1.92455568715278      0.49359729776842
  C   1.57730500518440      0.30394145199285     -1.33936565552825
  N   2.22617796945976      0.54267965037695     -2.28896253691404
