14
Coordinates from ORCA-job run
  C   -0.48815689330104     -0.69740962454964     -0.36859117854426
  C   0.79350191411760      0.09576393806324     -0.06870094037564
  Cl  -1.26499690215972     -0.05252220079919     -1.84034376116860
  H   1.29739416606638     -0.44076161279168      0.74852773419416
  H   -0.21154170097770     -1.73039116397562     -0.59690497749646
  C   -1.45373929918834     -0.63731756015050      0.79718214782849
  H   -2.33421069881012     -1.24832326108349      0.59558430078843
  H   -1.76629359136490      0.39364784516763      0.96143685022979
  H   -0.97220038711127     -1.01738777223875      1.70450205812308
  N   0.48805885528237      1.47103866866470      0.31572808251659
  H   0.70258221047663      1.62540443791863      1.29037698703547
  H   0.99969944829549      2.14269353903086     -0.23749366315753
  C   1.71678372287494      0.05180930156223     -1.20954389455937
  N   2.49211915579968      0.04375546518160     -2.09075974541415
