14
Coordinates from ORCA-job run
  C   -0.42269756600794     -0.66011211748127      0.33742896137986
  C   0.74475370470945      0.10914484657813     -0.29686229246415
  Cl  -0.19025103437219     -2.40026907505231      0.00951198065242
  H   0.78346652671899     -0.16955987515121     -1.35518977995058
  H   -0.36490156983698     -0.54598720996206      1.42383814615521
  C   -1.78069332185502     -0.22220928183915     -0.17867536969391
  H   -1.97632972417113      0.81943432729970      0.08353313942887
  H   -2.56382116021427     -0.84262698715794      0.25785880030146
  H   -1.82904824957505     -0.32858284960831     -1.26491736142864
  N   2.01149290753024     -0.26094616664845      0.31190346695505
  H   2.78341951536769      0.09028669546831     -0.24078539385239
  H   2.08562753328627      0.14238542002610      1.23861442427902
  C   0.46728377225115      1.55955501939489     -0.21794101302156
  N   0.25169866616878      2.70948725413358     -0.10731770874066
