13
Coordinates from ORCA-job run
  C   -0.51894335141593     -0.51885361312684      0.46860943409138
  C   0.87349196656138     -0.65275631832467     -0.12819541394306
  Cl  -0.50155913888796     -1.41013106779103      2.02122691696186
  H   1.11466006964072     -1.69615796486152     -0.33149581465958
  H   -1.23203616384468     -1.03601769873486     -0.17363589271175
  H   1.63018549291830     -0.19436720485439      0.50604249969013
  C   -0.93141504678720      0.92174402995569      0.69054862521262
  H   -1.00031233032898      1.44615388778595     -0.26575369630720
  H   -1.90866653961822      0.96582384511471      1.17226893094174
  H   -0.20806949991555      1.43877557655282      1.32426818192426
  N   0.89986698703544      0.06318604972457     -1.43612290763209
  O   1.62959347839825      1.04625490557822     -1.53850214495953
  O   0.15220407624443     -0.37365442701865     -2.30925871860879
