13
Coordinates from ORCA-job run
  C   -0.29745267982863     -0.49391145259385      0.65231568281310
  C   1.06450861330661     -0.27136265278960      0.01303579730395
  Cl  -0.01015669478100     -0.74883106352502      2.40097066479655
  H   1.55133540380559      0.62154293117824      0.40123236162155
  H   -0.72029994197079     -1.42421123061900      0.27257880174231
  H   1.70206075591204     -1.14726265210645      0.13345354392477
  C   -1.24891799607507      0.66486470844180      0.43607500711188
  H   -0.81547312793264      1.59654397537730      0.80517005529611
  H   -2.18754799647002      0.48662209451943      0.96167791004393
  H   -1.47166732683700      0.77689405868893     -0.62793396275564
  N   0.87286815828306     -0.06923681986562     -1.45189717765447
  O   1.16309804240245      1.02748356217968     -1.92350079744162
  O   0.39964479018539     -1.01913545888586     -2.07317788680240
