13
Coordinates from ORCA-job run
  C   -0.34950973256883     -0.43482456122064      0.68784733863238
  C   0.53460541991240     -0.84306178460053     -0.48191999723847
  Cl  0.66877188194939     -0.08899447955700      2.11930442400457
  H   1.20718922081617     -1.65031207913927     -0.19912810345215
  H   -0.92910746099561     -1.32424690578370      0.94838394277432
  H   -0.09132679516363     -1.13074048213750     -1.32846954630319
  C   -1.28365222768570      0.72954112208272      0.41929343681753
  H   -1.88799499181922      0.52840120032232     -0.46870170183941
  H   -1.94757295313466      0.87005674423209      1.27301329214515
  H   -0.73037144806830      1.65241879536838      0.25286946967546
  N   1.39264306873920      0.27909442288552     -0.95642264256512
  O   0.84019363896852      1.14733395513860     -1.63159667925975
  O   2.57713237905026      0.26433405240900     -0.63247323339131
