13
Coordinates from ORCA-job run
  C   -0.34315156471893     -0.44240723871726      0.68590333590460
  C   0.51161494523727     -0.84145534521600     -0.50843839205841
  Cl  0.70815469371508     -0.13990375865611      2.10333920928570
  H   -0.13489820187663     -1.10223120481641     -1.34822976962638
  H   -0.93123858783728     -1.32796975255612      0.94059462693958
  H   1.17647745477666     -1.66459587931658     -0.25471493056825
  C   -1.26419785455672      0.74084637435911      0.45822675563640
  H   -0.70011706376329      1.65800113765152      0.29653414123282
  H   -1.89014894114331      0.56497613362094     -0.42013583242321
  H   -1.90780806643136      0.87600318667724      1.32820304960147
  N   1.37850205422260      0.27618505788881     -0.97807683537349
  O   0.82703411924945      1.16646915593402     -1.62473671709411
  O   2.56877701312642      0.23608213314684     -0.67846864145671
