13
Coordinates from ORCA-job run
  C   -0.36137147122700     -0.22826095006337      0.48445782288900
  C   0.58219646312807      0.14671115968812     -0.63672686861037
  Cl  0.57689454324775     -0.37108694163773      2.00226083228045
  H   0.02753940989708      0.25990003950600     -1.57181950287317
  H   -0.76907720705788     -1.21966190817931      0.28713052937097
  H   1.14722775965602      1.04980381733393     -0.41288806121288
  C   -1.46326298284851      0.80110387750755      0.64737402783941
  H   -1.04519607086997      1.78682378795572      0.86069572756154
  H   -2.12188429928210      0.52475853562097      1.47108545479011
  H   -2.06027526629797      0.85949980719180     -0.26688292086427
  N   1.58361367673863     -0.93439367912990     -0.88521775163073
  O   2.76337748061850     -0.60566990972804     -0.95995064234539
  O   1.14021796429738     -2.07152763606574     -1.01951864719467
