15
Coordinates from ORCA-job run
  C   0.97425625091982     -0.21570950170200      0.41283074274064
  C   -0.37216959372487     -0.03573695157191     -0.35799963483282
  Br  0.70723275053143     -0.24803924293001      2.35359731025669
  H   -0.05296900538356      0.05014931690889     -1.40980182333939
  C   1.88866500116141      0.87991696858086      0.09703443315256
  N   2.58053846970045      1.78474529389790     -0.19397227249627
  C   1.57003919357235     -1.49198621210882      0.02181115538268
  N   2.00029826927877     -2.52125031421704     -0.34910292534134
  C   -1.09029814041368      1.24179314136067      0.04013385785261
  H   -1.92643531492902      1.40935677688771     -0.64335645612625
  H   -1.48198985691216      1.15579568130708      1.05477245289883
  H   -0.43260616416725      2.11068787384052     -0.01465730433796
  N   -1.19357064214668     -1.19806751633067     -0.10371819460473
  H   -2.17627711688640     -0.96968578470069     -0.15913857938556
  H   -0.99471410060060     -1.95096952922249     -0.74943276181968
