15
Coordinates from ORCA-job run
  C   1.02550802434272     -0.39722258419524     -0.14808714288867
  C   -0.45272874817974     -0.05183085382298     -0.47438188751048
  Br  1.59638397041192     -1.93752377556806     -1.23611211993887
  H   -0.46555177983588      0.18415560167720     -1.54938587718165
  C   1.17536339661530     -0.75168025964763      1.26099598436997
  N   1.30604028713450     -0.99049610918769      2.40438848293549
  C   1.90686921410646      0.71783127138588     -0.48813696911293
  N   2.57405514840431      1.64377074950702     -0.77006137712905
  C   -0.88820996273830      1.17008700916876      0.32326573786210
  H   -0.24062385890713      2.02879196353342      0.14067512409784
  H   -1.90241708123221      1.44935740899511      0.02556343274635
  H   -0.89320383313831      0.94192698146317      1.39176740240907
  N   -1.26603339922623     -1.19188194171379     -0.10368717319628
  H   -1.24997902054364     -1.90777396884453     -0.81833103652111
  H   -2.22547235721377     -0.90651149275062      0.04352741905820
