15
Coordinates from ORCA-job run
  C   0.96588034840182     -0.23344291140881      0.42134910353060
  C   -0.34769626396138     -0.08560572106557     -0.40055019524904
  Br  0.56740474749800     -0.36861412554064      2.34474891402829
  H   -0.00194829551903     -0.07167649735446     -1.44217707105296
  C   1.83936390203990      0.92195237849182      0.22750279082344
  N   2.50897771636261      1.86805330354585      0.03016198615824
  C   1.66253335939105     -1.45543735984030      0.02588862015792
  N   2.24400258681132     -2.41337611476513     -0.32835535608484
  C   -1.07750759434260      1.21955792951683     -0.10356558015318
  H   -0.44606696412200      2.09622628943789     -0.26444180578042
  H   -1.43815030717537      1.23459445328044      0.92723709906300
  H   -1.94158438555966      1.29591199778137     -0.76742200336226
  N   -1.12075993963025     -1.29655919574119     -0.21066926067600
  H   -1.66533900670535     -1.50751120518165     -1.03579364093917
  H   -1.75010990348905     -1.20407322115644      0.57708639953639
