12
Coordinates from ORCA-job run
  C   -0.27238486227435     -0.21923047863147     -0.19174875474220
  C   1.18184913760664     -0.35393230815565     -0.54238384172303
  F   -1.05829279974659     -0.54135636317192     -1.27067701458531
  H   1.81196077849121      0.02841332939039      0.26264047416710
  H   1.39323066957824     -1.41103573218785     -0.70206451657066
  H   1.39540257819259      0.20686615358790     -1.44847572401050
  N   -0.66698584312713     -0.99321744322110      0.90362255617297
  H   -0.00907778864310     -0.92964623177589      1.66676814384680
  H   -1.59317197997682     -0.73546330046624      1.21954908239195
  N   -0.62725860379699      1.29368720786277     -0.00071058854253
  O   -0.01872518661977      2.10941284200635     -0.68389320132744
  O   -1.53554609968394      1.54650232476270      0.78637338492286
