12
Coordinates from ORCA-job run
  C   -0.26210301391895     -0.10683773337350     -0.08215632287356
  C   1.07484017035291     -0.41220236184461     -0.69170668171741
  F   -1.25650780979425     -0.44684191584946     -0.99923556699655
  H   1.16459944327480      0.08199769488309     -1.65628737764034
  H   1.14665707772848     -1.49163223003225     -0.83967127842008
  H   1.87559048110827     -0.07785676651099     -0.03544948400034
  N   -0.45506233700245     -0.67657708648251      1.18252694533922
  H   -1.38149206548165     -0.47334750031341      1.53526593621722
  H   -0.28267133849078     -1.67176797285330      1.16946825089147
  N   -0.47684210402677      1.39721101964886      0.09785264471667
  O   0.35991883440733      2.16429066426973     -0.36422245382786
  O   -1.50792733815695      1.71356418845836      0.68161538831157
