12
Coordinates from ORCA-job run
  C   -0.26920299605909     -0.22790493027882     -0.23761968296754
  C   1.21581709780649     -0.33136439966597     -0.46045448055019
  F   -0.95154583989058     -0.57182834873434     -1.35777918861596
  H   1.75960423579864      0.00042876992785      0.42375842395421
  H   1.45581151605249     -1.37288974978176     -0.67227173778801
  H   1.49920640390950      0.28949673339718     -1.31134839141840
  N   -0.73564780833961     -1.01458898006541      0.83577896222906
  H   -0.28915819446610     -0.74460435033223      1.70098192574276
  H   -1.74116293666978     -0.93890831506807      0.93053818163677
  N   -0.58689950281352      1.28149165704802     -0.01692717349322
  O   -0.20631718574874      1.72170721898806      1.06587064646791
  O   -1.15150478957970      1.90896469456549     -0.90152748519739
