15

C	0.0	0.0	0.0
C	-0.330094	-0.207952	-1.544515
Br	1.966148	0.0	0.0
H	-0.143173	-1.270071	-1.743138
H	0.441092	0.35451	-2.079284
C	-0.583355	1.285105	0.544466
H	-0.267473	2.128128	-0.077645
H	-0.264706	1.458957	1.575502
H	-1.675959	1.125049	0.488806
C	-0.410428	-1.152881	0.796379
N	-0.659905	-2.108157	1.43446
N	-1.62336	0.176863	-2.029194
H	-1.641295	1.188072	-2.10539
H	-2.355312	-0.043089	-1.294342
F	-3.122779	0.0	0.0
