15

C	0.0	0.0	0.0
C	-0.538414	0.203798	-1.415002
Br	1.960919	0.0	0.0
H	-1.590317	0.468869	-1.22302
H	0.031373	1.016301	-1.877618
C	-0.490737	1.116599	0.913498
H	-1.58777	1.007318	0.871006
H	-0.096198	0.99754	1.925051
H	-0.159711	2.079969	0.513015
C	-0.401024	-1.303973	0.532267
N	-0.616864	-2.365204	0.988464
N	-0.398491	-1.018235	-2.213165
H	-0.495513	-0.774739	-3.192425
H	-1.203073	-1.593491	-1.980335
F	-2.848077	0.0	0.0
