15

C	0.0	0.0	0.0
C	-0.536583	-0.076013	-1.420227
Br	1.973318	0.0	0.0
H	-0.242672	0.855142	-1.930596
H	-1.631186	-0.075692	-1.217141
C	-0.521409	1.238725	0.707081
H	-1.619225	1.098513	0.651143
H	-0.157355	1.289572	1.735725
H	-0.196208	2.13233	0.165761
C	-0.362645	-1.211542	0.743735
N	-0.59116	-2.1865	1.357518
N	-0.111403	-1.29025	-2.104651
H	0.753235	-1.137174	-2.608088
H	-0.826255	-1.568481	-2.763217
F	-2.897332	0.0	0.0
