15

C	0.0	0.0	0.0
C	-0.483473	0.028307	-1.44949
Br	1.97448	0.0	0.0
H	-1.580048	0.052755	-1.290585
H	-0.181516	-0.911683	-1.934587
C	-0.466796	1.2131	0.78809
H	-0.105226	2.108943	0.282348
H	-0.082235	1.179703	1.81053
H	-1.564089	1.123744	0.746258
C	-0.399934	-1.251526	0.642153
N	-0.598728	-2.282211	1.170846
N	0.002493	1.223339	-2.134506
H	-0.649877	1.47113	-2.86564
H	0.905065	1.046622	-2.558046
F	-2.811299	0.0	0.0
