15

C	0.0	0.0	0.0
C	-0.513624	0.011785	-1.438739
Br	1.973801	0.0	0.0
H	-1.608449	0.034764	-1.251902
H	-0.22568	-0.932578	-1.922352
C	-0.491955	1.205949	0.784039
H	-0.148697	2.112851	0.284509
H	-1.588883	1.092428	0.729817
H	-0.118867	1.178704	1.81059
C	-0.392373	-1.243102	0.659261
N	-0.608701	-2.257374	1.213885
N	-0.05205	1.201249	-2.148788
H	-0.736923	1.450631	-2.850221
H	0.829346	1.017591	-2.614623
F	-2.857204	0.0	0.0
