15

C	0.0	0.0	0.0
C	-0.321593	-0.199885	-1.545441
Br	1.965881	0.0	0.0
H	-0.100047	-1.253151	-1.759886
H	0.433373	0.395232	-2.070324
C	-0.592698	1.27952	0.544561
H	-0.283054	2.124886	-0.077136
H	-1.684276	1.107061	0.482617
H	-0.279402	1.456062	1.576467
C	-0.410408	-1.157192	0.789546
N	-0.652638	-2.120111	1.418714
N	-1.623824	0.155608	-2.029563
H	-1.666131	1.167044	-2.093106
H	-2.352042	-0.079025	-1.297337
F	-3.126271	0.0	0.0
