16

C	-0.595271	-0.002553	-1.395879
C	0.0	0.0	0.0
Cl	0.144405	-1.31623	-2.343756
H	1.092944	0.0	0.0
H	-0.316363	-0.949053	0.446338
C	-2.09984	-0.148822	-1.410005
H	-2.362534	-1.093173	-0.928356
H	-2.475418	-0.145635	-2.429713
H	-2.529675	0.674822	-0.841608
N	-0.238006	1.294397	-2.120481
O	0.606595	2.019585	-1.609419
O	-0.833859	1.526349	-3.171319
N	-0.571148	1.115417	0.767317
H	0.108919	1.867683	0.746536
H	-0.661374	0.831556	1.734122
Cl	3.568384	0.0	0.0
