16

C	-0.549436	-0.080408	-1.419308
C	0.0	0.0	0.0
Cl	0.044796	-1.546234	-2.215647
H	1.094252	0.0	0.0
H	-0.354952	0.94374	0.4199
C	-2.063687	-0.055039	-1.483667
H	-2.404794	-0.1114	-2.51989
H	-2.437237	-0.908125	-0.921033
H	-2.427362	0.86694	-1.028198
N	-0.054675	1.148286	-2.187533
O	0.548742	1.020948	-3.242264
O	-0.375322	2.218161	-1.671174
N	-0.549598	-1.115927	0.78503
H	-0.507619	-0.848738	1.761086
H	0.095966	-1.892027	0.687185
Cl	3.486004	0.0	0.0
