16

C	-0.424806	-0.018045	-1.457134
C	0.0	0.0	0.0
Cl	-0.203065	1.605991	-2.1752
H	1.095453	0.0	0.0
H	-0.372012	0.90401	0.4867
C	0.326645	-1.044202	-2.262683
H	0.126662	-2.0273	-1.836258
H	0.02898	-1.026508	-3.309637
H	1.390817	-0.821568	-2.158398
N	-1.929808	-0.270917	-1.527198
O	-2.619113	0.212885	-0.632499
O	-2.367015	-0.91145	-2.478976
N	-0.461358	-1.242786	0.620262
H	-1.268767	-1.068478	1.202315
H	0.283955	-1.611844	1.194951
Cl	3.460936	0.0	0.0
