16

C	-0.606764	0.071784	-1.393018
C	0.0	0.0	0.0
Cl	0.147037	-1.170896	-2.42952
H	1.092763	0.0	0.0
H	-0.323104	-0.961827	0.412712
C	-2.110751	-0.092778	-1.406203
H	-2.54845	0.690682	-0.784111
H	-2.498461	-0.027341	-2.421783
H	-2.358303	-1.06887	-0.984953
N	-0.274328	1.413601	-2.043323
O	-0.918864	1.717069	-3.044258
O	0.617336	2.088673	-1.542464
N	-0.559635	1.099844	0.804226
H	0.143028	1.829446	0.834151
H	-0.68615	0.778219	1.756669
Cl	3.518802	0.0	0.0
