13

C	0.0	0.0	0.0
C	-0.227854	0.049093	-1.56521
Br	1.957195	0.0	0.0
H	0.39876	-0.758741	-1.95492
C	-0.459336	1.225106	0.636186
N	-0.626676	2.336703	1.00189
C	-0.6318	-1.182258	0.563436
N	-0.660937	-2.241668	1.097082
C	0.28122	1.295931	-2.142416
N	0.701861	2.266801	-2.659205
C	-1.593455	-0.149794	-2.075967
N	-2.639378	-0.153364	-2.610561
H	-1.913701	0.0	0.0
