13

C	0.0	0.0	0.0
C	-0.36613	0.067534	-1.50195
Br	1.95896	0.0	0.0
H	0.092932	-0.804248	-1.98841
C	-0.48582	1.167473	0.724908
N	-0.573913	2.189393	1.313617
C	-0.530849	-1.240081	0.560655
N	-0.619719	-2.33492	0.99874
C	0.14095	1.277713	-2.14224
N	0.51772	2.238096	-2.703101
C	-1.871694	-0.036316	-1.597839
N	-2.706711	-0.159597	-2.445806
H	-2.055535	0.0	0.0
