15

C	0.0	0.0	0.0
C	-0.535178	0.222776	-1.412657
F	1.386506	0.0	0.0
H	0.330251	0.236944	-2.093368
H	-0.345017	-0.975627	0.323847
C	-0.384514	1.070828	1.004401
H	0.063057	0.806578	1.967109
H	0.020732	2.038367	0.692164
H	-1.472243	1.08014	1.051167
C	-1.284681	1.458761	-1.599497
N	-1.689034	2.541915	-1.807352
N	-1.347071	-0.945334	-1.923536
O	-2.151077	-0.713393	-2.814644
O	-1.017433	-2.060988	-1.540128
F	-2.554816	0.0	0.0
