15

C	0.0	0.0	0.0
C	-0.635578	0.035436	-1.376309
F	1.381513	0.0	0.0
H	-1.770308	0.015842	-1.03155
H	-0.34337	-0.940331	0.440072
C	-0.446086	1.163541	0.863333
H	-0.078438	1.006792	1.88062
H	-0.023196	2.096922	0.484655
H	-1.535783	1.176573	0.836544
C	-0.207923	-1.074688	-2.202956
N	0.105251	-2.009926	-2.84192
N	-0.298423	1.315602	-2.067373
O	0.740367	1.371043	-2.727171
O	-1.060088	2.264953	-1.89799
F	-2.824206	0.0	0.0
