15

C	0.0	0.0	0.0
C	-0.539135	0.257343	-1.404819
F	1.386459	0.0	0.0
H	0.32413	0.298757	-2.087337
H	-0.344338	-0.983015	0.302496
C	-0.384088	1.04722	1.02989
H	-1.471669	1.044783	1.085495
H	0.008148	2.025055	0.732921
H	0.075531	0.769363	1.983266
C	-1.295805	1.495212	-1.557042
N	-1.696868	2.578925	-1.768713
N	-1.345474	-0.900469	-1.946919
O	-1.007421	-2.024702	-1.597199
O	-2.157783	-0.646837	-2.824547
F	-2.555186	0.0	0.0
