15

C	0.0	0.0	0.0
C	-0.536076	0.053013	-1.42885
F	1.386688	0.0	0.0
H	0.329959	-0.009684	-2.106719
H	-0.344811	-0.929898	0.438867
C	-0.383975	1.183812	0.868409
H	0.014409	2.107855	0.438274
H	-1.471478	1.192897	0.919611
H	0.070575	1.041755	1.853602
C	-1.292863	1.252625	-1.763878
N	-1.709727	2.296361	-2.105213
N	-1.342201	-1.170522	-1.801866
O	-0.99972	-2.23369	-1.299007
O	-2.154814	-1.044116	-2.706347
F	-2.550576	0.0	0.0
