15

C	0.0	0.0	0.0
C	-0.525171	-0.062558	-1.448636
F	1.388396	0.0	0.0
H	-0.63715	0.945792	-1.845474
H	-0.324553	-0.890205	0.535047
C	-0.386023	1.28039	0.712591
H	0.085638	2.124886	0.193475
H	-1.472378	1.353509	0.713033
H	0.010025	1.247833	1.733702
C	-1.762508	-0.828353	-1.68282
N	-2.421624	-1.558518	-2.349197
N	0.553341	-0.69989	-2.296332
O	0.843007	-1.866477	-2.05675
O	1.080725	0.001056	-3.158821
F	-2.590671	0.0	0.0
