16

C	0.0	0.0	0.0
C	-0.443919	0.18825	-1.465406
Cl	1.80598	0.0	0.0
H	-1.54004	0.16654	-1.406595
N	-0.43161	1.075788	0.848853
H	-0.226235	1.948583	0.370952
H	-1.449398	0.991315	0.897582
N	-0.460264	-1.283517	0.434483
H	-1.479437	-1.266405	0.341158
H	-0.252177	-1.359658	1.424983
C	0.001496	-0.919493	-2.326333
N	0.341249	-1.732663	-3.103903
N	-0.031554	1.495518	-1.963247
H	-0.607806	1.746433	-2.756947
H	0.933693	1.455454	-2.269523
Cl	-3.558602	0.0	0.0
