16

C	0.0	0.0	0.0
C	-0.382527	0.039418	-1.510968
Cl	1.835293	0.0	0.0
H	0.319055	-0.615419	-2.038681
N	-0.570412	1.090896	0.668567
H	-0.488644	0.996243	1.670068
H	-0.267336	1.994152	0.337434
N	-0.41459	-1.190193	0.683609
H	-1.433612	-1.210742	0.639785
H	-0.074697	-2.000768	0.179558
C	-0.148845	1.406285	-2.038497
N	0.009855	2.488508	-2.469715
N	-1.706843	-0.490226	-1.673786
H	-2.439003	-0.029479	-1.121281
H	-1.991957	-0.513348	-2.64295
Cl	-4.395298	0.0	0.0
