16

C	0.0	0.0	0.0
C	-0.348423	-0.456904	-1.460753
Cl	1.863985	0.0	0.0
H	0.463641	-1.097324	-1.816795
N	-0.422808	1.294897	0.42732
H	-0.142523	2.015599	-0.226499
H	-1.439901	1.260265	0.497034
N	-0.524952	-0.931349	0.893545
H	-0.209595	-0.801729	1.840729
H	-0.547163	-1.883138	0.567526
C	-0.332937	0.737181	-2.33492
N	-0.358626	1.646166	-3.080215
N	-1.568729	-1.235271	-1.482626
H	-2.346098	-0.769999	-0.994308
H	-1.858224	-1.392394	-2.440913
Cl	-4.118718	0.0	0.0
