15
Coordinates from ORCA-job run
  C   0.72185010920622     -0.26497623087094      0.44292442994077
  C   -0.45810834291856      0.29390165902013     -0.38282144389868
  Br  0.41476783969127     -0.15609203675859      2.33607120960202
  H   -0.13658563523910      0.21565518332256     -1.42829957590716
  N   1.97029933544375      0.57518130104963      0.03902329824241
  O   2.46863156384699      1.32547311518345      0.85587509167391
  O   2.29599868864486      0.40574775004474     -1.12909732195074
  C   0.99455688259110     -1.64395102149035      0.06709609345737
  N   1.17369083097038     -2.76131293353300     -0.25404445408974
  C   -0.64111150058171      1.71211032380395     -0.07240245516615
  N   -0.81962176188460      2.84813332211177      0.16676427134251
  C   -1.75414290886989     -0.49474204615403     -0.18814639708046
  H   -2.11423648452243     -0.40893097773588      0.83656285811744
  H   -1.59659897414162     -1.54766059416288     -0.42925742507756
  H   -2.51738964223665     -0.09753681383056     -0.85924817920596
