12
Coordinates from ORCA-job run
  C   0.07272676085880      1.26769900071310     -0.13709353360744
  C   0.23168615545075     -0.04076974419740      0.13663284495386
  H   0.82218135460546      1.98417601600495      0.18153634425708
  C   -1.06941826923543      1.74230545502448     -0.84192905209555
  N   -2.01148561922665      2.14136647308198     -1.42430267873758
  C   -0.67270132243084     -1.16780376708682     -0.21186051456065
  H   -0.14921707890358     -1.89492949143217     -0.83525862784164
  H   -0.99365300328701     -1.69025458982611      0.69117682090752
  H   -1.54704716240175     -0.79532141881539     -0.74562529393354
  N   1.46387568333308     -0.41229335504875      0.87607959764667
  O   1.61407319844509     -1.61304409959867      1.10133386955423
  O   2.23997930279207      0.47786952118079      1.20931022345705
