12
Coordinates from ORCA-job run
  C   -0.51476754181142      0.96210126355583     -0.57535945869511
  C   0.00172810328216     -0.15821082215669     -0.03748476635764
  H   -1.27566049802648      0.85191612957245     -1.34279733018326
  C   -0.18062004936371      2.29858008604023     -0.20987345669062
  N   0.01104829241499      3.42920230791193      0.05438135532696
  C   -0.38965178137860     -1.55170029311153     -0.38571908521855
  H   0.49299402465172     -2.13792631764035     -0.65313175998214
  H   -1.08475546993841     -1.55110116949201     -1.22550626316277
  H   -0.85645621681974     -2.03781407699646      0.47210447320794
  N   1.01369689430686     -0.05336653870618      1.02971042201966
  O   1.84172179194985      0.85050084716244      0.95595477310221
  O   0.94172245073278     -0.90218141613967      1.91772109663332
