12
Coordinates from ORCA-job run
  C   -0.06176855019352      1.27053356098899      0.11330362108201
  C   0.20902790172395     -0.04719318865245      0.16773846452870
  H   0.52849143469805      1.97053899227910      0.69459679078359
  C   -1.11398778918053      1.77665111324387     -0.70118359807433
  N   -1.98205066718250      2.20277905221198     -1.37256112388895
  C   -0.47623785745624     -1.15519125048940     -0.54793191064441
  H   0.23472636881585     -1.70122697044094     -1.17074915627187
  H   -1.27625533835017     -0.75907720086606     -1.17341298562260
  H   -0.89273919927213     -1.86817539608736      0.16586616118460
  N   1.32923717362352     -0.45145892262124      1.05346349213402
  O   1.94812554852219      0.42160216537980      1.65392278802119
  O   1.55443097425153     -1.65978195494628      1.11794745676805
