12
Coordinates from ORCA-job run
  C   0.06901278722676      1.23478930200099     -0.32038052781471
  C   0.25612680643259     -0.03522700524256      0.08512777013740
  H   0.88682843773355      1.94577521517202     -0.27315248980237
  C   -1.19097760452822      1.67390394502558     -0.81640700063354
  N   -2.23099183273807      2.04130474196761     -1.22775930075415
  C   -0.72866671538097     -1.14849009190607      0.09964883636710
  H   -0.37030672060027     -1.98044055449012     -0.50932922498047
  H   -0.85984283717937     -1.52579507374311      1.11545413351338
  H   -1.68851339814471     -0.80442272489788     -0.28567776860174
  N   1.61301020768568     -0.37265534112541      0.58315543914647
  O   1.77342057604681     -1.53266461666441      0.96231309277897
  O   2.47190029344624      0.50392220390337      0.58800704064367
