12
Coordinates from ORCA-job run
  C   -0.13210400729597      1.26241532457054      0.13935173243112
  C   0.22529243950563     -0.03545400761324      0.14831316826107
  H   0.45558317900583      1.99172316893357      0.68627529846911
  C   -1.27369357965925      1.71015381742670     -0.58390244377633
  N   -2.21597506817325      2.08952759829287     -1.17889583360622
  C   -0.44287501740462     -1.17634238286248     -0.53117915492560
  H   -1.30640013239044     -0.82234896284650     -1.09446248831692
  H   0.25305309007741     -1.67397906312132     -1.20902686638429
  H   -0.76711843437024     -1.91807433208613      0.20071970706290
  N   1.43142270649672     -0.37908552030917      0.94203438046746
  O   2.05206292810776      0.52695724151202      1.48967314159928
  O   1.72075189610042     -1.57449288189687      0.99009935871841
