12
Coordinates from ORCA-job run
  C   0.09056877660846      1.21752061441850     -0.37710464235640
  C   0.25146065688675     -0.03203253476687      0.09747018084375
  H   0.91205379252863      1.92447719787557     -0.33314651778971
  C   -1.14564279081294      1.63974523883729     -0.94290888826820
  N   -2.16580232521458      1.99404002696232     -1.41153493369421
  C   -0.74141413938976     -1.13776966133837      0.12725492380297
  H   -0.90992575408421     -1.46908000969866      1.15352224901114
  H   -0.36756778675650     -1.99803702810992     -0.43103823412108
  H   -1.68476756402623     -0.80596323085498     -0.30648743801070
  N   1.58604940220276     -0.35323942281793      0.66270220378268
  O   1.72391707611939     -1.49581773180997      1.09927087280239
  O   2.45007065593822      0.51815654130302      0.66100022399738
