12
Coordinates from ORCA-job run
  C   -0.50329229456579      1.00855382437823     -0.49737325216384
  C   -0.00401543027393     -0.15596822499709     -0.04354033828001
  H   -1.28908100864683      0.96395820949100     -1.24613154406818
  C   -0.11971617571487      2.31209471186797     -0.06748861088162
  N   0.11525621677670      3.42394209577524      0.23846004262942
  C   -0.44659488478017     -1.51376803607039     -0.46441675397619
  H   -1.16689661185067     -1.44103793308357     -1.27947158479641
  H   -0.90035801954571     -2.04067614876521      0.37606663371422
  H   0.40985282570601     -2.10554354652366     -0.79687806534198
  N   1.04090770018561     -0.14499534851161      0.99640677503626
  O   1.88446799279913      0.74678659566496      0.96006661856839
  O   0.97946968991053     -1.05334619922586      1.82430007955995
