12
Coordinates from ORCA-job run
  C   -0.77790992849455      0.95512432741532     -0.02399207323310
  C   -0.02401032833441     -0.15887761471136      0.02038980860315
  H   -1.85225057892376      0.83443993103161     -0.13041449784321
  C   -0.29923640349186      2.29656716850532      0.02632568813267
  N   0.00324921041303      3.43382967676403      0.03934234668073
  C   -0.53028024214232     -1.55522852025577     -0.08205007544248
  H   -0.17714004171133     -2.14954977517143      0.76431282290530
  H   -0.15515346657556     -2.02740551139211     -0.99105583238094
  H   -1.62036751909936     -1.56255489628310     -0.09193174992461
  N   1.44148533347468     -0.04308772223161      0.13143839770927
  O   2.09170230982769     -0.88601121227712     -0.48580570107364
  O   1.89991165505776      0.86275414860620      0.82244086586685
