12
Coordinates from ORCA-job run
  C   0.06277260371789      1.25209772616386     -0.24610651470764
  C   0.23666729692556     -0.02830590827999      0.13187663600280
  H   0.82067149647623      1.99379081334734     -0.01770152854425
  C   -1.10918689156757      1.66427407802179     -0.94117943750493
  N   -2.07750344506443      2.00871050871293     -1.51544960051721
  C   -0.67598660414085     -1.18124537668056     -0.08575305675978
  H   -0.17826637606250     -1.95341919786464     -0.67507206312589
  H   -0.95160764005970     -1.63240581483399      0.86935172067073
  H   -1.57671406160499     -0.85343092742929     -0.60479390759158
  N   1.49971523471384     -0.33622675398342      0.84763930385445
  O   2.26403773830282      0.58624172768556      1.11351195910503
  O   1.68540064836369     -1.52108087485958      1.12467648911827
