12
Coordinates from ORCA-job run
  C   -0.05276135914450      1.27321582347153     -0.08895038434642
  C   0.24389353950598     -0.02351243830246      0.11839760096402
  H   0.64981115909535      2.04499760005294      0.20659795104690
  C   -1.28164317802152      1.66290338396996     -0.69290391652349
  N   -2.29683089060523      1.99055989760580     -1.19084900100432
  C   -0.57718559268951     -1.21722335222142     -0.21366895294955
  H   -1.51851089528637     -0.90961619125307     -0.66922691899907
  H   -0.03705944861773     -1.86949756377589     -0.90232644511436
  H   -0.78278690433131     -1.79906333303592      0.68670769566354
  N   1.55521674059629     -0.30366940766966      0.75506728592123
  O   1.83091623913437     -1.49225740361312      0.91754733480443
  O   2.26794059036418      0.64316298477130      1.07360775053709
