12
Coordinates from ORCA-job run
  C   -0.68890740584361      0.95750176033869     -0.31116952116411
  C   0.00471507159933     -0.15662516441191     -0.00361769498596
  H   -1.66340871498165      0.81554423776927     -0.77046370299976
  C   -0.30705344088776      2.31448333072176     -0.10562808563984
  N   -0.11820197215454      3.47075338523798      0.00819774010750
  C   -0.47759496553648     -1.54437711277232     -0.25037757821780
  H   -1.45987214807118     -1.52132288679078     -0.72223122592033
  H   0.21969424109374     -2.08267539573379     -0.89473979371510
  H   -0.54043792594162     -2.09910714585564      0.68727671448723
  N   1.33905586779838     -0.06504234916049      0.62726641301694
  O   1.81534054439044      1.04772765437358      0.82972098112654
  O   1.87667084853496     -1.13786031371634      0.90476575390468
