12
Coordinates from ORCA-job run
  C   -0.57301122305871      0.96793183623763     -0.50292082389628
  C   -0.02879304139162     -0.15926149296175     -0.00850211653398
  H   -1.56367845844472      0.90001886535998     -0.94343371539850
  C   0.01563895966391      2.26572720114537     -0.47989427616005
  N   0.41123121458068      3.37407342291929     -0.48839459667403
  C   -0.67277006009366     -1.50150362545339      0.00617725737016
  H   -0.01474633972680     -2.24282881380313     -0.45393772278079
  H   -0.85601408917426     -1.82112108650003      1.03299027805392
  H   -1.61599121679568     -1.47467351531947     -0.53980138657463
  N   1.30028898863970     -0.10871109562136      0.62782300621237
  O   1.45669173278526     -0.85130656597045      1.59642662660685
  O   2.14115353301591      0.64965486996731      0.15246746977496
