12
Coordinates from ORCA-job run
  C   -0.65750088333553      0.97853612541995     -0.35873486317666
  C   -0.03383950323326     -0.15830713454406      0.00165203701932
  H   -1.72890581865649      0.93416777060898     -0.53248612376819
  C   -0.05016975714101      2.25912612734123     -0.50853563257335
  N   0.35791069462999      3.35555301382343     -0.63629026814493
  C   -0.68639557948302     -1.48122224949406      0.20315077294691
  H   -0.61026286242269     -1.78442484687259      1.24827665768403
  H   -1.73638393470225     -1.43328631701551     -0.08594589996743
  H   -0.18576529802191     -2.24600441753389     -0.39579159507722
  N   1.41384163635101     -0.13874055603134      0.27999629650237
  O   1.79221595931915     -0.87479171825943      1.19060530289242
  O   2.12525534669601      0.59039420255727     -0.40589668433726
