14

C	0.0	0.0	0.0
C	-0.466497	-0.1445	-1.446928
F	1.404752	0.0	0.0
H	-1.562058	-0.085856	-1.456965
H	-0.163731	-1.134074	-1.796853
N	-0.39917	1.288958	0.500798
H	-0.095161	1.367659	1.466662
H	-1.420019	1.302436	0.496357
N	-0.415848	-1.179475	0.71533
H	-1.436445	-1.198142	0.666843
H	-0.164234	-1.063646	1.692449
C	0.10291	0.866295	-2.332001
N	0.540141	1.630196	-3.106637
Br	-3.735079	0.0	0.0
