14

C	0.0	0.0	0.0
C	-0.421829	0.390339	-1.425364
F	1.404235	0.0	0.0
H	-1.519084	0.424397	-1.428534
H	-0.087992	-0.376472	-2.132276
N	-0.448211	0.861851	1.041574
H	-0.123068	1.805304	0.865367
H	-1.471307	0.843638	1.013454
N	-0.475116	-1.304461	0.264754
H	-0.04086	-1.98365	-0.343061
H	-0.322718	-1.529836	1.237151
C	0.151779	1.670854	-1.823592
N	0.602092	2.707188	-2.14177
Br	-3.789879	0.0	0.0
