14

C	0.0	0.0	0.0
C	-0.449252	-0.106124	-1.46256
F	1.409017	0.0	0.0
H	-1.548164	-0.091894	-1.441682
H	-0.116573	-1.054033	-1.897947
N	-0.456054	1.157886	0.695245
H	-0.188574	1.993675	0.188496
H	-1.477313	1.095979	0.716685
N	-0.46829	-1.139738	0.698971
H	-0.297418	-1.012829	1.687404
H	-0.01752	-1.979519	0.363745
C	0.074202	0.995222	-2.262836
N	0.50857	1.882334	-2.896909
Br	-3.856589	0.0	0.0
