14

C	0.0	0.0	0.0
C	-0.480356	-0.37269	-1.396066
F	1.429019	0.0	0.0
H	-0.17365	0.414804	-2.086799
H	-1.576962	-0.415051	-1.352593
N	-0.452674	1.318234	0.299517
H	-1.47443	1.268886	0.274712
H	-0.186027	1.550387	1.247941
N	-0.411669	-0.993602	0.937404
H	-0.088112	-0.752118	1.864041
H	-0.039275	-1.89833	0.681731
C	0.065787	-1.649804	-1.839729
N	0.509141	-2.677796	-2.19488
Br	-3.847841	0.0	0.0
