14

C	0.0	0.0	0.0
C	-0.428288	-0.29262	-1.449463
F	1.384434	0.0	0.0
H	-1.523458	-0.278134	-1.482041
H	-0.068938	-1.286924	-1.722042
N	-0.405826	1.280588	0.512391
H	-1.425251	1.27857	0.53364
H	-0.094612	2.019802	-0.109475
N	-0.459001	-1.080775	0.815121
H	-1.469025	-1.152579	0.682222
H	-0.313722	-0.799333	1.780063
C	0.114579	0.697069	-2.371801
N	0.538858	1.509482	-3.104917
Br	-3.723868	0.0	0.0
