14

C	0.0	0.0	0.0
C	-0.171287	-0.173626	-1.537784
F	1.437798	0.0	0.0
H	0.216459	-1.176413	-1.729179
H	0.530529	0.543933	-1.970432
N	-0.469164	1.26792	0.420343
H	-1.473973	1.272269	0.229832
H	-0.36395	1.344316	1.42843
N	-0.352178	-1.186227	0.734912
H	0.344343	-1.369352	1.474346
H	-1.313363	-1.102391	1.071406
C	-1.407732	-0.022459	-2.299898
N	-2.209911	0.11401	-3.148303
Br	-3.648825	0.0	0.0
