19

C	-0.541343	0.004702	-1.424699
C	0.0	0.0	0.0
Br	0.388867	-1.348314	-2.506077
H	1.094842	0.0	0.0
C	-2.031576	-0.196483	-1.567091
H	-2.343276	-0.113673	-2.606118
H	-2.297637	-1.184333	-1.1899
H	-2.529324	0.572442	-0.971267
N	-0.164891	1.332767	-2.091145
O	0.839241	1.905803	-1.697237
O	-0.888464	1.727009	-3.007636
C	-0.458862	-1.223724	0.773481
H	0.113098	-1.256599	1.704977
H	-0.243537	-2.14578	0.229909
H	-1.53031	-1.198722	1.017005
N	-0.509233	1.240084	0.62884
H	-0.857237	1.023209	1.555603
H	0.303449	1.836981	0.74571
F	2.646623	0.0	0.0
