19

C	-0.211491	0.062369	-1.519385
C	0.0	0.0	0.0
Br	-2.072162	0.580215	-2.041929
H	1.096084	0.0	0.0
C	0.778579	1.020393	-2.145712
H	0.500078	2.039351	-1.872942
H	1.750622	0.771528	-1.692883
H	0.792921	0.934647	-3.232657
N	-0.006184	-1.33064	-2.106045
O	-0.916958	-2.149499	-2.013893
O	1.103896	-1.565273	-2.578245
C	-0.633842	-1.174162	0.713473
H	-0.429573	-1.045434	1.777529
H	-0.207969	-2.126591	0.39505
H	-1.71939	-1.212002	0.567311
N	-0.352118	1.261362	0.650436
H	0.431499	1.894557	0.547698
H	-1.18055	1.681882	0.24361
F	2.67261	0.0	0.0
