19

C	-0.256695	0.005759	-1.506332
C	0.0	0.0	0.0
Br	-0.078309	1.816396	-2.242851
H	1.094188	0.0	0.0
C	0.746509	-0.88643	-2.211193
H	1.717204	-0.634701	-1.757864
H	0.733593	-0.739538	-3.289361
H	0.517969	-1.937051	-2.003565
N	-1.691827	-0.375177	-1.849631
O	-1.893489	-1.068426	-2.845403
O	-2.577536	0.03449	-1.098744
C	-0.432967	-1.329242	0.623854
H	-0.025209	-2.193612	0.094824
H	-1.523951	-1.426415	0.681298
H	-0.028086	-1.360365	1.638654
N	-0.509829	1.159016	0.703714
H	0.13274	1.367191	1.455724
H	-1.429121	0.976864	1.085794
F	2.696857	0.0	0.0
