19

C	-0.566439	0.001747	-1.413868
C	0.0	0.0	0.0
Br	0.346512	-1.346801	-2.514856
H	1.094852	0.0	0.0
C	-2.058938	-0.206303	-1.522522
H	-2.312197	-1.195369	-1.13989
H	-2.395195	-0.12398	-2.553749
H	-2.5461	0.560282	-0.915194
N	-0.210609	1.331431	-2.086827
O	0.809935	1.898053	-1.726575
O	-0.965902	1.733837	-2.973618
C	-0.443356	-1.223821	0.783957
H	-1.509116	-1.200387	1.050447
H	0.149659	-1.254424	1.701963
H	-0.237925	-2.146178	0.236881
N	-0.502219	1.239982	0.634996
H	-0.842508	1.02324	1.564627
H	0.312213	1.836131	0.744959
F	2.646088	0.0	0.0
