17

C	0.0	0.0	0.0
C	-0.339981	-0.030907	-1.508387
F	1.409834	0.0	0.0
H	-0.029043	-1.002789	-1.894281
N	-0.563739	1.076966	0.667874
H	-0.34664	1.970521	0.256734
H	-0.526395	1.045054	1.672409
C	-0.394938	-1.271525	0.633293
N	-0.642576	-2.2914	1.158511
N	0.60576	0.92837	-2.183574
O	0.575075	2.106167	-1.822305
O	1.329127	0.49144	-3.076695
C	-1.763239	0.32296	-1.863182
H	-1.928571	1.388237	-1.702665
H	-2.527047	-0.151927	-1.206158
H	-1.944557	0.078893	-2.914988
H	-4.078762	0.0	0.0
