17

C	0.0	0.0	0.0
C	-0.488887	-0.050227	-1.448503
F	1.398542	0.0	0.0
H	-1.568652	-0.276057	-1.357144
N	-0.581581	1.131237	0.614314
H	-1.619522	0.929992	0.477446
H	-0.412552	1.078523	1.617418
C	-0.307226	-1.274436	0.727902
N	-0.454739	-2.211644	1.420403
N	0.172408	-1.198764	-2.136844
O	1.143968	-0.972138	-2.86334
O	-0.302974	-2.319962	-1.937605
C	-0.223883	1.241756	-2.190205
H	-0.475803	1.121842	-3.24648
H	-0.850014	2.020015	-1.756281
H	0.82442	1.531212	-2.109249
H	-2.924908	0.0	0.0
