17

C	0.0	0.0	0.0
C	-0.603653	-0.120845	-1.386904
F	1.395583	0.0	0.0
H	-1.710423	-0.245492	-1.122777
N	-0.506146	1.206935	0.572753
H	-1.542598	1.077927	0.500949
H	-0.270742	1.215623	1.560889
C	-0.347837	-1.179922	0.856129
N	-0.572768	-2.020408	1.647839
N	-0.154461	-1.338936	-2.097026
O	-0.455409	-1.432389	-3.291946
O	0.442154	-2.218852	-1.472034
C	-0.415097	1.099428	-2.263839
H	-0.965351	0.966672	-3.193819
H	-0.797396	1.971939	-1.738513
H	0.641233	1.262907	-2.492463
H	-2.920897	0.0	0.0
