17

C	0.0	0.0	0.0
C	-0.506472	-0.127761	-1.442054
F	1.372899	0.0	0.0
H	-1.600569	-0.255663	-1.330045
N	-0.583698	1.172629	0.536489
H	-0.407059	1.193057	1.536235
H	-1.6259	0.97021	0.416425
C	-0.322677	-1.246324	0.772244
N	-0.444373	-2.215485	1.425457
N	0.030828	-1.380834	-2.056043
O	-0.694178	-2.37694	-2.02863
O	1.152786	-1.353507	-2.567758
C	-0.117895	1.067119	-2.285494
H	0.964096	1.188363	-2.309878
H	-0.56964	1.95696	-1.853386
H	-0.481981	0.940027	-3.307876
H	-2.940426	0.0	0.0
