17

C	0.0	0.0	0.0
C	-0.351117	-0.014211	-1.504541
F	1.410106	0.0	0.0
H	-0.049037	-0.984042	-1.902112
N	-0.558342	1.072739	0.682975
H	-0.471303	1.04063	1.685238
H	-0.343785	1.966042	0.268784
C	-0.390005	-1.276292	0.627369
N	-0.627767	-2.299666	1.150201
N	0.597094	0.945929	-2.176339
O	1.314757	0.512436	-3.075785
O	0.574214	2.121074	-1.805757
C	-1.776247	0.351026	-1.842558
H	-1.919636	1.424111	-1.715145
H	-2.540304	-0.092126	-1.158973
H	-1.983807	0.077933	-2.881951
H	-4.075526	0.0	0.0
