17

C	0.0	0.0	0.0
C	-0.192866	-0.076452	-1.567922
F	1.422545	0.0	0.0
H	0.178599	-1.052921	-1.882309
N	-0.577403	1.057786	0.715814
H	-1.601343	0.833336	0.72255
H	-0.447962	1.91285	0.185563
C	-0.389619	-1.302776	0.577306
N	-0.528745	-2.385006	1.01128
N	0.793477	0.883175	-2.174244
O	1.614527	0.439822	-2.975163
O	0.693106	2.070374	-1.861914
C	-1.545179	0.229163	-2.16203
H	-1.542784	-0.039458	-3.223839
H	-2.333048	-0.277267	-1.589104
H	-1.771002	1.290335	-2.050546
H	-3.170539	0.0	0.0
