13
Coordinates from ORCA-job run
  C   -0.55646931833230      0.33680837189849      0.10871896684370
  C   0.80472119832964      0.47447225213209      0.77046591628853
  Cl  -1.70547365289820      1.42141594155885      0.83674347340128
  H   1.17043373401682      1.48954819417172      0.60337477294485
  H   0.65750351288867      0.33206396703511      1.84508003284468
  N   -1.01042080985446     -1.12370250828315      0.24891507816079
  O   -0.70054600362103     -1.85702355402384     -0.67946142165257
  O   -1.54306097179989     -1.42301592877058      1.30441889619539
  N   -0.50758777477299      0.62328532587707     -1.39011734772834
  O   0.56479339338757      1.01121851684989     -1.83599461318366
  O   -1.55480170605257      0.45205198311596     -1.99247292115990
  C   1.78397449008725     -0.48975689881574      0.27809168586397
  N   2.59693390862149     -1.24736566274587     -0.09876251881874
