13
Coordinates from ORCA-job run
  C   -0.53530402255811      0.29650791379671      0.15755858571044
  C   0.86337811525444      0.45103476459386      0.72376896224597
  Cl  -1.64953165925680      1.37179331616994      0.96362374806987
  H   1.15674201908998      1.49575555335483      0.59880016327392
  H   0.81229629824733      0.23651920876535      1.79363239264586
  N   -1.05334200116793     -1.14833328090218      0.32500928970955
  O   -2.18654130808970     -1.37375454129083     -0.06448029393742
  O   -0.27573692802728     -1.93017472773719      0.85947599994165
  N   -0.56822998639399      0.61378771169790     -1.35331925599386
  O   -1.65353926154227      0.54510540087087     -1.90483704521590
  O   0.50581589746750      0.93088819468175     -1.85058562269292
  C   1.86796361856265     -0.41017380788976      0.10557150219908
  N   2.71502921841416     -1.07795570611127     -0.35521842595624
