16
Coordinates from ORCA-job run
  C   0.72529263171097      0.20717566532983      0.48161942745223
  C   -0.81617577722025      0.21238970845523      0.34333980569286
  Br  1.18459233659768      0.98718863219950      2.22719334482971
  H   -1.20543703941212     -0.35470268459336      1.19728418642612
  C   1.32333034508011      1.04908498608636     -0.55091676560398
  N   1.79376800291136      1.68188382062012     -1.42318717811234
  C   1.30767498489759     -1.20266243620954      0.42278876058646
  H   2.37728139701700     -1.17290717811899      0.63101018711930
  H   0.82179562876696     -1.83409961824784      1.16993926764072
  H   1.16216142294583     -1.63183318727933     -0.57040383478852
  C   -1.29124205815860     -0.42936770125880     -0.96692369805719
  H   -1.04459724371360     -1.49095371007947     -0.99455072775500
  H   -0.84130348506013      0.06879497633174     -1.82843407830595
  H   -2.37513557602322     -0.33198238076212     -1.04678378150454
  C   -1.33766708354717      1.57808699639833      0.43916779412688
  N   -1.78633848679243      2.66290411112834      0.46985729025323
