16
Coordinates from ORCA-job run
  C   0.73943278645559      0.18946311791126      0.16458774508511
  C   -0.71294625472211     -0.21557472137564     -0.19060458192840
  Br  0.72722955549707      1.70964943663103      1.40912885874671
  H   -0.61228802708237     -1.06711575850131     -0.87812320349614
  C   1.40845550385186      0.63121130092908     -1.05685245609012
  N   1.93911434616857      0.93906019825558     -2.05987594329621
  C   1.51431196094003     -0.95689712131578      0.80849571512357
  H   1.53041547855988     -1.81209330468633      0.12620312052316
  H   1.03597823221464     -1.25054553073039      1.74392481065049
  H   2.54042682786619     -0.65201695224827      1.01552270161730
  C   -1.53289037686591      0.87585463367010     -0.88157155733694
  H   -2.50519643518083      0.47357956032549     -1.17108058304646
  H   -1.01951578399476      1.22112834861219     -1.78089953483263
  H   -1.69266539886077      1.72240156602259     -0.21424867093541
  C   -1.39756422412833     -0.70680533860187      1.00690448874219
  N   -1.96329819071877     -1.10129943489772      1.95748909047378
