16
Coordinates from ORCA-job run
  C   0.67757351928134      0.16864310515207      0.57746448664830
  C   -0.78011805561095      0.47490534000503      0.13515142263196
  Br  0.63268616117677     -0.53974207992537      2.41414648798623
  H   -1.19722670503246      1.17498385741350      0.86771724593922
  C   1.42552030629359      1.42271866118817      0.64196972439716
  N   2.02084240265145      2.43659650799669      0.66765322826034
  C   1.38890822005729     -0.83331298027772     -0.32457165099069
  H   2.41907025561187     -0.96779306163953      0.00618773214729
  H   0.88551416213922     -1.79947149392178     -0.29160595616244
  H   1.39471605292189     -0.45875625495151     -1.35195577349039
  C   -1.68732695439576     -0.75426685385261      0.03083181334592
  H   -1.71053390145356     -1.29452877990129      0.97710877279799
  H   -2.70186396939010     -0.42980161204758     -0.20700196744975
  H   -1.35651366012274     -1.42614235067507     -0.76191957651257
  C   -0.72596461655425      1.15984393990496     -1.16091914338575
  N   -0.68528321757359      1.66612405553205     -2.22025684616282
