16
Coordinates from ORCA-job run
  C   0.75866631919809      0.15918104984407      0.09393736879354
  C   -0.73584764943292     -0.19539716589325     -0.10827594687272
  Br  0.92896495730070      2.00783621190243      0.73698196798431
  H   -0.73795358247678     -1.23773232107569     -0.45688727171227
  C   1.43139585696156      0.08436189990173     -1.20080104858499
  N   1.96218843225947     -0.02621257164618     -2.24415423332974
  C   1.43779306979745     -0.76744457362443      1.09849410164627
  H   0.95775005435118     -0.67552920031155      2.07358822637936
  H   1.35617950703498     -1.80152035094770      0.75087678311464
  H   2.49286710490929     -0.51164349282720      1.19758300575308
  C   -1.46568524693343      0.66656893651244     -1.14052522888698
  H   -1.52304083134801      1.70322946965518     -0.80948928644453
  H   -2.48048949443110      0.28944345597661     -1.27855584229195
  H   -0.94762053189655      0.62561360453878     -2.10048696880589
  C   -1.43025447883685     -0.16953650878117      1.18058975383165
  N   -2.00391348645707     -0.15021844322408      2.20512461942620
