16
Coordinates from ORCA-job run
  C   0.74072340306845      0.20327345045957      0.46000824279897
  C   -0.80367261458611      0.22571911372145      0.36332824953097
  Br  1.25617005433087      0.99419846264804      2.18471442161885
  H   -1.17629553537920     -0.32839254925453      1.23307178394395
  C   1.32051053528188      1.02805911160686     -0.59660361763328
  N   1.77518616616951      1.64584522560994     -1.48774436852588
  C   1.30421419098709     -1.21417073087042      0.39891068724143
  H   2.37886040240536     -1.19643268628646      0.58075204454926
  H   0.82885318716786     -1.83345714051663      1.16273356320832
  H   1.12930086717749     -1.64922842553573     -0.58684920072694
  C   -1.32151015479405     -0.42302181060329     -0.92727410884614
  H   -0.88958777918114      0.06171656147981     -1.80557292311073
  H   -1.08766640737642     -1.48760422573920     -0.95105211164278
  H   -2.40597259701987     -0.31373799945767     -0.97870920566640
  C   -1.30678915371675      1.59836530681885      0.45885268134678
  N   -1.74432456453497      2.68786833591941      0.48943386191362
