18

C	-0.52005	-0.077401	-1.455409
C	0.0	0.0	0.0
Br	-0.200315	1.751992	-2.167402
H	1.117273	0.0	0.0
C	0.357478	-1.003284	-2.284916
H	0.095938	-0.874067	-3.336449
H	1.413039	-0.772902	-2.125619
H	0.177757	-2.039213	-1.989092
N	-1.908201	-0.379536	-1.645069
H	-2.469478	0.145099	-0.987413
H	-2.038363	-1.370743	-1.485842
N	-0.423827	-1.187941	0.819175
O	-0.589949	-1.011884	2.021913
O	-0.520749	-2.26902	0.244799
N	-0.529635	1.174697	0.7526
O	-1.752852	1.327912	0.72996
O	0.267809	1.882165	1.353918
Br	3.407748	0.0	0.0
