18

C	-0.494492	0.000735	-1.439059
C	0.0	0.0	0.0
Br	-2.439812	0.336438	-1.55336
H	1.090746	0.0	0.0
C	0.183415	1.07953	-2.280956
H	-0.043455	2.084534	-1.929439
H	1.266113	0.933807	-2.228668
H	-0.143236	0.980561	-3.319253
N	-0.272883	-1.352435	-1.927539
H	-0.784428	-1.5063	-2.788193
H	0.720047	-1.473299	-2.113026
N	-0.408774	-1.227525	0.754653
O	0.527078	-1.918138	1.159901
O	-1.598565	-1.492771	0.878646
N	-0.391818	1.204848	0.779491
O	-1.237699	1.114197	1.666643
O	0.231226	2.225988	0.478839
Br	2.752679	0.0	0.0
