18

C	-0.333617	0.046355	-1.490948
C	0.0	0.0	0.0
Br	-2.269627	0.277398	-1.851216
H	1.117616	0.0	0.0
C	0.403033	1.171549	-2.20801
H	1.467611	1.083603	-1.966773
H	0.26053	1.040988	-3.284339
H	0.04454	2.155172	-1.918081
N	0.034853	-1.274873	-1.960014
H	1.012628	-1.431963	-1.709794
H	-0.037769	-1.291646	-2.970895
N	-0.509753	-1.250109	0.637297
O	-1.721065	-1.31095	0.835436
O	0.313825	-2.115933	0.904095
N	-0.444321	1.141407	0.849084
O	-0.533245	0.918748	2.05193
O	-0.608046	2.232288	0.310172
Br	3.362813	0.0	0.0
