18

C	-0.504332	0.002984	-1.44197
C	0.0	0.0	0.0
Br	0.161367	-1.753008	-2.247888
H	1.088299	0.0	0.0
C	-2.005106	0.022397	-1.66543
H	-2.42802	0.914885	-1.200264
H	-2.201976	0.052812	-2.739921
H	-2.473018	-0.863237	-1.245885
N	0.120507	1.120489	-2.03767
H	-0.07598	1.168126	-3.029074
H	1.126604	1.121556	-1.875906
N	-0.461931	-1.102994	0.896808
O	0.087026	-1.116246	1.994939
O	-1.338263	-1.878151	0.524675
N	-0.468988	1.257101	0.684213
O	-1.609623	1.235639	1.152112
O	0.301093	2.206059	0.706565
Br	3.37278	0.0	0.0
