18

C	-0.487712	0.002014	-1.43611
C	0.0	0.0	0.0
Br	-2.440565	0.377353	-1.548063
H	1.090659	0.0	0.0
C	0.212614	1.059317	-2.281215
H	1.290368	0.883121	-2.220583
H	-0.128212	0.959089	-3.315434
H	0.011883	2.069702	-1.929458
N	-0.268118	-1.357901	-1.917351
H	-0.958077	-1.609902	-2.612191
H	0.659589	-1.408478	-2.328202
N	-0.421949	-1.247402	0.711691
O	0.479407	-1.842012	1.305703
O	-1.614866	-1.523061	0.788327
N	-0.432775	1.199253	0.750807
O	-1.154013	1.051861	1.744638
O	0.224435	2.209057	0.50836
Br	2.923968	0.0	0.0
