18

C	-0.552028	-0.00058	-1.429483
C	0.0	0.0	0.0
Br	0.290299	1.497856	-2.397627
H	1.086334	0.0	0.0
C	-0.069101	-1.264739	-2.138381
H	-0.569664	-2.136758	-1.71523
H	1.012997	-1.368149	-2.031863
H	-0.317669	-1.199656	-3.199772
N	-1.969483	0.266456	-1.435203
H	-2.306571	0.272308	-2.389615
H	-2.432068	-0.471594	-0.916282
N	-0.431296	-1.212562	0.783491
O	0.277196	-1.499243	1.738965
O	-1.461758	-1.808026	0.463306
N	-0.507802	1.167047	0.796144
O	-1.468129	0.97111	1.54107
O	0.072102	2.229759	0.631483
Br	3.40156	0.0	0.0
