18
Coordinates from ORCA-job run
  C   -0.58719800473178      0.15433730372395      0.24713224523065
  C   0.77384963510229     -0.47218378910799     -0.13075475770135
  Br  -0.51267857871898      0.76750415898926      2.11919773361263
  H   0.64307693536222     -0.83502359366473     -1.16097932678764
  C   -1.69833652620020     -0.88199231196103      0.15061887373658
  H   -1.76597613273423     -1.24508139769438     -0.88112781355949
  H   -1.51356659319580     -1.73188196118587      0.80902312883020
  H   -2.65698103798831     -0.43699003052289      0.42290453642328
  C   -0.89391565147481      1.36298202400687     -0.62612824400574
  H   -0.87466495834758      1.06586209100812     -1.68085231990252
  H   -0.18008947969253      2.17218507577896     -0.47459017718819
  H   -1.88957561120407      1.74584232402087     -0.39542774965326
  C   1.05147530796838     -1.65331991388301      0.69154064002808
  N   1.29017892475515     -2.60694076294015      1.33405730812396
  C   1.97578157256158      0.47693313517031     -0.10715830545303
  H   2.88346461741998     -0.07111309536267     -0.36646779465723
  H   1.84833788931455      1.28047630446216     -0.83321203430635
  H   2.10581769180413      0.90940443916222      0.88522405722941
