18
Coordinates from ORCA-job run
  C   -0.66127750189322     -0.04063252514627     -0.28570076016023
  C   0.76090045147159     -0.62683172472938     -0.10445892308605
  Br  -1.13512822938455     -0.26381943472855     -2.19062105393949
  H   0.72618064252580     -1.66724435611418     -0.44937493997610
  C   -0.72834014978639      1.44102579581171      0.04743034636519
  H   -0.41622658010734      1.59480597106200      1.08579596468862
  H   -0.08955779957899      2.03630686202327     -0.60519925926805
  H   -1.75253130151875      1.80260349952590     -0.06102481003203
  C   -1.67996837654571     -0.83686858598742      0.51861213498882
  H   -1.48998263831436     -0.70773970820356      1.58793791090517
  H   -1.62611516726757     -1.90133229756776      0.27914004112301
  H   -2.69080694323288     -0.48726190086563      0.30193374951160
  C   1.07203373042326     -0.65313953024256      1.32985497770515
  N   1.32503339821707     -0.64070695155689      2.47703815207259
  C   1.88285991978665      0.10686034360861     -0.84666376539913
  H   1.65451452668444      0.16940754893980     -1.91055103492297
  H   2.82066038436861     -0.43839948954908     -0.72420499436924
  H   2.02675163415233      1.11296648371999     -0.45094373620687
