16
Coordinates from ORCA-job run
  C   -0.61810505120603     -0.08668671948464      0.39599267084345
  C   0.91163399428049     -0.16676221868857      0.42884909751391
  F   -1.10772788870549     -0.76975285876960      1.48210492646425
  H   1.22129491434804      0.11442217572576      1.44153283840488
  C   -1.26247717879428     -0.56876533089496     -0.86706234349724
  H   -0.88135179560311     -0.00033341771859     -1.71408111643301
  H   -1.02652024692535     -1.62552648439829     -1.00031178546518
  H   -2.34123125933990     -0.44713362612119     -0.79620591385080
  N   -0.99483394273722      1.37388386451674      0.66711339361717
  O   -2.10821962319170      1.73675674275507      0.30786908936721
  O   -0.18306649698783      2.05615474766674      1.29021679054673
  N   1.45228272769792      0.70597242361377     -0.60943788426522
  H   1.69969015601078      1.59696168511466     -0.19986209638670
  H   2.27432374175779      0.30214858188779     -1.03716856968192
  C   1.31139675947091     -1.55770514655970      0.20681442976149
  N   1.65291118992496     -2.66263441864500      0.00563647306097
