16
Coordinates from ORCA-job run
  C   -0.55961222616295     -0.06488047167955      0.21743075113863
  C   0.92665231683252      0.02483754038891     -0.14458885746609
  F   -0.75093017849379     -1.20785734116817      0.93492989903097
  H   1.07093998002559      0.94448702212744     -0.71563773069582
  C   -1.49831093233008     -0.02534910908602     -0.95790885246964
  H   -1.39928860095122      0.92081058549602     -1.48934888833967
  H   -2.52241483539439     -0.13350169740586     -0.59544720047320
  H   -1.25452148164987     -0.84919880929918     -1.62628469509855
  N   -0.87734390958201      1.10518833028872      1.13496292497124
  O   -1.38563161656505      0.86912163737668      2.22019791101321
  O   -0.59974537173270      2.20750408581003      0.66902493184943
  N   1.26031400703794     -1.11444643784093     -0.98106710970607
  H   1.27717593146466     -1.95867630998560     -0.42106618671334
  H   2.17788451558295     -0.98948908725248     -1.38944931409431
  C   1.73127218951990      0.12235121641226      1.09104833618592
  N   2.40456021239853      0.15009884581775      2.05320408086728
