16
Coordinates from ORCA-job run
  C   -0.62993888245875     -0.07907971486833      0.37927703095341
  C   0.89729625304729     -0.17774248872782      0.45311784309969
  F   -1.15706174346067     -0.75448343150645      1.45245421697006
  H   1.18303259704395      0.09852578151885      1.47414622884634
  C   -1.24557524835796     -0.55474622151581     -0.90032457915450
  H   -2.32388259028007     -0.41513375782837     -0.86198871908853
  H   -0.83076116786825      0.00454020600080     -1.73765489994750
  H   -1.02342057204479     -1.61593291990643     -1.02249992235332
  N   -0.99389000495030      1.38672541820332      0.63972625340637
  O   -2.08543589996603      1.77016815416945      0.23711051061019
  O   -0.19773551181364      2.05218082381686      1.30001895958732
  N   1.47578356142229      0.69169282360131     -0.56676193440936
  H   2.29647562862313      0.27501680086760     -0.98455602486219
  H   1.73343614072778      1.57498505112304     -0.14669844544284
  C   1.28562998026173     -1.57331361180531      0.24011136312927
  N   1.61404746007428     -2.68340291314271      0.04552211865560
