16
Coordinates from ORCA-job run
  C   -0.48870950539908     -0.01937994292507      0.25592075865130
  C   1.01070514611740     -0.03966212814372     -0.10622900589124
  F   -0.75576672389246     -1.10465566959201      1.03476509477936
  H   1.21982608979762      0.86224250359109     -0.68763976229398
  C   -1.42725955182057      0.00598605042905     -0.92248605773127
  H   -1.23494465002263      0.87596757975782     -1.54960769064062
  H   -1.30401812860170     -0.90850245642996     -1.50304102395004
  H   -2.45586145174820      0.04368806878995     -0.55913360314183
  N   -0.74171814329556      1.22152842088637      1.09409930436072
  O   -0.45817466023092      2.27672536293526      0.53118509269041
  O   -1.19624158755188      1.08269753819373      2.21915661121698
  N   1.43072008971765     -1.19826262932741     -0.86469534319191
  H   1.13653508700813     -2.05423297316522     -0.41166100298899
  H   1.07490531579026     -1.17053047006624     -1.81021982490988
  C   1.79265197649463      0.03631207395327      1.13774663212738
  N   2.39935069763732      0.09107867111310      2.14083982091361
