16
Coordinates from ORCA-job run
  C   -0.54685380798443     -0.08793791952170      0.23806508817097
  C   0.91937595224454      0.06613271516320     -0.18098814917774
  F   -0.65739149679255     -1.22907396705703      0.97495460285678
  H   0.99875194257859      0.98276339374298     -0.76905101931169
  C   -1.52892094647108     -0.10730932732530     -0.90148924971693
  H   -1.26944752809842     -0.92541101823950     -1.57097227733870
  H   -1.49645396508154      0.83675695932025     -1.44485478203413
  H   -2.53285570500543     -0.26133532745160     -0.50108871306120
  N   -0.88516285646854      1.07763240848394      1.15470989725519
  O   -0.65837819404921      2.18587391928883      0.67611371840130
  O   -1.36412625712052      0.83068718184418      2.25086671963341
  N   1.27523485192163     -1.06871178116210     -1.01457288554524
  H   2.17381369241220     -0.90953827117645     -1.45242152233340
  H   1.34734712217564     -1.90344660255127     -0.44485677115540
  C   1.76215883190395      0.21930289478159      1.02323527590211
  N   2.46390836383518      0.29361474186000      1.96235006745469
