16
Coordinates from ORCA-job run
  C   -0.63581259778203     -0.08244443924960      0.39230552962554
  C   0.89174599786601     -0.12804113485180      0.47679821487453
  F   -1.14004668728646     -0.82595770610807      1.42663789105110
  H   1.14070723371471      0.21642435784058      1.48384455679096
  C   -1.23061720066475     -0.53234312094454     -0.90801311165142
  H   -2.31599247832048     -0.45405002296987     -0.85955057905905
  H   -0.87901434517533      0.08860449817970     -1.73027446951620
  H   -0.95457182787631     -1.57481564458857     -1.07658526145590
  N   -1.01463153322428      1.36341412438499      0.70742196798538
  O   -1.70304909687934      1.97171145154642     -0.10258921516486
  O   -0.60148194337766      1.79173407572890      1.77960582983874
  N   1.44679872402597      0.80109638999762     -0.49128502971352
  H   2.34957856166679      1.13794398538787     -0.18496507374457
  H   1.56455289218648      0.36228269013155     -1.39584222230437
  C   1.34769774306588     -1.52007958302515      0.33159234965747
  N   1.73413655806080     -2.61447992146004      0.14989862278617
