11
Coordinates from ORCA-job run
  C   0.69175003784493     -0.55600600228830     -0.41216414086383
  C   -0.71276283725811     -0.38314545774559      0.14586675155868
  Br  1.14505443035221     -2.45068297174389     -0.35274401133566
  H   -0.77486179122137     -0.65411392476236      1.19785829178908
  H   0.72372390990860     -0.25797518155279     -1.45914819763930
  H   -1.42888588467837     -0.96342314566549     -0.43828480447757
  C   1.66616141086955      0.21421589928936      0.34830743707558
  N   2.42887274512640      0.84938204874308      0.97672547117351
  N   -1.13352531851198      1.05182562211563      0.03359848773224
  O   -0.78045947088797      1.65092369457232     -0.97962951896893
  O   -1.82606723154388      1.49899941903802      0.93961423395619
