11
Coordinates from ORCA-job run
  C   0.77021684540307     -0.51523461537510     -0.32101930331143
  C   -0.72570619873655     -0.36004991725776     -0.09510887825129
  Br  1.16570617211546     -2.41820792270700     -0.47431706491795
  H   -1.28694707214438     -0.80695721752443     -0.91753886908287
  H   1.06488163610816     -0.05661517185361     -1.26363393003944
  H   -1.04675835896074     -0.79160779733236      0.85117154099381
  C   1.53963666803396      0.06692167892914      0.76968302000071
  N   2.13540348093233      0.54387556788392      1.66264184590579
  N   -1.10266769238959      1.09183559435653     -0.06544631973180
  O   -2.09452020563286      1.38486362957888      0.59053139830674
  O   -0.41724527472887      1.86017617130179     -0.73596343987227
