11
Coordinates from ORCA-job run
  C   0.70654257084664     -0.50253524654223      0.11285053584784
  C   -0.33875081062571      0.53708489752804     -0.25605270930228
  Br  0.87130517381843     -0.64252648248534      2.04854726921214
  H   -0.40249468863600      0.63385476289700     -1.34321109571669
  H   0.38943388493476     -1.48576080067103     -0.23722881251115
  H   -0.14316762982846      1.50337998604745      0.20386536653682
  C   1.99084705661038     -0.14655265864580     -0.47198180425752
  N   3.00854667980732      0.16027224277150     -0.97213498227506
  N   -1.69041715875759      0.08992106630921      0.20377183352344
  O   -1.98466991580259     -1.08105377893170     -0.01715440321867
  O   -2.40617516236718      0.93391601172290      0.73072880216114
