11
Coordinates from ORCA-job run
  C   0.72593734004494     -0.67116953180381     -0.12042197695210
  C   -0.72328549300310     -0.27306779487563     -0.34396836939672
  Br  1.00236488415652     -1.24526996264292      1.72133339632482
  H   -1.38813539885702     -1.11527620165122     -0.16261146956348
  H   0.91794354154907     -1.55873223450479     -0.72897185254610
  H   -0.85891370162419      0.10183192758329     -1.36238856254601
  C   1.69767662552709      0.34899133489776     -0.49251230647586
  N   2.50717270326469      1.11815270679798     -0.85661027142505
  N   -1.17501503366776      0.82355617161143      0.56877387828377
  O   -2.33117201160872      0.75093074677652      0.97145542037282
  O   -0.37357345578152      1.72005283781138      0.80592211392392
