11
Coordinates from ORCA-job run
  C   0.71717459944080     -0.66068342769125     -0.20137514304879
  C   -0.74404718191605     -0.25855563033863     -0.30974620687232
  Br  1.11331542333521     -1.32647791215802      1.58703922777049
  H   -0.94603626378184      0.16675817599222     -1.29690232079312
  H   0.87049176112241     -1.51531671895525     -0.86549968758434
  H   -1.39454438394754     -1.11203340693088     -0.12904091647154
  C   1.66150493252184      0.38142270622730     -0.58296585487525
  N   2.44515202614903      1.17139327265559     -0.95889462933657
  N   -1.13689039551780      0.78825481678633      0.68492919081423
  O   -0.32318044518862      1.67573977927714      0.91409384074422
  O   -2.26394007221744      0.68949834513545      1.15836249965300
