14
Coordinates from ORCA-job run
  C   0.65944152976408      0.81699875765146     -0.29014399301831
  C   -0.66861721799296      0.06711161203892     -0.21258874299175
  Cl  0.65164070681119      2.04671140997812     -1.54591032198782
  H   -0.88617033386410     -0.30305573336787     -1.21996562240561
  H   0.93515461780507      1.27844437138609      0.65670263557005
  N   1.73393930073100     -0.19929160093872     -0.58154073405114
  O   1.63364329000692     -0.82542364772325     -1.62920036502207
  O   2.58687570458299     -0.34870481529660      0.28866761890845
  C   -1.71639069445368      1.01083024112864      0.17650014042007
  N   -2.56001450950798      1.74894546909531      0.52546284294580
  C   -0.60020548648457     -1.10301801999953      0.77595459824166
  H   -0.28795168386556     -0.76139354330472      1.76495647312837
  H   0.10021120812771     -1.86163791541500      0.42427461394159
  H   -1.58355643166009     -1.56551658523287      0.86683085632071
