14
Coordinates from ORCA-job run
  C   0.54428710753558      0.59144417887672     -0.85786194414502
  C   -0.76128478972847      0.13596530857989     -0.18971631905330
  Cl  0.83384965867198     -0.28998451510589     -2.34830052173595
  H   -1.53033431047875      0.22114062073602     -0.96590791954958
  H   0.52602664547348      1.65673172661185     -1.07966330492056
  N   1.68995115975553      0.40478736504833      0.11259592712656
  O   2.25572749757149     -0.67908775132830      0.14986938587781
  O   1.90083952396293      1.37547612039792      0.83489703009955
  C   -1.11779655250502      1.06978487243332      0.88192975653544
  N   -1.42756872097326      1.79684368690521      1.75040451316843
  C   -0.72801547756595     -1.30386090946955      0.33102129665562
  H   -0.03674595786218     -1.40539771020952      1.16755835633837
  H   -0.42365656451956     -1.98911387285175     -0.46000982829823
  H   -1.72527921933781     -1.58372912062426      0.67318357190086
