14
Coordinates from ORCA-job run
  C   0.55142929290388      0.55844400477061     -0.87548259312371
  C   -0.75972706294948      0.15042054469939     -0.18795563984047
  Cl  0.80737811431169     -0.36162990796894     -2.34832399616238
  H   -1.53265535097822      0.23638971267886     -0.96015477740068
  H   0.55857929443912      1.61893704750125     -1.11964239339728
  N   1.69944018557224      0.36324970537607      0.09106785282676
  O   1.93934835065279      1.34283680334455      0.79197014463173
  O   2.23877481364954     -0.73324222334831      0.14672033365477
  C   -1.08538480139505      1.11727983689977      0.86412927568488
  N   -1.37178462471810      1.87206185873405      1.71687050633937
  C   -0.75611338172838     -1.27703097548827      0.36682200251915
  H   -0.46542053984320     -1.98698969372973     -0.40723712145089
  H   -1.75873429730081     -1.52826678476662      0.71531073764998
  H   -0.06712999261602     -1.37245992870268      1.20590566806877
