14
Coordinates from ORCA-job run
  C   0.84007273733959     -0.03783999353188     -0.55962302687947
  C   -0.52787601126497      0.11135088648913      0.10826477210758
  Cl  1.76724365083778     -1.38085994480575      0.06600611256063
  H   -0.98188252351358      1.00063467841806     -0.34258434922284
  H   0.71691117289202     -0.15811791915276     -1.63597026833039
  N   1.58275533378391      1.28132823036311     -0.39802956454641
  O   2.53559934598976      1.35450449288912      0.36026369545383
  O   1.09035233358584      2.18999802478590     -1.06114724374861
  C   -0.36713244328249      0.36687708122976      1.54110421611931
  N   -0.26464996261923      0.55790353273515      2.69499871522279
  C   -1.42713271912068     -1.10030881880129     -0.14509237091270
  H   -1.01670262940859     -1.99646006874474      0.31907175546413
  H   -1.52899391798376     -1.27124523121485     -1.21926217007893
  H   -2.41856436723558     -0.91676495065897      0.27099972679107
