14
Coordinates from ORCA-job run
  C   0.66504819817799      0.84704193074843     -0.16298716299914
  C   -0.66440130794149      0.09732503003853     -0.21266619702872
  Cl  0.68043036288347      2.23933455041801     -1.23540237796625
  H   -0.86250809594496     -0.13222118844290     -1.26486849972791
  H   0.92625150437903      1.17090252497417      0.84316214533436
  N   1.74329276716545     -0.12328875344939     -0.57564845657758
  O   2.58097579667703     -0.39575672639992      0.27948986434212
  O   1.65928678086989     -0.59723442772990     -1.70163085246463
  C   -1.71933198031157      0.98174718539278      0.28189659711676
  N   -2.56968031862647      1.66733627736743      0.71209940299705
  C   -0.61403562013452     -1.19650611481987      0.60877044102931
  H   0.09531880809157     -1.90061799002831      0.17205895010006
  H   -1.59796824474329     -1.66660516300553      0.61422099446466
  H   -0.32367865054211     -0.99345713506354      1.64150515137990
