14
Coordinates from ORCA-job run
  C   0.57303702982306      0.55637849552821     -0.86255726585916
  C   -0.75324617568136      0.18249086201770     -0.18488339139029
  Cl  0.79618860332230     -0.34018996086955     -2.35515075346101
  H   -1.52106549325523      0.31339304549084     -0.95587657142665
  H   0.62026745528061      1.62091209512510     -1.08354850208277
  N   1.71191756357043      0.29770916004249      0.09978727794093
  O   1.98591740601292      1.25190828352207      0.82298074708033
  O   2.21173925375821     -0.81826713041472      0.13049833572244
  C   -1.04502036315625      1.13751619448435      0.88768772047294
  N   -1.30467318001683      1.88362240569031      1.75644853701645
  C   -0.80293699289081     -1.25584235452119      0.33856934418761
  H   -1.81411163125253     -1.47716879668443      0.68270758524069
  H   -0.53933162096786     -1.95906162405308     -0.45120424036023
  H   -0.11768185454666     -1.39540067535810      1.17454117691873
