14
Coordinates from ORCA-job run
  C   0.71024532845316      0.82008008561050     -0.09564598244045
  C   -0.65324671799626      0.14411177776754     -0.22206919851552
  Cl  0.82310237513867      2.27048472823041     -1.08166003955964
  H   -0.83623017072089     -0.01006524925146     -1.29069719158893
  H   0.95903105684839      1.07061609832258      0.93420832038839
  N   1.75022577854608     -0.17714796876334     -0.53927428292572
  O   2.55313532019937     -0.53775113800088      0.31664081481101
  O   1.67237349116718     -0.58185182953427     -1.69253859675980
  C   -1.67488521201007      1.04976201480164      0.30303866189987
  N   -2.49987158645772      1.75092216386704      0.75705424148784
  C   -0.68908457611884     -1.19855012751438      0.51786059012365
  H   -1.69552798782754     -1.61596408992699      0.47302704075515
  H   -0.41455934837104     -1.07378792468545      1.56735302537704
  H   -0.00570775085048     -1.91085854092295      0.05370259694711
