14
Coordinates from ORCA-job run
  C   0.84642517876169     -0.03729072189947     -0.46860559284089
  C   -0.55488527012412      0.12513681685620      0.10392521292150
  Cl  1.84054193263122     -1.14553170753043      0.47049368610313
  H   -1.03014793754546      0.93934072025639     -0.45318314062827
  H   0.80257335531829     -0.41792099095756     -1.49058258119813
  N   1.57252357492054      1.29330272287538     -0.58380828319179
  O   2.63076893984258      1.26510052965191     -1.19730254438941
  O   1.03451056012183      2.27946008148666     -0.09059548827223
  C   -0.51806175784265      0.51383889397043      1.51457126719003
  N   -0.51622140538889      0.76146619588302      2.66177794240759
  C   -1.37131144392959     -1.15898552124800     -0.08149972687464
  H   -2.38908815772120     -1.00344533342489      0.27802140051587
  H   -0.93116662219607     -1.98539990827500      0.47621821752829
  H   -1.41646094684817     -1.42807177764465     -1.13943036927106
