14
Coordinates from ORCA-job run
  C   0.67076068808696      0.75663415163313     -0.40066329032927
  C   -0.66817811764525      0.04398221761818     -0.22209551511814
  Cl  0.68474493030048      1.79330354475645     -1.81967997907569
  H   -0.88921431310617     -0.46422144929223     -1.16658397429238
  H   0.95029838914842      1.34521342796290      0.47160199263744
  N   1.73067476731921     -0.30656932089789     -0.53786448816435
  O   2.57612131364253     -0.34443606129489      0.35145589986389
  O   1.62456029251193     -1.07379152580776     -1.48640025149751
  C   -1.70181858817014      1.04951075049245      0.02313652127609
  N   -2.51893756613770      1.86298594348333      0.24416567712859
  C   -0.61825214179421     -0.97362982899743      0.92405616691797
  H   -0.30408040216947     -0.49842387893191      1.85559700792215
  H   -1.60815924397470     -1.40542103918994      1.07525242579282
  H   0.07247999198812     -1.78413693153440      0.68802180693839
