14
Coordinates from ORCA-job run
  C   0.81532823985841      0.06747752275633     -0.59238441044173
  C   -0.52558319637351      0.07748039549091      0.14327287344465
  Cl  1.80657599268752     -1.31614993729160     -0.19606106751802
  H   -1.02415167595402      1.00358481714243     -0.16339913216555
  H   0.64780280187469      0.09203513384277     -1.66917314534626
  N   1.52719929272338      1.37661622904625     -0.27975171737578
  O   2.50989209719011      1.37727067587267      0.44306547252400
  O   0.98139444098366      2.35029584455552     -0.79152005194934
  C   -0.30985727340179      0.14127553937020      1.59025855174719
  N   -0.16236050895426      0.17677585621927      2.75450628074126
  C   -1.40005863467517     -1.11872027397837     -0.23818259464624
  H   -1.54312837787438     -1.14610172962176     -1.32089980715078
  H   -2.37746234850677     -1.02696163948089      0.23726858466129
  H   -0.94459084957787     -2.05487843392372      0.08300016347531
