14
Coordinates from ORCA-job run
  C   0.57072255573700      0.55997831395253     -0.86171313682573
  C   -0.75379767821274      0.17932601290229     -0.18436600993746
  Cl  0.79909173783404     -0.33560540172589     -2.35426305678605
  H   -1.52320025499350      0.31083691773008     -0.95364718202887
  H   0.61217188582159      1.62471546154075     -1.08301824363405
  N   1.71054039687724      0.30759508923429      0.10105069360137
  O   2.21434309739747     -0.80671499523432      0.13423342159805
  O   1.98113565127135      1.26432137710995      0.82244924394485
  C   -1.04726572627047      1.12982073579475      0.89184637260923
  N   -1.30898269160881      1.87262496927320      1.76280885514187
  C   -0.79874997330821     -1.26090243259586      0.33460769740028
  H   -0.11014424284772     -1.40161953407996      1.16755003580941
  H   -0.53666519102407     -1.96115851681873     -0.45825464012671
  H   -1.80819956667318     -1.48521799708307      0.68171594923380
