15
Coordinates from ORCA-job run
  C   -0.75258718657136     -0.00413284760468      0.53044967253982
  C   0.50196242183873     -0.42082007661969     -0.23552826269650
  Br  -0.27546193617554      0.91309665243984      2.19416305475323
  H   0.11702268091891     -0.88677022396805     -1.15912843768983
  H   -1.28319175675295     -0.90308477980702      0.85780793548052
  C   -1.66543819219277      0.88347367314877     -0.29212743454325
  H   -1.13679866583131      1.78906859643571     -0.58522489020072
  H   -1.97067830004145      0.35116454893025     -1.19902278167173
  H   -2.56101932223752      1.14940710170152      0.27073064985004
  N   1.30423415900798     -1.33937870464437      0.56716554311607
  H   2.03107899586367     -1.74526840118432     -0.01106558868847
  H   0.73666211513710     -2.09899274207247      0.92755306131427
  N   1.25645893319483      0.74135033516339     -0.64959069551020
  H   1.92311837532711      0.48772453640909     -1.36826124584133
  H   1.77563767851457      1.08116233167205      0.15307941978807
