15
Coordinates from ORCA-job run
  C   -0.67395697904621      0.17429192922707      0.75819803473411
  C   0.68442831268749     -0.38757606960859      0.33203609549050
  Br  -0.39831246756333      1.67695112180677      1.99989790748428
  H   1.21438307947909     -0.67930099733867      1.25078675279645
  H   -1.16430327507387     -0.59077076474061      1.36021802364170
  C   -1.55722564506204      0.61063420531656     -0.39264759944208
  H   -2.50894842474361      0.99503806395436     -0.02369472422924
  H   -1.06908132809362      1.37848542841435     -0.99144966968643
  H   -1.76260925140397     -0.25670923419072     -1.02544209997508
  N   1.40977308691055      0.58857745226688     -0.47328922915524
  H   1.51622932506480      1.45689590534760      0.03989715905465
  H   2.33866211274579      0.23345782629952     -0.66915094265622
  N   0.43035312507032     -1.60565984308830     -0.42145436810219
  H   0.32160123302208     -1.35650832242411     -1.39840367344012
  H   1.21700709600653     -2.23780670124211     -0.34650166651509
