15
Coordinates from ORCA-job run
  C   -0.76150113994185     -0.02129070765151      0.51670373328590
  C   0.50368377066495     -0.41462578001617     -0.24436523965485
  Br  -0.30778071453716      0.82240565040383      2.22542279959014
  H   0.13143066530929     -0.84248424971518     -1.19127191697244
  H   -1.30341905061415     -0.92936949238531      0.79702994433648
  C   -1.65437269249841      0.90633185073349     -0.28323869496328
  H   -1.94049285920504      0.41782119285513     -1.22051914596466
  H   -1.11798563296871      1.82298207930069     -0.52287748165576
  H   -2.56150094796693      1.14829538153701      0.27193783824838
  N   1.28827687353325     -1.36830376557568      0.53478333981660
  H   0.70967450626431     -2.13561266966376      0.85965803041596
  H   2.01857042523807     -1.75945684685788     -0.04932526922835
  N   1.26983660713445      0.75883831377225     -0.60039600633381
  H   1.94759066601878      0.53009441325835     -1.31704188727405
  H   1.77698952356913      1.06437463000473      0.22349995635373
