15
Coordinates from ORCA-job run
  C   -0.85992429934816     -0.08052824300017      0.38961317404794
  C   0.64363510979959     -0.30474194778807      0.21212479558736
  Br  -1.31808442429507     -0.30521254907467      2.27621001902229
  H   1.16911072812835      0.30556574782543      0.96135680683890
  H   -1.38995908805974     -0.87932830097849     -0.13528246474862
  C   -1.34334390426065      1.27971959631530     -0.07986645162582
  H   -0.79078306849992      2.08147992566954      0.41798510347016
  H   -1.21368953409411      1.36309011433743     -1.16104675671736
  H   -2.40154663545437      1.41284627581221      0.14597467963120
  N   0.98603998487729      0.05875771851819     -1.17132258961060
  H   1.93303017992765     -0.25330238993229     -1.35533796491273
  H   0.97805107111996      1.06601375272234     -1.29070675071880
  N   0.96458838684390     -1.68657184383092      0.47990242696508
  H   1.95811329679080     -1.80747823248449      0.62811366557540
  H   0.68576219652448     -2.25030962411136     -0.31571769280441
