15
Coordinates from ORCA-job run
  C   -0.82557900979462     -0.09356982052564      0.47218034143500
  C   0.44651428587037     -0.53403405344049     -0.24735102045739
  Br  -0.46141475536866      0.35909800123511      2.34252716659665
  H   0.09165052904423     -0.89093990230163     -1.23082350324321
  H   -1.47760529180672     -0.96667262836785      0.52601660867335
  C   -1.52546790745220      1.07675893576281     -0.19444798936752
  H   -0.93284925669567      1.98899666555177     -0.10854133203733
  H   -2.49404698765729      1.26494281100141      0.27017504565894
  H   -1.69137553614143      0.85414068602019     -1.25438055402108
  N   1.01799931480724     -1.68397213102453      0.41409744599207
  H   1.72887563422795     -2.10765399236685     -0.16994734051923
  H   1.45470391425695     -1.38070985786272      1.27772717015859
  N   1.39061176650834      0.57546930843186     -0.35736805820139
  H   1.02773908182292      1.30357482504648     -0.96258804070974
  H   2.24824421837859      0.23657115284010     -0.77727593995771
