15
Coordinates from ORCA-job run
  C   -0.55504142564007      0.33989111423622      0.52794392312106
  C   0.71863084830805     -0.00221746390020     -0.26083663148155
  Br  -0.29251062622415      2.03440689819435      1.48398886750145
  H   0.85683425315542      0.78024882560488     -1.01529821650329
  H   -0.69082751016568     -0.40073974396763      1.32441206091266
  C   -1.79719877361982      0.44699452213875     -0.33609518745799
  H   -1.66019814128195      1.21896149871264     -1.09667226756621
  H   -2.67155668825019      0.70566433884445      0.26311118808341
  H   -1.96748990339111     -0.50405934784502     -0.84074651050053
  N   0.45632102873025     -1.25035598743267     -0.96200984233163
  H   0.33509869590385     -1.99407795935895     -0.28006485395528
  H   1.29003963003197     -1.48027574706053     -1.49189359438165
  N   1.95430933415187     -0.06688747997560      0.50880405196996
  H   2.19672295671606      0.85031712060249      0.86466791452464
  H   1.82786632157552     -0.67687058879319      1.31068909806494
