17
Coordinates from ORCA-job run
  C   0.68874867757482      0.27510449812922      0.39488959289361
  C   -0.78618192833562     -0.12151028103435      0.55100829358844
  Cl  1.26492574975688      0.93314165219021      1.94480569179908
  H   -0.77550341951976     -0.85344850515912      1.36830466261750
  N   0.86665563018252      1.39328342757614     -0.63517211641901
  O   2.02164582794086      1.66959868929300     -0.93244017156347
  O   -0.14428418536313      1.91984815586237     -1.08930508888879
  C   1.57433524374162     -0.87873443824505     -0.02783934504041
  H   2.61806035477231     -0.57442411618196      0.01395332133473
  H   1.41864208712469     -1.72393582651519      0.64490353553831
  H   1.34295830937510     -1.18193369183931     -1.05067051915778
  C   -1.40535418351472     -0.78950670121590     -0.68293084030579
  H   -1.40615706393181     -0.11571673241191     -1.53793706475787
  H   -2.43940207475228     -1.05726410402389     -0.45957295415621
  H   -0.87133050330889     -1.70561787833767     -0.93715360696345
  C   -1.62024558046671      0.98928495662601      1.01824732958311
  N   -2.34651294127587      1.82183089528740      1.41490927989800
