17
Coordinates from ORCA-job run
  C   0.67009485532340      0.19595552765275      0.37669434646336
  C   -0.86607729950952      0.11948324123653      0.35680413545413
  Cl  1.26270671547588     -0.42014055380842      1.93792396977278
  H   -1.21976287423615      0.66481093373649      1.23588493753984
  N   1.03834559813975      1.68863660665972      0.36190510134997
  O   0.39103788160592      2.41189263297976      1.10944161014131
  O   1.94841435368263      2.03941406696515     -0.37914222767293
  C   1.35537584048539     -0.51879616133804     -0.75965029595583
  H   2.43201057304167     -0.37404351530947     -0.69933403466047
  H   1.00354629098155     -0.12889368071346     -1.71674106157534
  H   1.14071540134578     -1.58556604215382     -0.69723194410662
  C   -1.41211886496883     -1.31070619621554      0.37249212309979
  H   -2.49960105105002     -1.27741265007342      0.45466052403874
  H   -1.01951157429181     -1.85995663603220      1.22831657059843
  H   -1.16046585791818     -1.84350818807240     -0.54491073800371
  C   -1.34582802455885      0.83029466412194     -0.83149551853220
  N   -1.71988196354861      1.36953595036444     -1.80561749795125
