14

C	0.0	0.0	0.0
C	-0.468137	0.164986	-1.435208
F	1.395573	0.0	0.0
H	-1.563709	0.117617	-1.396911
H	-0.296164	-1.00427	0.324555
N	-0.474758	1.077927	0.806376
H	-1.494108	1.068704	0.717315
H	-0.265786	0.873303	1.776875
N	0.041298	-0.944403	-2.238649
H	1.040755	-0.829211	-2.357924
H	-0.388547	-0.917883	-3.154723
C	-0.056581	1.480073	-1.965985
N	0.279879	2.472993	-2.496143
Cl	-3.561926	0.0	0.0
