14

C	0.0	0.0	0.0
C	-0.303213	0.194855	-1.516037
F	1.382943	0.0	0.0
H	0.41571	0.97349	-1.795292
H	-0.308348	-0.990255	0.357238
N	-0.524928	1.101219	0.74026
H	-1.536864	1.075775	0.616249
H	-0.358606	0.944081	1.727557
N	-1.604021	0.608624	-1.981867
H	-1.7585	1.568301	-1.700458
H	-2.357643	0.079232	-1.541606
C	0.118517	-1.033023	-2.216487
N	0.427877	-2.020065	-2.770552
Cl	-3.964949	0.0	0.0
