18

C	0.0	0.0	0.0
C	-0.508571	0.094367	-1.469951
Br	1.973249	0.0	0.0
H	-1.572078	0.340449	-1.373165
C	-0.430015	1.196734	0.832392
H	-0.014017	2.126187	0.449073
H	-0.093901	1.03847	1.858328
H	-1.521886	1.248941	0.807726
N	-0.469723	-1.192683	0.645507
H	-1.48368	-1.085123	0.750676
H	-0.29987	-1.999599	0.056046
N	-0.365385	-1.065722	-2.286641
H	0.534488	-1.513451	-2.170377
H	-1.128002	-1.703943	-2.110899
N	0.122786	1.260954	-2.189785
O	1.04695	1.031689	-2.965505
O	-0.321806	2.380774	-1.932301
Br	-3.799802	0.0	0.0
