18

C	0.0	0.0	0.0
C	-0.34804	0.137784	-1.520153
Br	1.963453	0.0	0.0
H	0.16652	1.033176	-1.872907
C	-0.475984	1.257773	0.716269
H	-0.127915	1.242871	1.752104
H	-0.105043	2.169869	0.240609
H	-1.571146	1.250017	0.717913
N	-0.499446	-1.220938	0.562864
H	-0.412367	-1.171011	1.57296
H	-1.499128	-1.266651	0.358873
N	-1.713183	0.177516	-1.928837
H	-2.231202	-0.640916	-1.631663
H	-2.212332	0.956924	-1.519051
N	0.266917	-0.983068	-2.322878
O	-0.253899	-2.089021	-2.214368
O	1.207434	-0.708248	-3.06628
Br	-4.285463	0.0	0.0
