17
Coordinates from ORCA-job run
  C   -0.66819076990756     -0.16718817892406      0.19021003153202
  C   0.81393619932274      0.00435815413544     -0.18786141694013
  Cl  -1.03396269016675     -1.86526198437065      0.50068299703454
  H   0.92226907507255      1.05396220370001     -0.48783154773935
  N   -0.93615127049388      0.63307151055740      1.46572389267595
  O   -0.31234805203806      1.69155087530060      1.55323382457341
  O   -1.78558296833923      0.24080424369014      2.24990486515608
  C   -1.60782187990389      0.38578869792572     -0.86149180894739
  H   -1.42322446216127     -0.13720903540687     -1.79791453629847
  H   -2.64368856774846      0.24013342337546     -0.55180476944384
  H   -1.41549471720254      1.45293276772917     -0.99762937025908
  N   1.06748455628334     -0.80213732830005     -1.35780160665878
  H   1.17338772918364     -1.77246525808069     -1.08472466686377
  H   1.91531306649798     -0.49620863918655     -1.81713589988438
  N   1.65488711277847     -0.35629041004225      0.94617971114291
  H   1.67638492702112      0.39764936379789      1.62290319881627
  H   2.60080271180181     -0.50349040590068      0.61735710210399
