17
Coordinates from ORCA-job run
  C   -0.65039276773956      0.01378571310448      0.46369869193862
  C   0.86199601702242     -0.17052332171541      0.25638001760794
  Cl  -1.19500248936120     -0.99451806966778      1.83510294033657
  H   1.33714149954218      0.09068161240289      1.20821086105251
  N   -0.83698711203850      1.46204802342113      0.90855322433842
  O   -1.67280595105832      2.13408995693225      0.31711225208181
  O   -0.12884892979460      1.84570671680743      1.83168249172535
  C   -1.48040435638083     -0.27797086711445     -0.75699134623635
  H   -1.29783245899708     -1.30644952048896     -1.06461881908378
  H   -2.53819153505021     -0.13521808619170     -0.54326214702507
  H   -1.19440983697593      0.40180865913172     -1.55927593334920
  N   1.27492640283516      0.79478180130071     -0.73841722698526
  H   1.27348775738011      0.36363686643713     -1.65469668431754
  H   2.19394501442737      1.16378596749670     -0.54060851499534
  N   1.12001787085250     -1.53570645410290     -0.18539258694641
  H   0.81312770691312     -2.19990888673146      0.51675252483308
  H   2.12123316842338     -1.65103011102181     -0.29422974497534
