17
Coordinates from ORCA-job run
  C   -0.64952211262748      0.02647481064685      0.50771970581020
  C   0.85125516824610     -0.25361355326773      0.29469560014198
  Cl  -1.19576226987276     -0.78968964329108      1.98825134912713
  H   1.34231501437390     -0.12474044447119      1.26475203587980
  N   -0.80087181975834      1.51916068271510      0.79439836956013
  O   -1.79077602175799      2.09412597257001      0.35864165345145
  O   0.08238929403396      2.03695870068698      1.47530409577402
  C   -1.51588837129051     -0.36645244819937     -0.65857082578368
  H   -1.16496442273860      0.14550382379531     -1.55542959590721
  H   -2.55330172850557     -0.09873262850077     -0.47110032167933
  H   -1.44545963421306     -1.44609158511156     -0.78675360809079
  N   1.33223927195367      0.67328558713467     -0.73116671198091
  H   1.50257570169907      1.58719325650409     -0.32713722143284
  H   2.21562376304555      0.32794552388541     -1.08640076477868
  N   0.99953692780706     -1.63079530786279     -0.10625024301958
  H   1.91150684015905     -1.98497968141356      0.14628295628411
  H   0.87710439944596     -1.71655306582037     -1.10823647335580
