17
Coordinates from ORCA-job run
  C   -0.65894001811132     -0.11069428632062      0.23413508331280
  C   0.80441558548276      0.08417414554039     -0.18499445050064
  Cl  -0.89047381242316     -1.76095628728963      0.84599020042922
  H   0.86452748685669      1.11506169891138     -0.54376279430675
  N   -0.90564248761482      0.88838585459144      1.36582304725891
  O   -1.21047698181483      0.49664604128508      2.47948363042619
  O   -0.77416085498733      2.05802248634693      1.01727411447950
  C   -1.65502940054695      0.17014589795894     -0.86858986645761
  H   -1.50994319587224      1.18677845813896     -1.23498913989446
  H   -2.67353205456602      0.06416556185362     -0.49021214119136
  H   -1.48865825116336     -0.53265931342337     -1.68190829294424
  N   1.07892681442967     -0.78345035871050     -1.31885275181555
  H   1.17156903850196     -1.74401783681521     -1.00854969998279
  H   1.95083487344127     -0.50961173241768     -1.75453675836664
  N   1.63448567774459      0.00147300595460      1.00113250994923
  H   1.68894196628634     -0.95166715801293      1.34024254763176
  H   2.57115561435674      0.32820382240859      0.80231476197244
