17
Coordinates from ORCA-job run
  C   -0.66998827381800     -0.09099184930277      0.20874731157933
  C   0.81326225860538      0.05623396272308     -0.15658610491313
  Cl  -0.99416134383165     -1.75766666872965      0.72811940149509
  H   0.93104898440774      1.09965533179850     -0.46060959304392
  N   -0.90766580606874      0.86045703517700      1.38229985289161
  O   -1.26696202934398      0.42849045635668      2.46436223067737
  O   -0.71160939983980      2.03847702399170      1.09817997664353
  C   -1.61713797865199      0.28964159827907     -0.90713050177915
  H   -1.45685645268727     -0.38036576098032     -1.74884675698159
  H   -1.41471968335636      1.31489916308429     -1.21804132563786
  H   -2.65094692069652      0.21317900471739     -0.56488241740768
  N   1.08447567554436     -0.76538440412196     -1.32491342173646
  H   1.11928269270860     -1.74402508610271     -1.06284514340915
  H   1.98363974019768     -0.51409658963376     -1.71663240458676
  N   1.60052395754870     -0.12367282371439      1.04790804417098
  H   2.55625616760826      0.17071841554536      0.89434381659909
  H   1.60355841167357     -1.09454880908751      1.33752703543869
