17
Coordinates from ORCA-job run
  C   -0.63139016797237     -0.11227309003671      0.24862802325601
  C   0.87037818674633     -0.02918992432710     -0.15725351790389
  Cl  -1.01292967240300     -1.68271629404159      0.94951852182318
  H   1.02511523771633      1.02393370983894     -0.43534512156759
  N   -0.79757866875267      0.96803766695109      1.31221517498724
  O   -0.82814108698248      0.66153301205528      2.49681472835760
  O   -0.80414626356144      2.11536815911683      0.86759404183307
  C   -1.57472047042016      0.17993117974508     -0.89880078221775
  H   -1.29914741285840      1.11400160241645     -1.38928908416945
  H   -1.52231960760907     -0.64637783483321     -1.60723789679342
  H   -2.60171678884227      0.26057883571733     -0.53889056692004
  N   1.09560040145123     -0.96381386471348     -1.24172467915067
  H   2.09520440393177     -1.11555358240844     -1.29842773314279
  H   0.78335868365528     -0.57949940833793     -2.12441616685640
  N   1.80703090193724     -0.33871724843418      0.89084945084976
  H   1.57477611427065     -1.22826790037391      1.31690916257181
  H   1.82062620969301      0.37402498166555      1.60785644504332
