17
Coordinates from ORCA-job run
  C   -0.71575048018656     -0.20519345898064      0.28063227286456
  C   0.72895332395039     -0.52481136850436     -0.15941184104725
  Cl  -1.28503253974220     -1.52170059118610      1.32932546256795
  H   0.68192843390012     -1.55417991578272     -0.54399483839011
  N   -0.65840355661044      1.08708915785164      1.09633547273134
  O   -0.39080473462577      2.08015666787673      0.42410991340385
  O   -0.84264139949946      1.06490336347504      2.30164175043825
  C   -1.68066226050934     -0.01769630717725     -0.86707043446621
  H   -1.34938660631951      0.80726627845570     -1.49142871591373
  H   -2.68441083402808      0.17139712493767     -0.48202945800619
  H   -1.69864068030790     -0.92894312192092     -1.46653793986043
  N   1.59987542533755     -0.36498965915684      0.99944200680011
  H   1.33611970557904     -0.99654909921099      1.74792410418046
  H   2.55246078674861     -0.57974671008085      0.73127257606224
  N   1.12365013628829      0.31273339043715     -1.26547454638542
  H   1.94669917463867     -0.07145307388210     -1.71197443466922
  H   1.33704610538658      1.24271732284883     -0.92376135031021
