17
Coordinates from ORCA-job run
  C   -0.74434031478992     -0.12139016188632      0.28914624933469
  C   0.67056539857817     -0.60505420736042     -0.09203001791456
  Cl  -1.47247203679358     -1.16619901407011      1.52624427227752
  H   0.48535177508186     -1.51079203909942     -0.67902238187256
  N   -0.66346447432921      1.27033315198322      0.91707251827579
  O   0.40281022092054      1.59585773979341      1.43917337859906
  O   -1.67156930913226      1.96217175256563      0.88617108676180
  C   -1.66165162872972     -0.05141446156671     -0.91188319995572
  H   -1.24108635849160      0.63345795597398     -1.64664138508993
  H   -1.73906774619515     -1.04870034980782     -1.34808797533200
  H   -2.65277165126685      0.28081178425811     -0.61169082878415
  N   1.46391097880708     -1.01110642774322      1.04491169016992
  H   1.73619513977145     -0.20521285107763      1.59093279364149
  H   2.29352693700917     -1.49390885851236      0.72594957239468
  N   1.21507250297084      0.39281925455060     -1.01527124826656
  H   1.89595730560748     -0.04062901045631     -1.62582675887915
  H   1.68403326098169      1.11895574245536     -0.48714776536033
