17
Coordinates from ORCA-job run
  C   -0.70552173815776     -0.21019655136546      0.30219084781023
  C   0.72586897290681     -0.52069646242421     -0.18567314727691
  Cl  -1.23557498891003     -1.53512971776859      1.36072398392992
  H   0.67120328044540     -1.54804594620494     -0.57459845147134
  N   -0.62723910282446      1.07753746605795      1.12341413459714
  O   -0.76579535204349      1.04607327363318      2.33460482952948
  O   -0.39100078921674      2.07675317898529      0.44846641853017
  C   -1.70715653960338     -0.02094568051114     -0.81328755192522
  H   -2.69903398105168      0.16152758911925     -0.39564369977735
  H   -1.74014336920957     -0.92913769316196     -1.41676923174543
  H   -1.39988569851774      0.80871425255175     -1.44363244491516
  N   1.63291200096290     -0.36352798667158      0.94554990975661
  H   1.39615825730211     -1.00042337676023      1.69852488869593
  H   2.57733637950043     -0.57253317211782      0.64576545340026
  N   1.08054657515960      0.32521078956188     -1.29877461592259
  H   1.89299508213344     -0.04954967298143     -1.77191321827404
  H   1.29633101112418      1.25536971005806     -0.95894810494170
