17
Coordinates from ORCA-job run
  C   -0.63503577435805     -0.14005605672052      0.16961741782737
  C   0.88888825060001     -0.04541501286451     -0.12713167866326
  Cl  -1.12909049440666     -1.81565618503378      0.39163817881160
  H   1.06330188779177      1.00832052803203     -0.38245510470083
  N   -0.87963737793848      0.63567295061336      1.46243174704277
  O   -1.49029012419567      0.12683608724382      2.38872279898852
  O   -0.42244020534205      1.77963257959883      1.44082679754007
  C   -1.48719603825536      0.51455807137244     -0.89949569517270
  H   -1.36253123503471     -0.01890870216897     -1.84212831270680
  H   -1.19009566013781      1.55714457066151     -1.02403945435279
  H   -2.54157433940448      0.47002577627922     -0.62141789822522
  N   1.33088411147131     -0.83858703558466     -1.24534733445146
  H   1.04758824849619     -1.80382269734690     -1.12876869860514
  H   0.98162426734339     -0.48415767775891     -2.12459380279260
  N   1.62046987970944     -0.49653697299696      1.03809710613381
  H   2.57602411888740     -0.66264289047507      0.74802126100931
  H   1.62811048477374      0.21459266714909      1.75902267231734
