17
Coordinates from ORCA-job run
  C   -0.68893557735158     -0.05185714545105      0.15341856104061
  C   0.82486870542062      0.00345595406418     -0.09302364862820
  Cl  -1.16819534820674     -1.71308583594547      0.55613491628601
  H   1.03815816189185      1.04919962752846     -0.32981764990438
  N   -0.94956481714034      0.85633269061496      1.35613081734902
  O   -0.65102634600997      2.02924416715064      1.15134789663805
  O   -1.41951321088555      0.39954350082615      2.38425782136011
  C   -1.51769019721714      0.45212592542904     -1.00697365313445
  H   -2.57761043069388      0.43557318676262     -0.74612519606038
  H   -1.22058225240003      1.47377446644535     -1.24523187721167
  H   -1.34003709198413     -0.18482083305416     -1.87055040904393
  N   1.12782919896868     -0.77777186899437     -1.28100381524606
  H   2.06912126096170     -0.57274182330941     -1.59252782816955
  H   1.07640687195878     -1.76790583283474     -1.06975712850035
  N   1.50192250208947     -0.29279192575652      1.15470089323457
  H   2.48535272071987     -0.06466704820244      1.08772812829643
  H   1.41249584987837     -1.27360720527325      1.39229217169418
