17
Coordinates from ORCA-job run
  C   -0.67461605406598     -0.02357409795077      0.42765965358247
  C   0.84949485386980     -0.17523317581198      0.29205504211925
  Cl  -1.27551993130228     -1.12333295300314      1.70187480823858
  H   1.26859623640754      0.03124673572375      1.28286910684451
  N   -0.90793412396826      1.39115684828925      0.95081733452264
  O   -1.72049480970100      2.08901732019219      0.35682683428264
  O   -0.25753767799965      1.72441566883244      1.93406475204763
  C   -1.43320963821006     -0.24861528205113     -0.85222485166422
  H   -1.11550920737704      0.48368629759916     -1.59409361820108
  H   -1.21766256059054     -1.25330382393316     -1.21263834343082
  H   -2.50309899862469     -0.13318426026688     -0.68797094983606
  N   1.29967146225978      0.85622081795390     -0.61641025598745
  H   1.35336747216642      0.48429358223799     -1.55675235709587
  H   2.20113750827735      1.22295038777001     -0.34665501710646
  N   1.15302939678068     -1.50638359351052     -0.21928091347851
  H   2.16043437741770     -1.60200388045567     -0.27914039941968
  H   0.81885169466022     -2.21735659161545      0.42199917458244
