17
Coordinates from ORCA-job run
  C   -0.61406681950791     -0.03144399021629      0.57672336583771
  C   0.88647214985828     -0.13863939153107      0.25502484469371
  Cl  -0.99378312783436     -0.92552847389921      2.06338626293658
  H   1.41292628230888      0.12525123291063      1.17319491248171
  N   -0.86231408313481      1.44017004319224      0.89964041445054
  O   -1.81919681828491      1.98947463459886      0.36770484459392
  O   -0.07867768780189      1.96372905946715      1.68255964251234
  C   -1.51324358961933     -0.48012038506842     -0.54528511786026
  H   -1.28523053330228      0.08457339120349     -1.45040474292910
  H   -1.36449708844014     -1.54814920823634     -0.70779562909030
  H   -2.55705886976288     -0.31043935118229     -0.28926937730351
  N   1.16683362268748      0.87518636739634     -0.76292105823695
  H   1.97860202142743      1.42564426965985     -0.51965496593982
  H   1.32699067275600      0.44634027726468     -1.66460623779739
  N   1.20473176937815     -1.51170828554626     -0.06654770941979
  H   2.20327114021258     -1.66144594859036     -0.00543286590709
  H   0.90824095905971     -1.74289424142298     -1.00731658302230
