17
Coordinates from ORCA-job run
  C   -0.66889976160718     -0.13196028799758      0.21736299476016
  C   0.80851299225801     -0.03550943735093     -0.20438549677847
  Cl  -1.06892123604512     -1.78247626037384      0.69481026405696
  H   0.93439040007259      0.97628740468222     -0.60901348177201
  N   -0.88640833452221      0.79304330171726      1.41565225303083
  O   -1.70461496898899      0.48839980803275      2.26872166543601
  O   -0.25396880723886      1.84911066458911      1.37125319198007
  C   -1.61690165350822      0.34355899495938     -0.86427163612320
  H   -1.46585870573166     -0.27161498951700     -1.74934408179674
  H   -1.40113548568679      1.38715750191888     -1.10586111859475
  H   -2.64940742427121      0.25587067373773     -0.52285840351988
  N   1.01918714808093     -0.95968427748047     -1.29281983755195
  H   1.86263327399524     -0.72016929266317     -1.79744905657587
  H   1.11114174926568     -1.90023502323993     -0.92639567240501
  N   1.66443222870313     -0.30304940952185      0.94421379319190
  H   2.60113116654897     -0.49944156369551      0.61446754216049
  H   1.71368741867568      0.51171219220294      1.54491708050144
