17
Coordinates from ORCA-job run
  C   -0.75069658670805     -0.25653205242964      0.22654605833670
  C   0.74935585786899     -0.55974331226732      0.03975476003132
  Cl  -1.65617016846476     -1.78353787083709      0.28595872800048
  H   0.99872737872494     -1.37693509260858      0.72446818673772
  N   -0.92412128728187      0.36600094058196      1.61053597508994
  O   -0.21281365836785     -0.08629560975530      2.50583368013381
  O   -1.76679829937449      1.24429006185278      1.74796727137708
  C   -1.32480145276300      0.65410035452136     -0.82538018453645
  H   -1.25674289079750      0.14793994822753     -1.78778201706447
  H   -2.36898332555786      0.87249006678813     -0.61316752146566
  H   -0.75513238095849      1.58398206312628     -0.84546070696182
  N   1.48758827283809      0.67476132864648      0.30939058075334
  H   2.42116411732924      0.57990710402620     -0.07169527723142
  H   1.57920015190710      0.81932388033913      1.30845257543215
  N   0.94888910975491     -1.02603115076236     -1.31057726053518
  H   1.06716588923605     -0.23706815260486     -1.93515487979468
  H   1.76516927261454     -1.61865250684470     -1.37068996830286
