17
Coordinates from ORCA-job run
  C   -0.69671482532042     -0.06129977205089      0.14979902767908
  C   0.81546940452206     -0.12082745510696     -0.13133067545570
  Cl  -1.32157653407914     -1.67051075582525      0.51411495127425
  H   1.09166025177734      0.88399052240425     -0.47379444297654
  N   -0.92312576955292      0.84049451827186      1.36462569616366
  O   -0.17001258295085      1.81282713914202      1.43222495936893
  O   -1.85488171844454      0.60782004802692      2.11828671200111
  C   -1.47969974177698      0.55766829072418     -0.98952812674321
  H   -1.12558700704837      1.57661625745867     -1.16422709475836
  H   -2.54271105277138      0.57948651149999     -0.74507591258294
  H   -1.31685345806879     -0.04008477527217     -1.88436260772490
  N   1.02400681022444     -1.02229439305679     -1.23922568630680
  H   0.97262485255966     -1.98000212349739     -0.91132607321349
  H   1.93445775355550     -0.86523133634541     -1.65140537900962
  N   1.52283550979017     -0.52729861289302      1.07608185650216
  H   1.61219327292831      0.25558843163098      1.71329736879122
  H   2.45591483465592     -0.82694249511098      0.82284542699113
