17
Coordinates from ORCA-job run
  C   -0.63419273992978     -0.03421344006984      0.16561249841039
  C   0.90129136596653     -0.03725567666378     -0.01601109666971
  Cl  -1.21133612671791     -1.67685520222667      0.50291519071546
  H   1.16219970852407      1.00858160293231     -0.20373290097893
  N   -0.91225116731643      0.86244740382912      1.37001322152847
  O   -1.39540143775031      0.39795248279979      2.38846996368629
  O   -0.59636031010970      2.03440538074033      1.18137397424169
  C   -1.38737148652161      0.53061232725668     -1.01992630907973
  H   -2.45406447759207      0.58866356662069     -0.79655592196738
  H   -1.25494350280323     -0.12137178886701     -1.88307915372955
  H   -1.01631236252928      1.52980830022593     -1.24989542854157
  N   1.37909291780245     -0.80855482109019     -1.14660631303463
  H   1.13190353932908     -0.38108392640445     -2.03032913068804
  H   1.01769510710680     -1.75487884278391     -1.12391415190929
  N   1.49533592031413     -0.41405271326069      1.24351807100887
  H   2.50165966636418     -0.34523967445198      1.15347249460423
  H   1.27205538586307     -1.37796497858635      1.46467499240343
