17
Coordinates from ORCA-job run
  C   -0.67767503469452     -0.00357021227687      0.42296047482840
  C   0.84427639174686     -0.18547056513012      0.30121278006355
  Cl  -1.30727739906548     -1.06914819260902      1.71241968810198
  H   1.26018493675265      0.03109470808302      1.29121036695704
  N   -0.88880679694577      1.42437542225269      0.91900525950442
  O   -1.68479775211453      2.12574452519121      0.30703579591496
  O   -0.23878179963093      1.76371461438980      1.90038918744790
  C   -1.43154458746955     -0.23785771000223     -0.85799936233268
  H   -1.09486116899545      0.47454289906974     -1.61081601326996
  H   -2.50009749322825     -0.09870022141028     -0.70367122541288
  H   -1.23313492900234     -1.25294081246450     -1.19849805966254
  N   1.31954740833641      0.82105487465792     -0.62260005882216
  H   2.22557330296983      1.17607021812065     -0.35234758648717
  H   1.37389887727618      0.43006729904018     -1.55517209324873
  N   1.12675093300753     -1.53085619719836     -0.18412692282497
  H   2.13258937724374     -1.64604051136441     -0.23517353218801
  H   0.77515573381365     -2.22408013834941      0.46717130143084
