17
Coordinates from ORCA-job run
  C   -0.71650274054467     -0.20287652586274      0.28048747581424
  C   0.72677822647497     -0.52759553197103     -0.16089052853250
  Cl  -1.29103556918264     -1.51941511056641      1.32627689930041
  H   0.67541269728429     -1.55582630724776     -0.54788328690126
  N   -0.65288431947900      1.08722908371591      1.09949259876804
  O   -0.38322659007948      2.08127647809525      0.42953139744957
  O   -0.83526673564292      1.06234919768183      2.30507757248929
  C   -1.68093122784528     -0.00838697814859     -0.86635788933571
  H   -1.34651161799213      0.81694103722296     -1.48853755433414
  H   -2.68387879467620      0.18355248886217     -0.48066692565120
  H   -1.70243517307299     -0.91780132589918     -1.46850166610503
  N   1.59883247733436     -0.37347507064722      0.99782541865505
  H   2.55023452305016     -0.59305086970117      0.72929764669455
  H   1.33196359402901     -1.00443798901127      1.74573543467259
  N   1.12416328774920      0.31099650116975     -1.26535390942302
  H   1.34190071537653      1.23915768458065     -0.92139568042743
  H   1.94538724721679     -0.07563676227315     -1.71313700313346
