17
Coordinates from ORCA-job run
  C   -0.66909572583180     -0.26851269966154      0.16241220039013
  C   0.84972740166904     -0.63359292989494      0.07195976792473
  Cl  -1.63796103397248     -1.75280642735757     -0.01292992065939
  H   0.99109264812950     -1.45527203138939      0.77924922087506
  N   -0.87414387537977      0.23226186560133      1.58005868251630
  O   -0.61432976888203     -0.55582866232654      2.48336392115060
  O   -1.18997753674562      1.41099119982682      1.72567122458915
  C   -1.14330132979365      0.75591795157055     -0.83733306843004
  H   -1.04639326080260      0.34344554514488     -1.84086418144682
  H   -0.56378668270220      1.67661113718219     -0.76375221927729
  H   -2.18902155007662      1.00478881233534     -0.66130379346845
  N   1.70153893006998      0.45379087617462      0.48773923929192
  H   1.43434697702934      1.34309178256723      0.08682013363800
  H   1.74077518213808      0.53893262805167      1.49305548859112
  N   1.24836800966107     -1.07889411461715     -1.24271418788867
  H   1.38578720999963     -0.29379607231061     -1.86564870307639
  H   0.57737440549016     -1.72112886089689     -1.64378380471997
