17
Coordinates from ORCA-job run
  C   -0.66181073336657     -0.12405172271388      0.24118303098613
  C   0.80772977663835     -0.04322893387732     -0.21357967840526
  Cl  -1.02651445364101     -1.72143617781635      0.89319754671625
  H   0.92774971796586      0.99088506461093     -0.56543754307446
  N   -0.80583192965946      0.92762875436142      1.34780229039115
  O   -0.95030471346742      0.58180046090934      2.51362784755776
  O   -0.71195171183926      2.08718233893052      0.95083886265120
  C   -1.63812135422300      0.21767918387972     -0.86247009075787
  H   -2.65728305746845      0.21918037694050     -0.47177083537951
  H   -1.54383848070492     -0.53142124461885     -1.64510413778578
  H   -1.40697183429517      1.20035100225372     -1.27298105374578
  N   0.98911327038146     -0.91101209397553     -1.35498725209387
  H   1.76983668791359     -0.59508797930919     -1.91539625773249
  H   1.20218209501239     -1.84010232342133     -1.00870513081494
  N   1.69452450214145     -0.39337041095424      0.88577864578618
  H   1.38841076399648     -0.02455993043587      1.77826014838644
  H   2.62508145461567     -0.04043636476361      0.70074360731486
