17
Coordinates from ORCA-job run
  C   -0.61259766025892     -0.00380734432348      0.46054611785205
  C   0.91752947032322     -0.18054541530935      0.31335461698234
  Cl  -1.21589381229305     -1.11175261013643      1.72030088472504
  H   1.33302740391045      0.03043788198094      1.30046292342286
  N   -0.82303541768885      1.40899692741544      0.99683838550476
  O   -1.57464504235964      2.14811788768934      0.37181392829020
  O   -0.20531025569354      1.70120118972917      2.01281334577716
  C   -1.39933429239025     -0.20308738612456     -0.80950484000730
  H   -2.46253369472427     -0.05831293402032     -0.62544457463656
  H   -1.08678713882275      0.51869686607692     -1.56379386939937
  H   -1.24982971095400     -1.22110451376651     -1.17208540774537
  N   1.35629021061583      0.86321983471448     -0.59035989737774
  H   2.34664158929830      1.02067281536734     -0.45096115923986
  H   1.23833411534311      0.56671497915312     -1.55295434460149
  N   1.36336365527087     -1.50316420269703     -0.07455295609583
  H   1.11977785098921     -2.19485267148803      0.62373409736916
  H   0.95700272943427     -1.78443130426104     -0.95920725082005
