17
Coordinates from ORCA-job run
  C   -0.67215689106747     -0.20794022995380      0.27885857519783
  C   0.80379349017997     -0.54956197477559     -0.08579987403114
  Cl  -1.30762875239313     -1.50857243099626      1.30729322107784
  H   0.75461248831566     -1.58211343640523     -0.46710501287539
  N   -0.64757517720067      1.09117655692005      1.07183526741152
  O   -0.84384801327937      1.08493567166133      2.27513214574229
  O   -0.37499468819455      2.07845476861433      0.38918143330507
  C   -1.57503965058474     -0.03774051232732     -0.92255850331048
  H   -1.24298481066565      0.80472747163725     -1.52585591059679
  H   -2.60230534244487      0.13977046654561     -0.60038317243665
  H   -1.55421259794361     -0.95185975811676     -1.51925623362651
  N   1.60640575445292     -0.37863890724479      1.10571308963618
  H   1.33419129084465     -1.02489812299608      1.83553324506263
  H   2.57341587396901     -0.54316928786137      0.85763622400237
  N   1.41180997440533      0.25502026406148     -1.11210554372508
  H   1.34491438322693      1.23683221349206     -0.87180829950404
  H   0.98960266837959      0.09557724774507     -2.01631065132965
