17
Coordinates from ORCA-job run
  C   -0.63461831309842     -0.10597209243937      0.19601815149765
  C   0.88345044549662     -0.08152431880329     -0.14372546444881
  Cl  -1.16621586522171     -1.73913515244695      0.58287196519164
  H   1.07799857610085      0.93933308861909     -0.49861404500075
  N   -0.82353397858421      0.79129838780013      1.41750496667601
  O   -0.34510089650449      1.91784941472912      1.27587865085058
  O   -1.41139472340330      0.38322083391371      2.40625577254462
  C   -1.49657347110587      0.47230365476385     -0.90865384044268
  H   -2.54423507254465      0.48460581117976     -0.60328182705076
  H   -1.41119050836149     -0.14949952959690     -1.80019498018625
  H   -1.17477282382100      1.48965118787747     -1.13679165915052
  N   1.27653083613999     -0.98585122212152     -1.19384143689800
  H   0.90786603262364     -0.70756145274954     -2.09245241273374
  H   0.97522101963730     -1.92850128576782     -0.97861451393525
  N   1.63285594446047     -0.44482142985036      1.04074352838848
  H   1.67754665346212      0.32872287152786      1.69275854173400
  H   2.57616614472414     -0.66311876663525      0.74513860296377
