17
Coordinates from ORCA-job run
  C   -0.66445656940027     -0.15506533399222      0.29445926635896
  C   0.78177502495753     -0.52869063175928     -0.14884921461891
  Cl  -1.24274681787464     -1.33832618124038      1.48888038607022
  H   0.66163636637092     -1.47494280587737     -0.69966806967684
  N   -0.60818256084049      1.20138588488182      0.97924454805381
  O   -1.18061023731563      2.13545822287503      0.43046524389610
  O   0.04707475168379      1.27416196778907      2.01391948233071
  C   -1.63553945990007     -0.10959411001915     -0.86268096652415
  H   -2.64043768315370      0.12369094944775     -0.51218742244324
  H   -1.65041894151295     -1.08893705470687     -1.34480509460017
  H   -1.34451274665823      0.65630535671190     -1.57987363090979
  N   1.76171680493609     -0.76115636813596      0.87803127263055
  H   1.53652361352559     -1.59442065915825      1.40443110430029
  H   1.77366994751053      0.02253014744237      1.52045209459994
  N   1.26531143551328      0.58216778777649     -0.95038939686283
  H   0.86881983517082      0.57718957699512     -1.88086635190711
  H   2.26937723698744      0.47924325096994     -1.03056325069754
