17
Coordinates from ORCA-job run
  C   -0.73798291666951     -0.25067209900367      0.20210940139496
  C   0.73705200445297     -0.67969702786889     -0.00826801835315
  Cl  -1.79342908612979     -1.67579384608460      0.17387208568994
  H   0.88702549677775     -1.55876670318455      0.62148940430146
  N   -0.79648821511362      0.30516150070312      1.61931584945911
  O   -1.13606093988371      1.47637532743667      1.76320528858828
  O   -0.43004524931656     -0.44775468965422      2.51548624133208
  C   -1.24213903262669      0.76989918421492     -0.78730761975427
  H   -1.26931753229565      0.30366443461211     -1.77132747357861
  H   -0.59840276413994      1.65133146804220     -0.80669066635543
  H   -2.24653235566412      1.09601294755153     -0.52235989445492
  N   1.71056304095726      0.31298188860243      0.41365326398361
  H   1.53913031478023      1.22197118121741      0.00085442988214
  H   1.74586375154768      0.40793557179687      1.42058438243981
  N   0.88423974413254     -1.07381897373782     -1.39190519305563
  H   1.00882191173876     -0.24748250555405     -1.96735392378543
  H   1.73870182745237     -1.61134765908946     -1.47535755773395
