17
Coordinates from ORCA-job run
  C   -0.64453721273310     -0.02449995743941      0.41346707489573
  C   0.88935377837514     -0.24494552044218      0.33416369542653
  Cl  -1.30451832738289     -1.02113768327323      1.73802730889708
  H   1.26866496897705     -0.08276302650549      1.35099898107118
  N   -0.81862687924805      1.42841735296621      0.83309812914104
  O   -1.42506852079906      2.17367500583102      0.06841015124844
  O   -0.27427288495154      1.76692096410935      1.87915064830546
  C   -1.39772541999991     -0.30794149792188     -0.85916704332457
  H   -1.25144821398364     -1.35341120626460     -1.12139168387070
  H   -1.02480216159941      0.31820063729426     -1.66955019635285
  H   -2.45866084885195     -0.09864871203400     -0.72837398724905
  N   1.57693947354288      0.68132798435159     -0.52944847768811
  H   1.57070946219583      1.62620870599256     -0.17117813868915
  H   1.21026332405797      0.65627071876300     -1.47192545629429
  N   1.12544682033184     -1.57416638698242     -0.19500403848762
  H   0.83473224707036     -2.27880304869709      0.47189268217650
  H   2.12355039499848     -1.66470432974768     -0.34216964920563
