17
Coordinates from ORCA-job run
  C   -0.65764436040974     -0.03659229382843      0.13109337030527
  C   0.87842822107183     -0.18154452531678     -0.06435300730112
  Cl  -1.40912265419380     -1.60742000973305      0.39238018606977
  H   1.22389842934359      0.81972609234981     -0.35394640417072
  N   -0.86287362498793      0.83507753228628      1.36863116026723
  O   -0.23574764916880      1.89492109382534      1.33069552949120
  O   -1.60268014912724      0.47380928438767      2.26963836940563
  C   -1.33583703490448      0.67754088517080     -1.02127935366837
  H   -1.23620743912064      0.08178091926765     -1.92895849940139
  H   -0.87887611064569      1.65700890848646     -1.17168457266506
  H   -2.39979829687500      0.80319347885184     -0.81339180920015
  N   1.26538086586886     -1.09117214554650     -1.11249650655309
  H   1.02108112412804     -0.74060028951242     -2.02811429797838
  H   0.83638516738888     -1.99734489923298     -0.96910698757262
  N   1.46186833168415     -0.66999936328703      1.16794771531127
  H   2.39701715863820     -0.99128483199929      0.95063701126127
  H   1.53472802130979      0.07290016383062      1.85230809639927
