17
Coordinates from ORCA-job run
  C   -0.68984770827213     -0.08257582566938      0.17263289152148
  C   0.81482000166455     -0.09392630218944     -0.15234174004046
  Cl  -1.23797814789571     -1.69894822024624      0.61878686955484
  H   1.03940375496407      0.90500080116738     -0.54569811571793
  N   -0.91481226655607      0.85746770474042      1.35783702303787
  O   -1.80164585189008      0.61190028646657      2.15981229933203
  O   -0.20942471881155      1.86726541132766      1.35367386735877
  C   -1.52952639618618      0.45832562295852     -0.96603017226936
  H   -1.22474998857872      1.48370381082388     -1.18903654643929
  H   -1.36537223398426     -0.16698822685550     -1.84163322668310
  H   -2.58573075013127      0.44475521169678     -0.69298913213673
  N   1.02880055704046     -1.03429250862617     -1.22606619175673
  H   1.02436009806335     -1.97819228371521     -0.85679287040920
  H   1.91993706895040     -0.86013369539338     -1.67207829204800
  N   1.57262599109229     -0.41766673716376      1.04986773195853
  H   2.50872695188417     -0.69351869226475      0.78118813457120
  H   1.65041363864668      0.39682364294264      1.64786747016607
