17
Coordinates from ORCA-job run
  C   -0.65150038319065     -0.23768011474157      0.26575147920394
  C   0.81859988120181     -0.63687648777082     -0.13064971688683
  Cl  -1.32834204550212     -1.52871341137195      1.27441348721467
  H   0.70342949004899     -1.63985903702341     -0.55885279794335
  N   -0.54536540919371      1.03051781250734      1.09170497371124
  O   -0.29761361202524      2.04306823596148      0.43240261853054
  O   -0.61393156031027      0.98017221484319      2.31129106287126
  C   -1.56354040991304      0.00047989814297     -0.91675770378023
  H   -1.59114719301935     -0.90470334353284     -1.52673753191694
  H   -2.57804310716751      0.21722596228963     -0.57825475181859
  H   -1.20308071209777      0.83362863034878     -1.51569377641330
  N   1.71269896204176     -0.70840191273614      1.00183043051828
  H   2.17263267579053      0.17938420202472      1.14963064332761
  H   1.25047442078232     -1.00673757505730      1.85011441545741
  N   1.40893551319932      0.21025484360915     -1.13554809638941
  H   1.08044771687287     -0.02295755736110     -2.06104685257387
  H   1.22434577248208      1.18919763986786     -0.95359788311242
