17
Coordinates from ORCA-job run
  C   -0.69016581612869     -0.22601150620467      0.26877200360793
  C   0.73657001080513     -0.62092189161237     -0.21340678935867
  Cl  -1.29766539917866     -1.52916119992135      1.30559091960990
  H   0.62550712071848     -1.65418431688654     -0.55661329748757
  N   -0.53909048876476      1.03620090827314      1.11226459886199
  O   -0.13867532517269      2.01210057713084      0.47550468285533
  O   -0.75836816309857      1.01710705606410      2.31366915658895
  C   -1.67893895573970      0.04590266985074     -0.84294297295157
  H   -1.33799536017464      0.88244102593854     -1.44730822933824
  H   -1.74085715422001     -0.83762546236312     -1.47935392948801
  H   -2.66662137423424      0.25291181050930     -0.42606239767089
  N   1.74675032876357     -0.62984262642005      0.82903348101990
  H   1.48517861513432     -1.22778497184750      1.60393390901324
  H   1.91736571199417      0.30624159721842      1.17883195636217
  N   1.11243820711830      0.17535203357075     -1.35948373063485
  H   2.01977294879343     -0.15110534013296     -1.67111314658400
  H   1.20479509338455      1.14837963683272     -1.09131621440560
