17
Coordinates from ORCA-job run
  C   -0.67499147237008     -0.20086440464773      0.27796779965560
  C   0.79802403990231     -0.55862179412566     -0.08396634417305
  Cl  -1.32600312354790     -1.49345443346174      1.30661301839252
  H   0.73842575940942     -1.59109741516370     -0.46400661805071
  N   -0.63745370505497      1.09875006855189      1.06965753598267
  O   -0.35301071364144      2.08226439471125      0.38640907171528
  O   -0.83534609220236      1.09593056192784      2.27267700968357
  C   -1.57364280834793     -0.02195881632165     -0.92529218768864
  H   -1.23173190008854      0.81718972180294     -1.52772497434819
  H   -2.59983374110037      0.16561007848874     -0.60542596461805
  H   -1.56042556201059     -0.93608953024666     -1.52222676971310
  N   1.60033706050361     -0.39443590145753      1.10861865311545
  H   1.32027447169910     -1.03688942430651      1.83884237581560
  H   2.56608726956377     -0.56930663866773      0.86263777643430
  N   1.41603856472901      0.23811995138917     -1.11028864916773
  H   1.36033987128777      1.22082145044368     -0.87066805029246
  H   0.99291208126919      0.08303213108341     -2.01482368274308
