17
Coordinates from ORCA-job run
  C   -0.68159255461618     -0.23106952442886      0.16796003272009
  C   0.80900485773166     -0.68688090505123      0.03844521006321
  Cl  -1.74407533854548     -1.64689211866241     -0.02995005538014
  H   0.91247411268519     -1.53317009240581      0.72286901863913
  N   -0.83196436561284      0.24114255714945      1.60259327060728
  O   -1.07811790526060      1.43109483632886      1.78602301500523
  O   -0.60350886193176     -0.58577914617418      2.47926020990483
  C   -1.10803962437038      0.84891564963457     -0.79430005601608
  H   -1.04649282214612      0.46256935131795     -1.81092061727884
  H   -2.13584244660033      1.15079649246426     -0.59680306391540
  H   -0.47673600765428      1.73296489840333     -0.70067722337279
  N   1.73378294704767      0.33588988015758      0.46268905530389
  H   1.50678731196615      1.25215166096973      0.09967030091356
  H   1.80855241592707      0.38369448555807      1.46833723693503
  N   1.15556627865843     -1.12175183403217     -1.29454598041208
  H   1.34505260919441     -0.33105483637519     -1.89611053868213
  H   0.43514939352739     -1.70162135485395     -1.70453981503476
