15

C	0.0	0.0	0.0
C	-0.240418	0.151318	-1.522534
F	1.388506	0.0	0.0
H	0.148103	-0.753185	-1.994893
H	-0.349552	0.887131	0.529008
C	-0.523832	-1.280436	0.581588
H	-1.616331	-1.270766	0.532725
H	-0.118426	-2.136927	0.036464
H	-0.211848	-1.348456	1.627114
N	0.716595	1.24552	-1.97745
O	0.561288	2.352493	-1.47849
O	1.564865	0.938085	-2.80743
C	-1.508474	0.499737	-2.161859
N	-2.271476	0.841556	-2.989919
Br	-3.787763	0.0	0.0
