15

C	0.0	0.0	0.0
C	-0.242545	0.00643	-1.5214
F	1.388581	0.0	0.0
H	0.212899	-0.906734	-1.913037
H	-0.349809	0.929969	0.447775
C	-0.528954	-1.222138	0.690454
H	-0.147058	-2.125436	0.207681
H	-1.621032	-1.199332	0.655937
H	-0.200906	-1.216111	1.732573
N	0.636301	1.116096	-2.088268
O	0.464972	2.241724	-1.638538
O	1.439474	0.797764	-2.958442
C	-1.53218	0.19442	-2.185078
N	-2.289746	0.3928	-3.063329
Br	-3.810552	0.0	0.0
