15

C	0.0	0.0	0.0
C	-0.528701	0.122451	-1.430258
F	1.381363	0.0	0.0
H	-1.630897	0.076073	-1.362365
H	-0.345609	0.894809	0.525416
C	-0.467117	-1.249158	0.710821
H	-1.556326	-1.295532	0.692177
H	-0.045428	-2.136072	0.235658
H	-0.118485	-1.207403	1.744903
N	-0.056084	-1.047321	-2.247636
O	-0.745653	-2.061561	-2.195038
O	0.999045	-0.927151	-2.868006
C	-0.077448	1.356436	-2.062489
N	0.234344	2.373966	-2.558181
Br	-3.757744	0.0	0.0
