15

C	0.0	0.0	0.0
C	-0.527328	-0.116316	-1.431134
F	1.382757	0.0	0.0
H	-1.628591	-0.178636	-1.353725
H	-0.346707	0.969714	0.367629
C	-0.465036	-1.111112	0.911906
H	-0.018823	-2.059553	0.60984
H	-0.139431	-0.879167	1.928594
H	-1.552791	-1.180649	0.885939
N	-0.023202	-1.385763	-2.060655
O	0.984816	-1.322943	-2.762057
O	-0.645868	-2.408497	-1.790837
C	-0.108831	1.017453	-2.247033
N	0.202504	1.963451	-2.868221
Br	-3.746999	0.0	0.0
