15

C	0.0	0.0	0.0
C	-0.524158	-0.051452	-1.436361
F	1.378919	0.0	0.0
H	-1.625253	-0.117992	-1.366684
H	-0.349849	0.950664	0.411404
C	-0.467397	-1.153299	0.857084
H	-0.154595	-0.965472	1.88662
H	-1.554354	-1.224097	0.816566
H	-0.013598	-2.085703	0.517541
N	-0.016137	-1.291199	-2.121111
O	1.000196	-1.19705	-2.806957
O	-0.646775	-2.324445	-1.910825
C	-0.104681	1.118603	-2.199711
N	0.206936	2.091871	-2.778221
Br	-3.747788	0.0	0.0
