13
Coordinates from ORCA-job run
  C   0.67081544875514     -0.23892397004465      0.93785138064869
  C   -0.54617249398384      0.24646146075167      0.15574387013369
  F   1.11093823727392      0.84264626192137      1.68820785354660
  H   -1.33991015708127      0.48724855714410      0.88032969251283
  H   0.39969788120854     -1.04063798043025      1.62350866994495
  C   1.74758527659326     -0.68325704357296      0.04618297814927
  N   2.62835047751734     -1.04774793891106     -0.63777273394463
  N   -1.11464431592479     -0.90116422468698     -0.64285837985341
  O   -1.75710924818196     -0.60713058051163     -1.64203069910810
  O   -0.94887759004844     -2.03025747859514     -0.18770570405368
  N   -0.16479745748485      1.28840177560343     -0.74426593065140
  H   -0.96619919439105      1.64659898119005     -1.24577240767982
  H   0.28032313574801      2.03776218014205     -0.23041858964501
