13
Coordinates from ORCA-job run
  C   0.77907835794294     -0.65599988217636      0.42912225598561
  C   -0.33691599609200      0.33282621963718      0.11251895421343
  F   0.36802554555528     -1.48813084816051      1.44824127133435
  H   -0.56258888955939      0.94793456671491      0.98368049810515
  H   0.98051736691037     -1.27237950637068     -0.45226280586395
  C   1.98910680208195      0.06619278917637      0.83307415382220
  N   2.95913491162604      0.63037351714329      1.17588555760466
  N   -1.58505002854716     -0.51582697380735     -0.11049609696505
  O   -1.54334289833332     -1.26736662759804     -1.08298823378552
  O   -2.52384689497731     -0.37347926970375      0.66456467406855
  N   0.02184014593288      1.11824407903237     -1.01053044260377
  H   0.04071554306209      0.56328946474827     -1.85709373536693
  H   -0.58667396560237      1.91532247136431     -1.13371605054873
