13
Coordinates from ORCA-job run
  C   1.01116962972919      0.08260972047800      0.31760958857100
  C   -0.51961942353354      0.20175536058924      0.23827994433666
  F   1.55869518497893      0.50937768497095     -0.87536211298353
  H   -0.94901420698759     -0.07969898164351      1.20056111571094
  H   1.35764822999365      0.76219298250322      1.10306400408120
  C   1.47817457118779     -1.27563487951405      0.61620935817724
  N   1.86671072806647     -2.35064947126386      0.88342889351157
  N   -1.00282912943879     -0.84303370120384     -0.74055536386473
  O   -0.98438791499311     -0.53140351001673     -1.92522102053761
  O   -1.33212432179629     -1.92751454595525     -0.26691412366553
  N   -0.99753277074801      1.47585743073906     -0.18070058918555
  H   -0.45910459754638      1.84047995079010     -0.95448745695367
  H   -1.02678597891233      2.13666195952667      0.58208776280201
