13
Coordinates from ORCA-job run
  C   0.81662484486360     -0.27364042075617      0.80236183531907
  C   -0.53706958128396      0.16966317429310      0.25632635395958
  F   1.26505144042806      0.75581248089776      1.61855008169814
  H   -1.23457922702447      0.24920861367135      1.10488625542089
  H   0.71713092595393     -1.17149989064193      1.41091531673660
  C   1.78959548446018     -0.50112645464085     -0.27177912774315
  N   2.59351860588785     -0.68950420573704     -1.10519393917381
  N   -1.11823241797759     -0.93339740364296     -0.59480940323910
  O   -1.94076397108555     -0.59665447697295     -1.43598476321514
  O   -0.77324522580125     -2.08261970618263     -0.33050714020147
  N   -0.38076175493200      1.33703870896279     -0.55282881181697
  H   0.07862053874034      2.06337512678107     -0.01868949587028
  H   -1.27588966222914      1.67134445396846     -0.88324716187436
