13
Coordinates from ORCA-job run
  C   0.98242647120629      0.08671597633167      0.40478561049036
  C   -0.53737279812805      0.19535134468372      0.19635213306370
  F   1.62664233785389      0.53801981701107     -0.72915349985423
  H   -1.04443729705493     -0.10086475597836      1.11540585213916
  H   1.25340647988481      0.75516176847859      1.22847208779962
  C   1.43186900838318     -1.27365605129415      0.71976187136096
  N   1.78452578740680     -2.35854464353105      0.99665987415619
  N   -0.92783995560370     -0.84032324442410     -0.83204113845518
  O   -0.80145821069676     -0.51647781029997     -2.00689083115669
  O   -1.29942383575711     -1.92902264784549     -0.40146327320279
  N   -0.98751201536942      1.47126947463525     -0.24666759768664
  H   -1.09406527742972      2.12074054709155      0.51882471609276
  H   -0.38576069469527      1.85163022514128     -0.96404580474722
