13
Coordinates from ORCA-job run
  C   0.69159001217414     -0.19864017537735      0.93266434920968
  C   -0.54453120818662      0.24881685331083      0.15821559353927
  F   1.13663613291392      0.91230346656862      1.63571846905400
  H   -1.32707715048988      0.50713595019916      0.88886037644799
  H   0.44180523117076     -0.97817811145168      1.65120987589928
  C   1.75396841482741     -0.66611190902282      0.03534873948108
  N   2.61730506650920     -1.06250615540438     -0.65289809729500
  N   -1.11635009404166     -0.93139943057022     -0.58933977411829
  O   -1.76840897886448     -0.68054444334196     -1.59403205655156
  O   -0.94189929641558     -2.04076425434668     -0.09083153701876
  N   -0.18967648552942      1.26257117934344     -0.78403829681798
  H   -1.00312236079168      1.59127716800352     -1.28650139878170
  H   0.24976071672389      2.03603986208951     -0.30237624304801
