13
Coordinates from ORCA-job run
  C   1.05971085964252      0.01408685835898      0.39348452473382
  C   -0.44665649124425      0.23968013485659      0.29587008682592
  F   1.63662697909731      0.42091913699047     -0.79572685129890
  H   -0.93339381509739     -0.12662242708901      1.20144156321942
  H   1.43721740399172      0.66184802334266      1.18903339793988
  C   1.44100611271465     -1.37500662877406      0.67128248631635
  N   1.79525345250567     -2.46278767737089      0.93272856349233
  N   -0.97552880653917     -0.68046399970014     -0.81789246139921
  O   -1.15487147733077     -0.17581933150142     -1.92093249251763
  O   -1.16198386341281     -1.85279786773013     -0.50635364562458
  N   -0.69857398708585      1.61338267346985      0.07924396109800
  H   -1.68887372225371      1.81594460687325      0.08761612684267
  H   -0.31093264498792      1.90863649827385     -0.80779525962805
