13
Coordinates from ORCA-job run
  C   1.02344974046631      0.02394990617310      0.48045388272652
  C   -0.47182843077365      0.23431852432480      0.25824879307183
  F   1.69301946803873      0.43978317153070     -0.65602187525704
  H   -1.02820919842580     -0.13881856466717      1.11986708132627
  H   1.32676535448899      0.67366494970260      1.30557004458084
  C   1.39501503855185     -1.36190454983290      0.78573266323287
  N   1.73777385340259     -2.44724272570964      1.07139609303273
  N   -0.89666012322044     -0.68843427008323     -0.89707094366354
  O   -0.98935825910425     -0.18284054740208     -2.01030806451517
  O   -1.09678705465766     -1.86329554081603     -0.60410731856443
  N   -0.71940200630935      1.60595587410043      0.02358238244699
  H   -0.26261668777251      1.90710087015414     -0.82783550924945
  H   -1.70916169468480      1.79776290252530     -0.04950722916842
