13
Coordinates from ORCA-job run
  C   0.91212442187744     -0.57923494031245      0.23147017946175
  C   -0.39668941515208      0.20128207884447      0.19833499803344
  F   0.71750207841483     -1.75708605043209      0.92017665370496
  H   -0.72203602221771      0.44767868640971      1.20907649574167
  H   1.21334798647273     -0.82927759848296     -0.79027966376447
  C   1.95370892739615      0.21572316681362      0.88859086422058
  N   2.79302498116364      0.83234176502467      1.42903449724458
  N   -1.44301074780810     -0.77502835922041     -0.33047767178892
  O   -1.27234222324324     -1.15313823255271     -1.48807496060950
  O   -2.36691082480176     -1.08565076217554      0.41247238936939
  N   -0.24488401838353      1.35869645319081     -0.60409171472809
  H   -1.01200373785600      2.00717774019107     -0.49535464615922
  H   -0.13183140586235      1.11751605270181     -1.58087742072618
