13
Coordinates from ORCA-job run
  C   0.88497097217795     -0.70526534730086      0.17339018900425
  C   -0.39788458346688      0.10968954001468      0.19268638733178
  F   0.78102171410005     -1.71393172975606      1.10516337294246
  H   -0.67585750849915      0.32032461339748      1.23334237975648
  H   1.02590807247322     -1.14756540059500     -0.81356737947462
  C   2.01843754009427      0.16431340494480      0.51376396404825
  N   2.89560319886370      0.89904273273088      0.77533097092088
  N   -1.53304347567473     -0.73922898947287     -0.33365336647975
  O   -2.65166642515413     -0.30257313498373     -0.07706987655876
  O   -1.27490166592311     -1.73863605841144     -0.99273945524831
  N   -0.30970711711703      1.23788193256867     -0.69741327056832
  H   -1.18676619208624      1.74549610653267     -0.68283483564860
  H   0.42288547021207      1.87045233033077     -0.39739908002575
