13
Coordinates from ORCA-job run
  C   1.03182664720169      0.04360059864511      0.45965700296797
  C   -0.46558796611082      0.25372869055207      0.25170056585965
  F   1.68373183361462      0.38504528687438     -0.71131883865180
  H   -1.00926487207498     -0.06294585518962      1.14350766916957
  H   1.35535419940151      0.73845945824929      1.23904404665569
  C   1.39814330678719     -1.32466145585926      0.84120166531195
  N   1.73778039059290     -2.39285746427002      1.18855588451383
  N   -0.91864417351843     -0.73335518299189     -0.83831889132333
  O   -1.12098291624695     -1.88682542502556     -0.47126547506360
  O   -1.02906540009357     -0.29487665101886     -1.97801731041058
  N   -0.70646082298662      1.61067286635040     -0.06084710882496
  H   -1.69559358897997      1.80753440214901     -0.12856454842595
  H   -0.26223663758659      1.85648073153496     -0.93633466177843
