13
Coordinates from ORCA-job run
  C   0.76257124339430     -0.29169682606893      0.90259658397722
  C   -0.50828105608141      0.31834489488659      0.30498379617581
  F   1.27312690168739      0.57972716253754      1.83420999560882
  H   -1.19136251928707      0.54278462547830      1.12658451749704
  H   0.52426686728105     -1.23173213291504      1.40315526194441
  C   1.75514796118869     -0.52439792281615     -0.15632873549501
  N   2.51680937884467     -0.69664622615726     -1.03271878972440
  N   -1.19814681821063     -0.83993025010796     -0.45401087405890
  O   -1.31510146272574     -0.73081406990777     -1.66916899207084
  O   -1.56703824372582     -1.78713693979299      0.23480230469879
  N   -0.24383042997195      1.45923353195271     -0.46906970845977
  H   0.27785139163150      1.24497315921559     -1.30927578079229
  H   -1.08601321402497      1.95929099369536     -0.71475957930089
