13
Coordinates from ORCA-job run
  C   0.77981588795058     -0.52457008820312      0.58123723127744
  C   -0.34365701101142      0.34394800343485      0.02730435183903
  F   0.36322961436342     -1.10250810751847      1.76105542265070
  H   -0.59270536941592      1.14169600891125      0.72710399926909
  H   1.00452283245916     -1.32619856582420     -0.12876206692678
  C   1.97343186736491      0.29177860355122      0.82082949558969
  N   2.93062964830467      0.93534672607015      1.03607287486229
  N   -1.57645382660224     -0.55406927826694     -0.00872331934533
  O   -1.50856762553565     -1.51050491117222     -0.77860974120537
  O   -2.52966993654292     -0.25007359123499      0.69911120294188
  N   0.02458181326121      0.85203190046995     -1.24276935039821
  H   -0.59313671578825      1.58688134190906     -1.55794886548004
  H   0.06697882119248      0.11524195787347     -1.93590123507440
