13
Coordinates from ORCA-job run
  C   0.86893466235436     -0.57632324337326      0.47423000728006
  C   -0.40787664980475      0.16610179695443      0.11499538678087
  F   0.70459363828376     -1.16769850856235      1.70686191255731
  H   -0.74719112542150      0.74242553955638      0.98531140115600
  H   1.06600643445555     -1.35125699947351     -0.26756733683149
  C   1.98516116720470      0.37650674067108      0.53082728116088
  N   2.84901348259815      1.17086224325986      0.55191964258879
  N   -1.51448305660002     -0.83545794758994     -0.12572408518751
  O   -1.22448410533969     -2.00593344797972     -0.33974034317165
  O   -2.64283370150793     -0.35115615980267     -0.12630319474857
  N   -0.25781850114199      0.88656652035345     -1.12278127504930
  H   -1.13331285404503      1.34261602340068     -1.35240984911735
  H   0.45329060896439      1.60274744258558     -1.03161954741805
