13
Coordinates from ORCA-job run
  C   0.82773522021742     -0.50292422657567      0.44161232159098
  C   -0.47971052769978      0.22088504902453      0.11615417105696
  F   0.67084549030273     -1.24395148494841      1.59263497935538
  H   -0.79171614723722      0.82757490935159      0.96608105180004
  H   1.07999510123825     -1.18525285429399     -0.37523569532033
  C   1.89104493354367      0.49230377152113      0.62333663930042
  N   2.71472300532569      1.31817155334212      0.75457302710520
  N   -1.52745366981267     -0.85397568268718     -0.03070945197686
  O   -2.50072306421358     -0.81275961096716      0.71046892442579
  O   -1.31074318515040     -1.67672168738732     -0.91723952868767
  N   -0.47340416508911      0.98862922821980     -1.08546348465928
  H   -0.00987626095950      0.51564763329717     -1.84942322047081
  H   -0.09071673046550      1.91237340210338     -0.94778973351982
