13
Coordinates from ORCA-job run
  C   0.91979873715900     -0.58850758189136      0.16290487203245
  C   -0.39169030035620      0.18541181848519      0.22646269911322
  F   0.75275932709433     -1.80967910122883      0.77927262389800
  H   -0.68435248483172      0.35914554288248      1.26203339055593
  H   1.18582623001465     -0.77003430281325     -0.88283493698234
  C   1.98339204965910      0.16698629395110      0.83130099986920
  N   2.84501318708784      0.75173286949268      1.37180816382305
  N   -1.45088142407525     -0.75903357051247     -0.33405457312636
  O   -2.34396731196873     -1.13255498991839      0.41768853176977
  O   -1.31842582043474     -1.05331529417146     -1.52074608624149
  N   -0.27073252935168      1.39652749304060     -0.49815081819659
  H   -0.18505756525533      1.22382775962921     -1.49207723985292
  H   -1.03968209474127      2.02849306305449     -0.32360762666193
