13
Coordinates from ORCA-job run
  C   1.01196691929193     -0.00948257223006      0.50367270898323
  C   -0.47814112547920      0.21627119559787      0.26277872958297
  F   1.70646773019755      0.48400574464898     -0.58562766327682
  H   -1.05340445213087     -0.21478285555313      1.08403985523257
  H   1.29571340953966      0.58111380049645      1.37866051463911
  C   1.37847693143661     -1.41315391714371      0.72141512955475
  N   1.71629082966959     -2.51534118435176      0.94081882125349
  N   -0.87610373025305     -0.62497869257807     -0.96204519297081
  O   -1.08071250613283     -1.81713016247390     -0.75442903846549
  O   -0.94445619585893     -0.04459947470585     -2.03998724869747
  N   -0.72157053986914      1.60093116841250      0.11750397509472
  H   -0.24593625959189      1.96014046264842     -0.70042749113329
  H   -1.70959101081943      1.79800648723227      0.03462690020303
