13
Coordinates from ORCA-job run
  C   0.72729461852774     -0.22937201253426      0.86378624988606
  C   -0.60599849364287      0.16737630831752      0.21154096950451
  F   1.02968205093441      0.78909078732451      1.75471999690812
  H   -1.31879952817359      0.37116233891490      1.01325480495593
  H   0.64515210715835     -1.16190931984456      1.42331773388459
  C   1.80686433019083     -0.32023492050858     -0.12490285932566
  N   2.66335559386981     -0.31555960378905     -0.92749862335645
  N   -1.17157094541307     -1.04438710303428     -0.51092119811228
  O   -0.40551490400620     -1.98942626003358     -0.70820149017755
  O   -2.34520146068584     -0.98016265660731     -0.84384332441735
  N   -0.57136724827623      1.26677227500026     -0.68439175608192
  H   0.26820763577771      1.29793523257073     -1.24781869111924
  H   -0.72210375626105      2.14771493422372     -0.21904181254877
