13
Coordinates from ORCA-job run
  C   1.05502747025535      0.00491199295792      0.40980204158895
  C   -0.44597514525560      0.25495109553430      0.28864510648471
  F   1.65446288986203      0.37832564004860     -0.77920442761775
  H   -0.94929393831270     -0.08210624017948      1.19652010186799
  H   1.43368608711726      0.66160374987202      1.19742124695756
  C   1.40800386105071     -1.38569859070210      0.71542048164818
  N   1.74427103319640     -2.48209486729581      0.96450484837113
  N   -0.97846017650729     -0.68045006609740     -0.81008420419186
  O   -1.19968582068040     -1.83945133604312     -0.47236963177365
  O   -1.12685302704831     -0.20010070565640     -1.92853675865009
  N   -0.67040787642148      1.62775685282273      0.03830307313987
  H   -0.26775943383118      1.89550031468885     -0.85083664865941
  H   -1.65701592342481      1.84785216004990      0.03041477083437
