13
Coordinates from ORCA-job run
  C   0.89093079169429     -0.62928678600014      0.34960985101162
  C   -0.40290138452729      0.14462210583955      0.15514806110470
  F   0.78241239081697     -1.39088751429972      1.49185718861385
  H   -0.70590223503794      0.58788662687035      1.11236890757915
  H   1.05619614710412     -1.28960179930307     -0.50255955107723
  C   2.00615368222472      0.31545003054252      0.49204929622521
  N   2.86809652810386      1.10649607006407      0.58698525815511
  N   -1.51545042103925     -0.82368806998800     -0.17743854481263
  O   -2.64461849428535     -0.35656827972893     -0.05666129172140
  O   -1.23107668254566     -1.94764755445431     -0.57194995568033
  N   -0.31042808228205      1.03489825133757     -0.97300953678781
  H   -1.19555956487845      1.51387213059241     -1.09362035128501
  H   0.40414732465203      1.73545478852769     -0.81277933132520
