13
Coordinates from ORCA-job run
  C   0.97429493662033      0.08584554160288      0.41860928536090
  C   -0.54487800849458      0.17588742868908      0.19818480549248
  F   1.62123030282729      0.59586283204364     -0.68856044245485
  H   -1.05623650074191     -0.17206861799790      1.09651059685032
  H   1.22476996945285      0.72378737175060      1.27245313916327
  C   1.44726285464181     -1.27761063401638      0.68203778024610
  N   1.83392159157225     -2.35934436435906      0.92372120204440
  N   -0.90339842226806     -0.81894616114428     -0.88110130690242
  O   -1.24803013755247     -1.93630125827020     -0.50482463862770
  O   -0.77886330393534     -0.43718999953155     -2.03859165172278
  N   -1.01567789938127      1.46171948214877     -0.19159562671444
  H   -1.13618713692390      2.07550044291360      0.60085908118480
  H   -0.41720824581702      1.88285793617080     -0.88870222392008
