13
Coordinates from ORCA-job run
  C   1.02324388646578     -0.02054912015762      0.48049475520529
  C   -0.46202542555224      0.25278935144998      0.25856557392822
  F   1.70993467362073      0.37346612189383     -0.65339406591617
  H   -1.03370784166938     -0.09994335913049      1.11875840897350
  H   1.35228660069775      0.61142950522188      1.30957266801453
  C   1.33732675688786     -1.42194411499095      0.77944635859325
  N   1.63480673113890     -2.52136952877657      1.06214124550265
  N   -0.92452884892667     -0.64743178314728     -0.89971964966939
  O   -0.99622762050396     -0.13487946210145     -2.01132946342038
  O   -1.17259727430326     -1.81413272601212     -0.61068122439547
  N   -0.65151196251606      1.63420221119180      0.02891608513777
  H   -1.63218619913452      1.86910384323964     -0.04158728499606
  H   -0.18381347620492      1.91925906131936     -0.82218340695773
