13
Coordinates from ORCA-job run
  C   0.68444652894097     -0.19916402668041      0.93593361911453
  C   -0.55286309967495      0.23011820486862      0.15429533940821
  F   1.08781583545078      0.90951069266826      1.66816490965458
  H   -1.34749237808772      0.46423342140105      0.88008203338696
  H   0.44699502062010     -0.99966186880437      1.63530753188303
  C   1.77371335218249     -0.61646029361947      0.04666342654956
  N   2.66254370124760     -0.96778623953793     -0.63384058521853
  N   -1.09531713289741     -0.95054602510834     -0.61463516994265
  O   -1.78794259225488     -0.69227416501562     -1.58982787167111
  O   -0.85830597508529     -2.06827082615144     -0.16297307513005
  N   -0.21219378876166      1.26162176235507     -0.77432263603572
  H   -1.03281128877807      1.59797273304771     -1.26000893462650
  H   0.23241181709803      2.02770663057688     -0.28483858737231
