13
Coordinates from ORCA-job run
  C   0.68004185005958     -0.20081295507438      0.93976475150530
  C   -0.54629928260827      0.24830793908892      0.15130390372151
  F   1.11565543422383      0.90915144595562      1.65069889230696
  H   -1.33557186267709      0.51152884178115      0.87283829794609
  H   0.42146565737868     -0.98167038743789      1.65373654798011
  C   1.75470988022227     -0.66612134038862      0.05620240334770
  N   2.62924710255672     -1.05924651035050     -0.61982911387078
  N   -1.11510409097392     -0.92988226050645     -0.60160346595712
  O   -1.78771398410371     -0.67151184052915     -1.59081740968967
  O   -0.91700166053636     -2.04490270161050     -0.12506751568696
  N   -0.17978965614458      1.25899292675364     -0.79022100507542
  H   0.27082380225246      2.02603184518234     -0.30796613944174
  H   -0.99046318964960      1.60013499713581     -1.28904014708596
