13
Coordinates from ORCA-job run
  C   0.75684329005368     -0.29444299933454      0.90640765525811
  C   -0.51431777852488      0.30994059155444      0.30360527780691
  F   1.24948283368622      0.57033010671876      1.85348970039455
  H   -1.20715783975818      0.51734957703926      1.12146347009745
  H   0.52289440586102     -1.24291661475452      1.39285927305185
  C   1.76205693762087     -0.50547826189620     -0.14513080150676
  N   2.53360083820407     -0.66361233903391     -1.01550479583978
  N   -1.18477670608113     -0.84612750895953     -0.47566117411098
  O   -1.29048277344068     -0.72447216056286     -1.69073455105697
  O   -1.55143559591308     -1.80469838088665      0.19843267436301
  N   -0.25420741985090      1.46271817271371     -0.45405955652339
  H   -1.09922735689399      1.95630600228169     -0.70311240101669
  H   0.27872716503692      1.26410381512037     -1.29105477091728
