13
Coordinates from ORCA-job run
  C   0.76136235627111     -0.26634767562141      0.91158357713169
  C   -0.50425420433133      0.33378277215242      0.29329071188993
  F   1.27926982458704      0.63161948351003      1.81312860892675
  H   -1.18323666764729      0.59485064140012      1.10739415971789
  H   0.51485928214513     -1.18680588248894      1.44345465441486
  C   1.75177613450510     -0.54398438568925     -0.13866702718021
  N   2.51118584181104     -0.75657880115359     -1.00799784730358
  N   -1.20736822416685     -0.84403948890000     -0.42174063020546
  O   -1.32552278920918     -0.77832605058546     -1.63980980603877
  O   -1.58679372275159     -1.76050623112997      0.30195828487542
  N   -0.22997496909367      1.44331066909310     -0.52223269027264
  H   -1.06874509115702      1.94093707503699     -0.78473357843078
  H   0.28644222903750      1.19208787437594     -1.35562841752510
