16

C	0.0	0.0	0.0
C	-0.216496	0.067378	-1.556309
F	1.361709	0.0	0.0
H	0.533934	-0.653355	-1.902616
C	-0.527135	1.091074	0.804209
N	-0.603089	2.064696	1.46254
N	-0.387126	-1.339299	0.571505
O	-0.380978	-2.289325	-0.206085
O	-0.507909	-1.408725	1.786441
C	0.280619	1.384986	-1.977944
N	0.652777	2.433092	-2.356116
C	-1.511361	-0.24914	-2.297975
H	-2.282451	0.466811	-2.042517
H	-1.279309	-0.234852	-3.371886
H	-1.865283	-1.232533	-2.005063
F	-2.266549	0.0	0.0
