16

C	0.0	0.0	0.0
C	-0.434328	-0.2976	-1.445575
F	1.348635	0.0	0.0
H	-1.454251	-0.681886	-1.339975
C	-0.504326	1.263727	0.534262
N	-0.588531	2.352748	0.972398
N	-0.385951	-1.127917	0.939929
O	-0.543905	-2.236799	0.452114
O	-0.349244	-0.859296	2.135446
C	0.466776	-1.264938	-2.067442
N	1.144576	-2.025757	-2.651961
C	-0.479817	0.994573	-2.265493
H	-0.698274	0.761263	-3.310114
H	-1.281081	1.613258	-1.862694
H	0.469475	1.538158	-2.223065
F	-2.390675	0.0	0.0
