16

C	0.0	0.0	0.0
C	-0.408737	-0.052523	-1.48378
F	1.362082	0.0	0.0
H	-1.43917	-0.420247	-1.465563
C	-0.497594	1.162812	0.730682
N	-0.589864	2.185183	1.306197
N	-0.389117	-1.268387	0.736265
O	-0.580938	-2.272509	0.066359
O	-0.337812	-1.211327	1.959714
C	0.490867	-0.938549	-2.221463
N	1.21897	-1.612865	-2.850622
C	-0.376283	1.353627	-2.087839
H	-1.151333	1.94865	-1.606097
H	-0.582483	1.303535	-3.159163
H	0.598324	1.828782	-1.945813
F	-2.368591	0.0	0.0
