16

C	0.0	0.0	0.0
C	-0.434079	-0.120088	-1.493186
F	1.361541	0.0	0.0
H	-1.046425	0.761352	-1.680943
C	-0.471951	1.238191	0.618788
N	-0.536863	2.322981	1.070543
N	-0.334715	-1.187883	0.873584
O	-0.567029	-0.978219	2.055316
O	-0.169992	-2.286021	0.351776
C	-1.313495	-1.248279	-1.808756
N	-1.897671	-2.131305	-2.318944
C	0.763168	-0.151616	-2.45479
H	1.368099	-1.045468	-2.298863
H	1.395858	0.728142	-2.32752
H	0.385034	-0.165453	-3.479505
F	-2.257024	0.0	0.0
