16

C	0.0	0.0	0.0
C	-0.516595	-0.340261	-1.403786
Br	2.023542	0.0	0.0
H	0.260717	-0.059151	-2.120135
H	-0.201695	1.054122	0.174749
N	-0.571706	-0.7705	1.013229
H	-0.396149	-0.424969	1.943586
H	-0.382672	-1.758654	0.944603
N	-1.654266	0.544661	-1.630028
H	-2.045771	0.35527	-2.547493
H	-2.411695	0.339935	-0.970451
C	-0.815512	-1.831146	-1.563934
H	-1.667128	-2.105998	-0.93888
H	-1.087924	-2.035159	-2.60283
H	0.052715	-2.456287	-1.320793
Br	-4.715427	0.0	0.0
