16

C	0.0	0.0	0.0
C	-0.408429	0.092352	-1.501258
Br	1.959317	0.0	0.0
H	0.391712	0.658858	-1.987102
H	-0.21547	0.968592	0.46718
N	-0.569061	-1.121803	0.679725
H	-1.566063	-1.136973	0.456352
H	-0.499854	-0.987655	1.681725
N	-1.636126	0.812492	-1.766814
H	-2.453251	0.371596	-1.344279
H	-1.588759	1.74471	-1.371213
C	-0.473572	-1.2863	-2.145191
H	0.428439	-1.866167	-1.939482
H	-1.335109	-1.844505	-1.773502
H	-0.592668	-1.162097	-3.222994
Br	-4.356944	0.0	0.0
