16

C	0.0	0.0	0.0
C	-0.504893	-0.073681	-1.431568
Br	2.063618	0.0	0.0
H	-1.593702	-0.023684	-1.291458
H	-0.204966	0.968618	0.453546
N	-0.503555	-1.038868	0.744444
H	-0.305525	-1.049227	1.728732
H	-0.462276	-1.927177	0.269621
N	-0.189774	-1.39916	-1.966224
H	-0.86919	-1.648517	-2.672575
H	0.731746	-1.38789	-2.389186
C	-0.05015	1.088916	-2.302278
H	-0.563719	1.045919	-3.266965
H	1.028386	1.055306	-2.476811
H	-0.295457	2.047173	-1.835831
Br	-4.130254	0.0	0.0
