12
Coordinates from ORCA-job run
  C   1.09281883649945     -0.33698377062742     -0.25421774593946
  C   -0.21148391015438     -0.59990271297090      0.51120261782709
  H   1.91656612951012     -0.91689171720055      0.17191867961660
  H   -0.40059775275792     -1.67759565200548      0.48751428644897
  H   0.98698756025325     -0.64691115230540     -1.29873438390045
  H   -0.06915383286470     -0.32440148094295      1.56024033529057
  C   1.46170393615667      1.07905288694018     -0.22983559589689
  N   1.73049108259359      2.22054749163004     -0.19163989708778
  C   -1.39737537953223      0.15656392255858     -0.07599979314281
  H   -1.24010394619714      1.23627894710748     -0.02634425851297
  H   -2.31480532891303     -0.07423437343530      0.46955636613197
  H   -1.55404739459368     -0.11452238874827     -1.12366061083484
