12
Coordinates from ORCA-job run
  C   1.10699120534413     -0.32448492071617     -0.20174632251985
  C   -0.22982569515853     -0.60359654009582      0.49878499312124
  H   1.91528621805256     -0.89830096252626      0.26069349327762
  H   -0.14165366960690     -0.32829442907411      1.55386893613805
  H   1.05494926746051     -0.62963842527810     -1.25171183160605
  H   -0.40555914143934     -1.68333547849967      0.46498392767829
  C   1.46071610147165      1.09488159060200     -0.15293875763686
  N   1.71592341615242      2.23885837299748     -0.09614646938888
  C   -1.39416084558121      0.14075654660806     -0.14449647198981
  H   -1.49878301232991     -0.13239842869651     -1.19809452473916
  H   -1.24999824709149      1.22202369996860     -0.08877013127205
  H   -2.33388559727391     -0.09847102528950      0.35757315893745
