16
Coordinates from ORCA-job run
  C   0.60706684492969     -0.36045906753313      0.30164546122381
  C   -0.60668290177644      0.36073970987659     -0.30121531525071
  H   0.29628855573395     -1.32360923610151      0.70865924454633
  H   -0.29589765394473      1.32397134554988     -0.70810112900531
  N   1.36824539948833      0.37007894782841      1.25531646678272
  H   1.09660802509311      0.15865883339695      2.20301505648964
  H   1.35884546274280      1.36732649098958      1.09455781951475
  N   1.47522255875782     -0.68463749830145     -0.89021953034472
  O   2.02163387837223      0.27405607990748     -1.42841519850387
  O   1.53339176994376     -1.85625063241469     -1.25454566562054
  N   -1.47546627988609      0.68400738748391      0.89019141108099
  O   -2.02091399012098     -0.27545434729852      1.42811169969032
  O   -1.53567498606512      1.85548599888542      1.25449948548978
  N   -1.36784562084219     -0.36895861057472     -1.25574546365241
  H   -1.36113988723831     -1.36601884124129     -1.09373426273186
  H   -1.09368117518784     -0.15893656045291     -2.20302007970892
