14
Coordinates from ORCA-job run
  C   -0.07977788800026     -0.12938629423926     -0.30121021623904
  C   -0.57546178619005      1.30748296492194     -0.27759367183769
  Cl  -0.50784388078512     -0.82423987010005     -1.91881634400089
  H   -1.65700055776578      1.34756892339992     -0.42040543997651
  H   -0.10212237237715      1.89458451518097     -1.06689119938449
  H   -0.33403856561457      1.76242270753879      0.68799218930556
  C   1.43245258467878     -0.19797103559651     -0.16226495092278
  H   1.92135925342597      0.37749905265160     -0.95063871849916
  H   1.73035239185632      0.21456928092423      0.80658856080357
  H   1.78156211738470     -1.23052525429389     -0.22295047012280
  C   -0.77381206140585     -0.97414693593837      0.75498571279685
  H   -1.85688177595339     -0.95174062213756      0.62012678730743
  H   -0.53801689021070     -0.58340898348901      1.74963912568249
  H   -0.44177056904290     -2.01270844882280      0.70143863508746
