14

C	0.0	0.0	0.0
C	-0.511461	0.236107	-1.417525
F	1.365688	0.0	0.0
H	-1.613075	0.3057	-1.333058
H	-0.317797	0.852907	0.609012
N	-0.468229	-1.279148	0.43517
H	-0.225812	-1.389072	1.413793
H	-1.489556	-1.258395	0.381805
C	-0.107104	-0.815884	-2.338598
N	0.195895	-1.667535	-3.087403
N	-0.024994	1.572044	-1.913157
O	0.489373	1.635605	-3.025885
O	-0.208797	2.521543	-1.15925
Br	-3.627605	0.0	0.0
