14

C	0.0	0.0	0.0
C	-0.453262	0.595082	-1.341382
F	1.399646	0.0	0.0
H	-1.555561	0.665377	-1.272677
H	-0.347262	0.665083	0.788957
N	-0.46401	-1.3163	0.243173
H	-0.312035	-1.907676	-0.56651
H	-1.466893	-1.261878	0.42467
C	-0.044004	-0.238146	-2.46215
N	0.281509	-0.983127	-3.309557
N	0.071465	1.992833	-1.519006
O	0.518709	2.317038	-2.615974
O	-0.021804	2.727792	-0.541479
Br	-3.589885	0.0	0.0
