14

C	0.0	0.0	0.0
C	-0.492973	0.084495	-1.438164
F	1.400417	0.0	0.0
H	-1.598428	0.135578	-1.382322
H	-0.300711	0.914013	0.518831
N	-0.45867	-1.225772	0.566132
H	-0.212356	-1.233329	1.549869
H	-1.480985	-1.214087	0.512306
C	-0.049333	-1.04627	-2.240964
N	0.293036	-1.963856	-2.887765
N	-0.035262	1.373718	-2.07021
O	-0.136588	2.381812	-1.379507
O	0.36164	1.343337	-3.231452
Br	-3.610081	0.0	0.0
