14

C	0.0	0.0	0.0
C	-0.496349	-0.058497	-1.436969
F	1.399558	0.0	0.0
H	-1.602452	-0.019011	-1.382927
H	-0.301487	0.958214	0.43013
N	-0.459453	-1.167861	0.678749
H	-0.22387	-1.081283	1.660936
H	-1.480466	-1.164833	0.612679
C	-0.033993	-1.254438	-2.127716
N	0.340821	-2.218286	-2.682573
N	-0.065128	1.16912	-2.196899
O	-0.136311	2.235575	-1.595824
O	0.276881	1.033952	-3.367752
Br	-3.61051	0.0	0.0
