18

C	-0.374946	-0.012757	-1.472008
C	0.0	0.0	0.0
F	-0.023497	1.207282	-2.003401
H	1.093279	0.0	0.0
N	0.245416	-1.102675	-2.100498
H	0.118211	-1.057957	-3.103371
H	1.23821	-1.090559	-1.873542
N	-1.890523	-0.116532	-1.739745
O	-2.444075	-1.117784	-1.299859
O	-2.4281	0.779496	-2.377365
C	-0.51193	-1.139446	0.857995
H	-0.002877	-1.088192	1.822802
H	-1.591054	-1.08875	0.998168
H	-0.261038	-2.087838	0.382961
N	-0.469793	1.302703	0.566461
O	-1.651412	1.594617	0.362053
O	0.321434	1.975907	1.215707
Br	3.403936	0.0	0.0
