18

C	-0.44239	-0.0079	-1.455423
C	0.0	0.0	0.0
F	0.142894	0.975547	-2.165792
H	1.09104	0.0	0.0
N	-0.191693	-1.244934	-2.080772
H	-0.866064	-1.93799	-1.787984
H	-0.218947	-1.128393	-3.08594
N	-1.978887	0.343014	-1.503406
O	-2.749578	-0.608713	-1.376079
O	-2.302617	1.515462	-1.639082
C	-0.484258	-1.195725	0.793453
H	0.008825	-2.084984	0.397789
H	-1.567606	-1.312303	0.772313
H	-0.164392	-1.078609	1.828878
N	-0.461378	1.283012	0.622771
O	-1.453225	1.237231	1.358163
O	0.15931	2.301997	0.337596
Br	3.458317	0.0	0.0
