19

C	0.0	0.0	0.0
C	-0.59165	0.034345	-1.40971
Br	1.949558	0.0	0.0
H	-1.683364	0.016136	-1.170281
N	-0.336014	1.263752	0.809698
O	-0.456726	2.326691	0.211453
O	-0.395724	1.143567	2.028049
C	-0.522617	-1.189351	0.764186
H	-0.271361	-2.08908	0.208129
H	-1.618701	-1.052461	0.784228
H	-0.11393	-1.22346	1.771644
N	-0.223719	-1.240181	-2.042464
H	0.634596	-1.107934	-2.56992
H	-0.955429	-1.482527	-2.701295
C	-0.272462	1.22412	-2.312392
H	-0.826216	2.115187	-2.029842
H	-0.557386	0.948496	-3.333239
H	0.797363	1.45971	-2.309829
H	-3.260291	0.0	0.0
