19

C	0.0	0.0	0.0
C	-0.463896	-0.382513	-1.413393
Br	1.943163	0.0	0.0
H	-1.553922	-0.455579	-1.294768
N	-0.602937	1.298541	0.395903
O	-1.787409	1.429775	-0.162503
O	-0.30367	1.734659	1.537155
C	-0.474818	-1.003912	1.025549
H	-1.57759	-0.943127	1.008877
H	-0.111912	-0.711252	2.012129
H	-0.161195	-2.009795	0.753991
N	0.027489	-1.723782	-1.755925
H	-0.524128	-2.058924	-2.53901
H	0.98914	-1.651584	-2.073199
C	-0.143098	0.667561	-2.471436
H	0.937703	0.753967	-2.62341
H	-0.596715	0.365274	-3.422242
H	-0.549795	1.635843	-2.185867
H	-2.926927	0.0	0.0
