19

C	0.0	0.0	0.0
C	-0.276227	-0.038186	-1.54914
Br	1.957394	0.0	0.0
H	0.477819	0.637631	-1.963181
N	-0.619939	1.174109	0.605484
O	-0.619013	2.231574	-0.107044
O	-0.631291	1.224667	1.86319
C	-0.24872	-1.241993	0.8783
H	0.163799	-2.126364	0.389271
H	0.265845	-1.088534	1.828261
H	-1.312795	-1.392	1.069744
N	-1.610816	0.410513	-1.998196
H	-1.738663	1.319524	-1.556481
H	-1.496401	0.595273	-2.996627
C	-0.067744	-1.435712	-2.120174
H	-0.864808	-2.090676	-1.761039
H	0.905281	-1.855437	-1.86117
H	-0.137732	-1.392092	-3.213231
H	-1.901219	0.0	0.0
