19

C	0.0	0.0	0.0
C	-0.564768	0.085256	-1.432626
Br	1.948968	0.0	0.0
H	-1.656106	0.153101	-1.223401
N	-0.344004	1.239977	0.84844
O	-0.280338	1.111388	2.066666
O	-0.604413	2.287941	0.272742
C	-0.526986	-1.202383	0.741491
H	-0.180509	-1.202993	1.772556
H	-1.6288	-1.097719	0.695169
H	-0.196832	-2.118605	0.253679
N	-0.322845	-1.155473	-2.170213
H	-0.868554	-1.907378	-1.769018
H	0.660378	-1.405912	-2.116567
C	-0.103212	1.241203	-2.312349
H	-0.449989	1.020373	-3.323489
H	-0.515725	2.191445	-1.986981
H	0.988778	1.32153	-2.339179
H	-3.232585	0.0	0.0
