17

C	-0.503555	0.046657	-1.458297
C	0.0	0.0	0.0
Cl	0.249059	-1.302844	-2.374686
H	1.095566	0.0	0.0
C	-2.020764	-0.088764	-1.585502
H	-2.338575	-1.034311	-1.143173
H	-2.518375	0.73723	-1.071928
H	-2.309957	-0.073341	-2.637819
C	-0.087749	1.304732	-2.086543
N	0.142609	2.343754	-2.584649
C	-0.484784	-1.224117	0.631839
N	-0.9417	-2.168016	1.162323
C	-0.437246	1.21992	0.820234
H	0.022145	1.148627	1.807446
H	-1.521505	1.285167	0.942601
H	-0.064089	2.131886	0.350176
Cl	3.284241	0.0	0.0
