17

C	-0.403874	-0.015998	-1.491724
C	0.0	0.0	0.0
Cl	0.16334	1.509228	-2.262831
H	1.096743	0.0	0.0
C	0.263271	-1.183	-2.210685
H	-0.111897	-2.12736	-1.809842
H	0.054718	-1.137919	-3.280856
H	1.339048	-1.114202	-2.031166
C	-1.8619	-0.049641	-1.643161
N	-3.030946	-0.094814	-1.756663
C	-0.46861	-1.246769	0.602634
N	-0.879346	-2.231801	1.09515
C	-0.522218	1.193658	0.796083
H	-0.19734	1.096406	1.833316
H	-0.10015	2.115376	0.397849
H	-1.614419	1.249898	0.771596
Cl	3.312987	0.0	0.0
