17

C	-0.365224	0.095276	-1.493441
C	0.0	0.0	0.0
Cl	-2.143217	0.412023	-1.70824
H	1.098067	0.0	0.0
C	0.424294	1.20294	-2.182622
H	0.231293	1.190138	-3.256385
H	1.487232	1.03654	-1.983173
H	0.129369	2.174333	-1.786479
C	-0.101769	-1.180951	-2.163004
N	0.106563	-2.202277	-2.705638
C	-0.520639	-1.225043	0.596032
N	-0.94452	-2.190114	1.115485
C	-0.426434	1.212269	0.83171
H	0.013357	2.123566	0.425337
H	-0.032606	1.085739	1.841622
H	-1.511471	1.317495	0.88121
Cl	3.289546	0.0	0.0
