17

C	-0.413974	-0.015939	-1.487252
C	0.0	0.0	0.0
Cl	0.183559	1.489253	-2.272081
H	1.096789	0.0	0.0
C	0.213268	-1.201924	-2.209741
H	-0.00336	-1.152868	-3.278067
H	-0.185661	-2.132892	-1.802317
H	1.29136	-1.163847	-2.040963
C	-1.873666	-0.011303	-1.623916
N	-3.043734	-0.02545	-1.722749
C	-0.469761	-1.242458	0.611032
N	-0.880079	-2.226384	1.106036
C	-0.511625	1.19866	0.79684
H	-0.100376	2.11861	0.382545
H	-0.163593	1.109862	1.827671
H	-1.604428	1.250865	0.794757
Cl	3.32022	0.0	0.0
