17

C	-0.506097	0.018329	-1.457387
C	0.0	0.0	0.0
Cl	0.23619	-1.355136	-2.345925
H	1.09562	0.0	0.0
C	-2.02352	-0.107362	-1.5797
H	-2.312817	-0.112591	-2.631616
H	-2.512492	0.73486	-1.085145
H	-2.349064	-1.03976	-1.116067
C	-0.084474	1.258418	-2.1156
N	0.151553	2.276881	-2.652223
C	-0.485399	-1.210496	0.656998
N	-0.938594	-2.152236	1.194619
C	-0.434554	1.237042	0.795624
H	0.029678	1.18752	1.782039
H	-0.064888	2.139067	0.304428
H	-1.518201	1.304127	0.922405
Cl	3.283606	0.0	0.0
