17

C	-0.405307	-0.02012	-1.490737
C	0.0	0.0	0.0
Cl	0.162617	1.5026	-2.268581
H	1.096789	0.0	0.0
C	0.258273	-1.191455	-2.208158
H	0.047753	-1.149751	-3.277993
H	1.335327	-1.124407	-2.031416
H	-0.118736	-2.134047	-1.803367
C	-1.864649	-0.052245	-1.639046
N	-3.034882	-0.096327	-1.747635
C	-0.468027	-1.244359	0.608688
N	-0.87748	-2.228639	1.103989
C	-0.520975	1.196479	0.792792
H	-0.190532	1.103688	1.828757
H	-0.102147	2.117209	0.388503
H	-1.613485	1.250663	0.773631
Cl	3.31031	0.0	0.0
