18

C	-0.021347	-0.02161	-0.026761
C	-0.499757	0.096252	-1.471284
F	1.363253	-0.08309	0.053561
H	-1.566044	0.326955	-1.381696
N	-0.276818	1.359356	0.706094
O	-0.103428	1.325361	1.92109
O	-0.587648	2.362295	0.072197
N	-0.641958	-1.061016	0.620567
H	-0.359175	-1.053165	1.594327
H	-1.703959	-0.780889	0.511447
N	-0.422935	-1.284872	-2.058841
O	-1.473438	-1.825563	-2.393804
O	0.698065	-1.766724	-2.223044
C	0.314388	1.000794	-2.377502
H	0.193419	2.036013	-2.07082
H	1.367496	0.72322	-2.339865
H	-0.038752	0.895472	-3.406948
F	-2.80762	0.034015	0.125008
