18

C	-0.027474	0.054427	-0.0188
C	-0.547276	0.013901	-1.453329
F	1.354142	0.172427	0.026529
H	-1.631775	0.119637	-1.34465
N	-0.443631	1.434665	0.633823
O	-0.871746	2.35428	-0.05498
O	-0.260043	1.495163	1.846202
N	-0.496049	-1.012239	0.711085
H	-1.580331	-0.874671	0.615304
H	-0.202736	-0.897544	1.674991
N	-0.313224	-1.383963	-1.95201
O	-1.296146	-2.069007	-2.222401
O	0.854831	-1.738323	-2.112489
C	0.129746	0.946266	-2.440681
H	-0.231245	0.729799	-3.449868
H	1.20946	0.800262	-2.417529
H	-0.109511	1.977799	-2.198034
F	-2.786556	-0.19067	0.214317
