18

C	-0.013544	0.046082	-0.013586
C	-0.506878	0.00833	-1.457565
F	1.368989	0.141293	0.056679
H	-1.591123	0.13391	-1.370039
N	-0.418387	1.435513	0.625711
O	-0.259091	1.497493	1.841394
O	-0.814848	2.36008	-0.075336
N	-0.513068	-1.009832	0.711642
H	-1.592859	-0.853133	0.596331
H	-0.235536	-0.895851	1.680326
N	-0.288625	-1.395838	-1.945731
O	-1.2784	-2.065185	-2.229958
O	0.875744	-1.771047	-2.084334
C	0.205267	0.924107	-2.435609
H	-0.142931	0.711763	-3.450158
H	1.281309	0.756933	-2.393718
H	-0.01756	1.960889	-2.199712
F	-2.779046	-0.148991	0.170249
