18

C	-0.021166	0.015071	-0.022207
C	-0.497286	0.180971	-1.462919
F	1.361813	0.071842	0.073421
H	-1.579731	0.317242	-1.368421
N	-0.407984	1.314076	0.792487
O	-0.26766	1.208595	2.007528
O	-0.771509	2.333548	0.216531
N	-0.548314	-1.118772	0.550953
H	-1.621976	-0.926648	0.44922
H	-0.279192	-1.139968	1.528436
N	-0.300795	-1.149619	-2.132406
O	-1.299913	-1.75684	-2.508337
O	0.857858	-1.525336	-2.312161
C	0.244839	1.204707	-2.301502
H	-0.096596	1.140114	-3.33826
H	1.316567	1.009379	-2.274176
H	0.041259	2.204516	-1.928238
F	-2.789116	-0.137381	0.109818
