16

C	-0.320401	0.149484	-1.490851
C	0.0	0.0	0.0
F	-1.660667	0.505139	-1.676561
H	1.103042	0.0	0.0
N	0.506826	1.170666	-2.03205
H	1.455079	1.086027	-1.66551
H	0.525591	1.14102	-3.043124
C	-0.197396	-1.159621	-2.191004
N	-0.102471	-2.163435	-2.794489
C	-0.554509	-1.266405	0.64363
H	-1.637392	-1.336547	0.50976
H	-0.077374	-2.145454	0.207807
H	-0.331721	-1.257558	1.711701
C	-0.476507	1.192964	0.694306
N	-0.889931	2.105357	1.307248
Cl	3.28472	0.0	0.0
