16

C	-0.320153	0.082222	-1.49627
C	0.0	0.0	0.0
F	-1.66098	0.424284	-1.698549
H	1.10355	0.0	0.0
N	0.503003	1.082855	-2.082076
H	1.452732	1.014198	-1.715888
H	0.518	1.011149	-3.091245
C	-0.189955	-1.255974	-2.137268
N	-0.087265	-2.286004	-2.693006
C	-0.553568	-1.237488	0.69869
H	-0.072908	-2.133922	0.304859
H	-0.334763	-1.179992	1.765658
H	-1.635377	-1.31619	0.564536
C	-0.47909	1.221646	0.640213
N	-0.896736	2.158785	1.211249
Cl	3.284539	0.0	0.0
