16

C	-0.291877	0.083391	-1.505678
C	0.0	0.0	0.0
F	-0.106891	1.421652	-1.908992
H	1.10452	0.0	0.0
N	0.573399	-0.811075	-2.171137
H	1.530664	-0.668915	-1.842006
H	0.518675	-0.696792	-3.175078
C	-1.704431	-0.221791	-1.838838
N	-2.824427	-0.472813	-2.08909
C	-0.47984	-1.313607	0.617136
H	-0.051434	-2.146274	0.059478
H	-1.570093	-1.390988	0.60608
H	-0.130897	-1.373488	1.649197
C	-0.542926	1.150139	0.708002
N	-1.019304	2.034567	1.316798
Cl	3.307372	0.0	0.0
