16

C	-0.306069	0.248903	-1.487284
C	0.0	0.0	0.0
F	-1.660819	0.530808	-1.640361
H	1.102396	0.0	0.0
N	0.435164	1.334999	-2.065728
H	0.218901	2.172799	-1.531147
H	1.427693	1.140766	-1.924272
C	-0.041884	-0.980503	-2.269975
N	0.125527	-1.959337	-2.895995
C	-0.566446	-1.295707	0.57078
H	-0.32652	-1.366062	1.633027
H	-1.651476	-1.341955	0.448204
H	-0.109196	-2.149143	0.067459
C	-0.463281	1.166787	0.745413
N	-0.858057	2.100911	1.33895
Cl	3.27548	0.0	0.0
