16

C	-0.478319	-0.141834	-1.44959
C	0.0	0.0	0.0
F	-0.087935	-1.378612	-1.925129
H	1.102236	0.0	0.0
N	-1.915514	-0.098307	-1.536323
H	-2.19822	-0.058737	-2.508916
H	-2.262858	0.730727	-1.067726
C	0.159469	0.867164	-2.336911
N	0.525928	1.688562	-3.092819
C	-0.476769	-1.16789	0.866413
H	-1.565186	-1.234271	0.902398
H	-0.080997	-1.0404	1.875264
H	-0.070292	-2.092676	0.45799
C	-0.484805	1.27538	0.517465
N	-0.946493	2.279286	0.918912
Cl	3.285334	0.0	0.0
