17

C	0.0	0.0	0.0
C	-0.390216	-0.009044	-1.475811
F	1.378943	0.0	0.0
H	0.037487	-0.936002	-1.879147
C	-0.395543	1.193033	0.829907
H	-0.164551	2.07532	0.232826
H	0.216688	1.198091	1.732896
H	-1.455461	1.130928	1.043951
N	-0.383671	-1.304382	0.664676
O	-0.450328	-2.305186	-0.045091
O	-0.483198	-1.305336	1.886442
N	0.230653	1.17896	-2.097299
H	1.208734	0.983499	-2.27479
H	-0.231949	1.320285	-2.98631
C	-1.829881	-0.016254	-1.834965
N	-2.570965	-0.011744	-2.763207
F	-2.539705	0.0	0.0
