17

C	0.0	0.0	0.0
C	-0.303684	0.042013	-1.523793
F	1.362356	0.0	0.0
H	0.407787	0.825272	-1.836384
C	-0.621488	1.123847	0.766095
H	-1.710339	0.948734	0.720714
H	-0.249102	1.113892	1.791358
H	-0.369361	2.068851	0.280293
N	-0.410291	-1.308099	0.652559
O	-1.082058	-2.106315	0.013546
O	-0.012695	-1.457999	1.807054
N	-1.637393	0.400329	-1.921128
H	-2.364043	0.15889	-1.160721
H	-1.869444	-0.071366	-2.785178
C	0.229107	-1.185566	-2.164582
N	0.624202	-2.102409	-2.784797
F	-3.180831	0.0	0.0
