17

C	0.0	0.0	0.0
C	-0.274778	0.121385	-1.530562
F	1.366571	0.0	0.0
H	0.44635	0.918387	-1.775449
C	-0.571213	1.127725	0.800098
H	-0.288006	2.06894	0.323257
H	-1.662939	0.98885	0.775689
H	-0.170748	1.087077	1.814069
N	-0.432083	-1.3177	0.608867
O	-0.953031	-2.162199	-0.105642
O	-0.17711	-1.445644	1.805609
N	-1.595725	0.511792	-1.958445
H	-2.312323	0.262792	-1.197717
H	-1.825695	0.016028	-2.808207
C	0.265346	-1.065912	-2.232399
N	0.650242	-1.968355	-2.879332
F	-3.056284	0.0	0.0
