17

C	0.0	0.0	0.0
C	-0.332426	0.033543	-1.524968
F	1.361237	0.0	0.0
H	0.306928	0.867145	-1.850381
C	-0.628412	1.114362	0.772777
H	-0.354428	2.069123	0.314931
H	-1.719278	0.941176	0.702755
H	-0.280018	1.087361	1.805903
N	-0.404531	-1.314004	0.644914
O	-1.089719	-2.099457	0.001263
O	0.00377	-1.480854	1.79341
N	-1.675444	0.247689	-1.98761
H	-1.811582	1.248481	-2.068793
H	-2.376448	-0.040521	-1.23141
C	0.276095	-1.153991	-2.172725
N	0.772215	-2.047177	-2.752276
F	-3.182829	0.0	0.0
