17

C	0.0	0.0	0.0
C	-0.624803	0.132018	-1.374872
F	1.363034	0.0	0.0
H	-1.73201	0.019119	-1.095262
C	-0.51638	1.014936	0.984655
H	-1.610861	0.928287	0.946905
H	-0.179992	2.006722	0.673168
H	-0.10943	0.78912	1.970435
N	-0.348889	-1.399642	0.539495
O	0.109753	-1.651455	1.653408
O	-0.999612	-2.179357	-0.141305
N	-0.085523	-0.858715	-2.317678
H	0.298362	-0.403734	-3.134524
H	-0.839974	-1.46697	-2.602934
C	-0.406473	1.48455	-1.875808
N	-0.219907	2.549815	-2.338552
F	-2.899583	0.0	0.0
