17

C	0.0	0.0	0.0
C	-0.409679	-0.062045	-1.467305
F	1.378978	0.0	0.0
H	-0.022717	-1.019397	-1.838849
C	-0.388776	1.226575	0.785693
H	-1.447885	1.186533	1.005856
H	-0.157554	2.082662	0.150844
H	0.222806	1.263281	1.688607
N	-0.380461	-1.277235	0.72193
O	-0.478101	-1.224896	1.94306
O	-0.445602	-2.307718	0.056512
N	0.228368	1.080435	-2.149074
H	-0.240988	1.180656	-3.041055
H	1.200577	0.855288	-2.321044
C	-1.859637	-0.033293	-1.793232
N	-2.587317	-0.002759	-2.732175
F	-2.555246	0.0	0.0
