17

C	0.0	0.0	0.0
C	-0.498732	0.167995	-1.459588
F	1.36411	0.0	0.0
H	0.42465	0.273093	-2.044108
C	-0.447781	1.049342	0.977923
H	0.074995	0.882172	1.921032
H	-0.180548	2.022718	0.566046
H	-1.5284	0.953191	1.081845
N	-0.309454	-1.39497	0.544887
O	-0.769442	-1.509465	1.671839
O	0.066477	-2.326027	-0.16847
N	-1.294313	1.385319	-1.582504
H	-2.139022	1.100807	-1.027436
H	-1.564262	1.464805	-2.557839
C	-1.212224	-0.991522	-2.039147
N	-1.772252	-1.767968	-2.723847
F	-2.753747	0.0	0.0
