17

C	0.0	0.0	0.0
C	-0.402097	0.210466	-1.512967
F	1.362044	0.0	0.0
H	-0.396549	1.305745	-1.609116
C	-0.603415	0.999859	0.927562
H	-0.284958	0.81209	1.952612
H	-1.696406	0.873453	0.815749
H	-0.282378	1.997335	0.617997
N	-0.347813	-1.419051	0.439403
O	-0.520422	-1.623943	1.636154
O	-0.333242	-2.285718	-0.430822
N	-1.652335	-0.270493	-2.040953
H	-1.589324	-1.280574	-2.087918
H	-2.394115	-0.069347	-1.304286
C	0.696918	-0.271342	-2.376861
N	1.526127	-0.670078	-3.106061
F	-3.097763	0.0	0.0
