17

C	0.0	0.0	0.0
C	-0.335443	-0.027488	-1.525154
F	1.361175	0.0	0.0
H	0.310567	0.784679	-1.886342
C	-0.63758	1.139053	0.726247
H	-0.297001	1.152688	1.762788
H	-1.727502	0.952027	0.653132
H	-0.367752	2.078211	0.234937
N	-0.404221	-1.287122	0.698393
O	-1.09473	-2.092955	0.089678
O	0.002788	-1.407695	1.852758
N	-1.677844	0.180316	-1.995527
H	-1.810904	1.18035	-2.097068
H	-2.379953	-0.08993	-1.233551
C	0.259066	-1.245289	-2.124167
N	0.748289	-2.163842	-2.667053
F	-3.189497	0.0	0.0
