16
Coordinates from ORCA-job run
  C   0.84828855150239      0.10039818982488      0.07217934142025
  C   -0.49288137194810     -0.06773112876017      0.03702571171114
  N   1.50473236029502      1.25523242341175      0.48884978368533
  H   2.49768371866050      1.19708209109193      0.31234308135277
  H   1.11593258688172      2.09629974637261      0.08884682949194
  N   1.77673859314009     -0.97874092100819     -0.30900081869742
  O   2.92841651579016     -0.64573919100418     -0.60555041571239
  O   1.37146845357916     -2.13871532405229     -0.28614662396772
  C   -1.33400194877333      1.06868635627482      0.55261477165030
  H   -0.81492264513943      1.62600186025906      1.33579886087236
  H   -2.27128684993763      0.68637106072527      0.96347499248921
  H   -1.59828162062053      1.77160993880310     -0.24806466186008
  C   -1.22993596655239     -1.26071646800796     -0.50307288433862
  H   -2.20875533202955     -0.94012230597706     -0.86916399057793
  H   -0.70121612965899     -1.76313603159855     -1.31121406259472
  H   -1.39297891518909     -2.00678029635501      0.28108008507557
