16
Coordinates from ORCA-job run
  C   0.83537669041272      0.17568691477053     -0.08188269849651
  C   -0.49628776929010     -0.02394067442479      0.04100620088295
  N   1.50102048882597      0.46112391217252     -1.27083624279510
  H   2.50302508901322      0.44527763708258     -1.14340051069769
  H   1.22459031594017     -0.14059079646026     -2.03244168505042
  N   1.73653878566172      0.14363329589263      1.08379550148478
  O   2.93699681830452     -0.03672547635501      0.85685955344443
  O   1.25849081768551      0.32240687677283      2.20176578802623
  C   -1.32625122760254      0.14092928759800     -1.20341079657403
  H   -0.88481885501733      0.87223935368035     -1.88438089260422
  H   -1.43508927885367     -0.80766844067939     -1.74501030688352
  H   -2.33276032563289      0.47597309711783     -0.94219060353086
  C   -1.22687417596825     -0.43302283527945      1.28889982237803
  H   -1.54002375000697      0.44428257303196      1.86362218141883
  H   -0.62643811258067     -1.04897910174313      1.95615362187791
  H   -2.12549551089141     -0.98962562317722      1.01045106711920
