16
Coordinates from ORCA-job run
  C   0.83578362828693      0.18847931174053     -0.02286618927351
  C   -0.49788636760152     -0.03192441422997      0.00841233328837
  N   1.57434673665716      0.49718110385150     -1.16215741617197
  H   2.56584333967403      0.49136757324113     -0.96834398116076
  H   1.35640161412142     -0.09963852534236     -1.94635232084148
  N   1.65782727376956      0.15818543575919      1.19960456190092
  O   2.87327300911388     -0.00242111460676      1.05130810989931
  O   1.10404927174154      0.31828584350871      2.28498015931339
  C   -1.30553038712855     -0.46439076929706      1.19949051627443
  H   -2.17146784963260     -1.03619919450514      0.85596436617580
  H   -0.74060582685650     -1.07254922807098      1.90374403313666
  H   -1.67553506098502      0.40288587668694      1.75547358318845
  C   -1.24309031573650      0.13349553879431     -1.28874420911517
  H   -2.27365699698456      0.43940364525300     -1.09469721966962
  H   -1.28926229737503     -0.80820881006614     -1.85110702871243
  H   -0.77248977106424      0.88604772728313     -1.92570929823239
