16
Coordinates from ORCA-job run
  C   0.84347668194960      0.12993933777413      0.07061997971581
  C   -0.49252688424846     -0.07608206757293      0.03775476803358
  N   1.46515045297667      1.34427599672259      0.34804887928426
  H   2.46062685774277      1.29203503122474      0.18384656151705
  H   1.05640715643900      2.11988070092186     -0.15191415241126
  N   1.80469348389364     -0.96415138399775     -0.15289010014612
  O   1.42669130805637     -2.12205157552881      0.01059207570782
  O   2.95375376435442     -0.64182081867291     -0.47085332901066
  C   -1.19050784831426     -1.34794191870195     -0.35436956628792
  H   -1.34438636778977     -1.99385854130751      0.51577643680712
  H   -2.17191740939410     -1.10403651511409     -0.76921773822598
  H   -0.63684678913533     -1.93285984683897     -1.08683618915986
  C   -1.36724400409087      1.09737527186652      0.38824824337496
  H   -2.31090294916754      0.74997387868772      0.81494723715730
  H   -1.61699584932067      1.69542669237707     -0.49783037530198
  H   -0.88147160395148      1.75389575816028      1.11407726894586
