16
Coordinates from ORCA-job run
  C   0.85064595416948      0.06677085476069     -0.07385412788209
  C   -0.48771897328015     -0.10837512388412      0.00696259609056
  N   1.54661642286575      0.44174307413091     -1.21973946458175
  H   2.51470645253040      0.64179427682817     -1.01129824740934
  H   1.11534392940146      1.21206574033972     -1.70883121831358
  N   1.73715208400484     -0.17180671031591      1.07858641030472
  O   2.85537478806940      0.35109469881348      1.04073234582812
  O   1.33447818508831     -0.88833965036012      1.99226909093175
  C   -1.27083740632321      0.06255742645910     -1.26681974923024
  H   -2.17416625336962     -0.55101680813807     -1.23923266939516
  H   -0.68161111806624     -0.22998778955494     -2.13920900670893
  H   -1.59373687597362      1.10233679794150     -1.40745419896940
  C   -1.27470467160908     -0.41557795471401      1.24986946180958
  H   -0.82988187340637     -0.00082299138035      2.15280089562685
  H   -2.28596510380444     -0.01528599182604      1.14091544928823
  H   -1.35569554029692     -1.49614984910002      1.40430243261069
