16
Coordinates from ORCA-job run
  C   0.80576164108010      0.20171626466184     -0.13544172036708
  C   -0.49520341578655     -0.12451522274050     -0.02005682194448
  N   1.53072393483191      0.19711438629455     -1.34408251714302
  H   1.87706451440521      1.12682811963392     -1.55414046662356
  H   2.33573028596370     -0.41219136734252     -1.25506885938775
  N   1.60428010538397      0.51626986633631      1.07792827656348
  O   1.07933912371746      1.14510875026625      1.99538119853164
  O   2.77391723666587      0.12705770103175      1.06821575784435
  C   -1.26660013916837     -0.16513169061671      1.27005750126476
  H   -2.09812115130713     -0.86628298101931      1.17117486271725
  H   -0.66071151757798     -0.45314992072237      2.12761652865629
  H   -1.68315842589441      0.82136099806153      1.49257355506287
  C   -1.28637399534570     -0.46192472632417     -1.25023565062356
  H   -0.68350087419347     -0.38179088704328     -2.15141405966979
  H   -1.68380313502186     -1.47876453929592     -1.16777651901918
  H   -2.14934418775275      0.20829524881863     -1.32573106586221
