16
Coordinates from ORCA-job run
  C   0.84166346081606      0.01927030378350     -0.16255269783857
  C   -0.48407195253722     -0.08895769723434      0.08005223124254
  N   1.43406326771215      0.00631649730938     -1.42245161610301
  H   0.96634374452693      0.60755326007634     -2.08453641884938
  H   2.41823255953284      0.22754628999331     -1.36697129287534
  N   1.82485335753165      0.12843636709007      0.92983883170357
  O   2.93319750504432      0.58940998205953      0.63959405342853
  O   1.50541808388387     -0.26347600459297      2.04993677013815
  C   -1.37791137049357     -0.30376541330104     -1.11143530841865
  H   -1.73239546803721      0.64802953303222     -1.52789652244435
  H   -2.26333037447695     -0.87303959710990     -0.81900123127721
  H   -0.86223888082085     -0.85027999057512     -1.90442651968860
  C   -1.16027061791454      0.02402676674404      1.41728585558557
  H   -0.63726401063994      0.68151996539175      2.10954675968981
  H   -1.23252754083716     -0.95467498723754      1.90201874241095
  H   -2.17576176329038      0.40208472457074      1.27299836329600
