16
Coordinates from ORCA-job run
  C   0.84047181453536     -0.13375063126090     -0.10393595561991
  C   -0.49750168263872      0.00294068788967      0.03540752329968
  N   1.53110110702883     -0.11317872399213     -1.31245537355216
  H   1.25054921796156      0.64640889213348     -1.91480235143517
  H   2.53035333768268     -0.10715051824559     -1.16436079070851
  N   1.72277048342130     -0.36338681822690      1.05391077595849
  O   1.23224964710916     -0.81371416549722      2.08682262408629
  O   2.92184640234626     -0.11038059638806      0.90122114487023
  C   -1.30391978861359      0.12361958976923     -1.22943572285429
  H   -1.42653822823993      1.17149146993213     -1.53269988052346
  H   -2.30626308812731     -0.28290693666962     -1.07582223195673
  H   -0.83522266613936     -0.41627786679525     -2.05543723863894
  C   -1.25675500424240      0.08765838199578      1.32952470357084
  H   -2.16394863152382      0.67716796240470      1.17348198587483
  H   -1.55773565329600     -0.90743788515718      1.67191549751845
  H   -0.68145726726401      0.53789715810787      2.13666529011037
