16
Coordinates from ORCA-job run
  C   0.79984500885103      0.25172840101589      0.06932552666838
  C   -0.50771876039881     -0.05890196997291     -0.00585756050082
  N   1.31686054193084      1.41067927356224      0.68216820571518
  H   1.81152252630327      1.98067427650288      0.00482855498379
  H   1.98169581089669      1.14840209089187      1.40071926880335
  N   1.82088507847373     -0.69912267899135     -0.44309118335128
  O   2.86389206425852     -0.77144981756811      0.21009544787897
  O   1.58787629570152     -1.33456847341167     -1.47006212669495
  C   -1.06496442513383     -1.31268317245834     -0.62095756428618
  H   -0.40756482451888     -2.17442524317009     -0.51724241200450
  H   -2.02769266687744     -1.54381036454793     -0.15976694991084
  H   -1.23160185626841     -1.16728701585586     -1.69205368228133
  C   -1.52900290170731      0.89747696458114      0.53754655618229
  H   -2.11027495367282      0.41003472614450      1.32703683921641
  H   -2.23664336430969      1.16738496449801     -0.25363202908514
  H   -1.06611357352842      1.79786803877972      0.93394310866668
