16
Coordinates from ORCA-job run
  C   0.84445653669631      0.14705692909595     -0.03195273172183
  C   -0.49241594809937     -0.05415199602561     -0.05352675367359
  N   1.47218136155342      1.37513588329086      0.15814183386413
  H   2.47105377055024      1.26442559714489      0.26067130440824
  H   1.08664701128032      1.90082962436117      0.92854244116508
  N   1.79913451948432     -0.95385459366176     -0.25403141632087
  O   1.40711077549998     -1.96382946073323     -0.83415224732002
  O   2.95630831629659     -0.77745706333105      0.13954899300261
  C   -1.19521623502287     -1.37860851882923     -0.15493840442824
  H   -0.63528260413663     -2.19772106777829      0.29305501398576
  H   -1.37005677024579     -1.64889292724570     -1.20105220628397
  H   -2.16724875998637     -1.30589300522577      0.33976307072088
  C   -1.36644374795881      1.16395637885739      0.07635922512947
  H   -2.30807592232713      1.00834470669106     -0.45547473987468
  H   -0.88035210233628      2.05103747340106     -0.33608577701509
  H   -1.62080020124792      1.36962203998825      1.12413239436212
