16
Coordinates from ORCA-job run
  C   0.83277084551444      0.20093542042252     -0.02633527444388
  C   -0.49749230093865     -0.03855715878749      0.01080123197197
  N   1.55781871549355      0.54594375165461     -1.16372652290410
  H   2.55082726396371      0.55073051351680     -0.97796101753702
  H   1.34281032563770     -0.03578581154028     -1.95995505195269
  N   1.66526045081980      0.15159561531941      1.18871986735915
  O   2.88125382501185      0.00904157706286      1.02718745764606
  O   1.11835423521512      0.28010000493853      2.28176075410168
  C   -1.28695202244620     -0.51088767744624      1.19907297159864
  H   -0.70823222139854     -1.13240483899492      1.88023479154031
  H   -2.15117827865708     -1.08183185851200      0.84995210686155
  H   -1.65836417166607      0.33692380545809      1.78335664868992
  C   -1.25707417498979      0.14741039111936     -1.27484751002067
  H   -1.30212642066555     -0.78261006331208     -1.85634991702884
  H   -2.28792555166838      0.44132545335447     -1.06398938776773
  H   -0.79975051922590      0.91707087574636     -1.90092114811435
