15

C	-0.321773	-0.021156	-1.485805
C	0.0	0.0	0.0
Cl	-0.194458	1.651153	-2.198228
H	1.094209	0.0	0.0
H	-0.312547	-0.978835	0.380307
N	0.477888	-0.984564	-2.119848
H	1.449477	-0.871676	-1.831263
H	0.387599	-0.947318	-3.125906
N	-1.778164	-0.402498	-1.759165
O	-2.555739	-0.415284	-0.808613
O	-2.069968	-0.684987	-2.91671
N	-0.548414	1.119901	0.730821
H	-1.336344	0.829049	1.289256
H	0.16803	1.501721	1.331269
Br	3.565237	0.0	0.0
