15

C	-0.514954	-0.004752	-1.4187
C	0.0	0.0	0.0
Cl	0.249948	-1.312086	-2.367175
H	1.09145	0.0	0.0
H	-0.352404	-0.936693	0.443111
N	-1.915791	-0.103174	-1.499261
H	-2.279788	0.574245	-0.835653
H	-2.242879	0.095439	-2.435455
N	-0.019243	1.308598	-2.122659
O	0.985522	1.854496	-1.689947
O	-0.676063	1.691031	-3.093366
N	-0.62493	1.146703	0.681778
H	-0.778153	0.909056	1.653128
H	0.048393	1.908222	0.672909
Br	2.931618	0.0	0.0
