15

C	-0.622881	0.088391	-1.375773
C	0.0	0.0	0.0
Cl	0.210293	-1.09077	-2.490735
H	1.088737	0.0	0.0
H	-0.298617	-0.982284	0.398617
N	-2.026227	-0.087623	-1.326229
H	-2.436334	0.110263	-2.229984
H	-2.228493	-1.041283	-1.055139
N	-0.360888	1.450641	-2.008987
O	0.692445	2.000292	-1.741062
O	-1.221426	1.865991	-2.785926
N	-0.489124	1.126842	0.782697
H	0.258633	1.458608	1.376999
H	-1.292819	0.878127	1.341464
Br	3.653579	0.0	0.0
