15

C	-0.608569	0.051331	-1.384775
C	0.0	0.0	0.0
Cl	0.070536	-1.22442	-2.417913
H	1.091415	0.0	0.0
H	-0.334812	-0.95401	0.416071
N	-2.016635	-0.05348	-1.326155
H	-2.420728	0.197641	-2.219205
H	-2.313813	0.596719	-0.603741
N	-0.206609	1.380236	-2.08631
O	0.705715	2.041169	-1.608159
O	-0.868311	1.682468	-3.078562
N	-0.576753	1.105095	0.785023
H	0.091734	1.8669	0.760194
H	-0.647703	0.811591	1.750929
Br	3.675344	0.0	0.0
