15

C	-0.602099	0.069533	-1.389626
C	0.0	0.0	0.0
Cl	0.193107	-1.205288	-2.436062
H	1.091835	0.0	0.0
H	-0.355543	0.881604	0.538026
N	-1.999411	-0.030353	-1.336492
H	-2.225134	-0.780784	-0.690162
H	-2.406671	-0.170845	-2.250725
N	-0.285027	1.382608	-2.090233
O	0.480902	2.159147	-1.534856
O	-0.860702	1.570825	-3.158288
N	-0.54625	-1.210111	0.644689
H	-0.498693	-1.072162	1.646518
H	0.09269	-1.970099	0.437928
Br	3.684626	0.0	0.0
