15

C	-0.328718	-0.023305	-1.478099
C	0.0	0.0	0.0
Cl	-0.130545	1.678083	-2.171885
H	1.100835	0.0	0.0
H	-0.410587	0.888808	0.472472
N	0.444022	-0.995277	-2.112131
H	1.426007	-0.86057	-1.875066
H	0.296097	-1.041185	-3.109872
N	-1.811588	-0.300303	-1.712001
O	-2.107488	-1.062869	-2.627571
O	-2.60108	0.291634	-0.989052
N	-0.553649	-1.218038	0.603766
H	0.129178	-1.956938	0.479125
H	-0.643983	-1.06405	1.601375
Br	3.575586	0.0	0.0
