15

C	-0.592618	0.044845	-1.395172
C	0.0	0.0	0.0
Cl	0.231599	-1.217433	-2.418997
H	1.091887	0.0	0.0
H	-0.363929	0.883622	0.527121
N	-1.993589	-0.081044	-1.353319
H	-2.201416	-0.833821	-0.704568
H	-2.379745	-0.252136	-2.272166
N	-0.309924	1.366151	-2.098078
O	-0.807168	1.494328	-3.212775
O	0.32914	2.215903	-1.491299
N	-0.534452	-1.211372	0.654646
H	-0.514024	-1.054121	1.65473
H	0.128724	-1.95916	0.477571
Br	3.629421	0.0	0.0
