15

C	-0.4978	0.011263	-1.427756
C	0.0	0.0	0.0
Cl	-2.392342	-0.268831	-1.353409
H	1.091952	0.0	0.0
H	-0.358876	-0.900937	0.499285
N	-0.13861	1.147601	-2.098622
H	-0.231681	1.952528	-1.49275
H	-0.515983	1.243269	-3.027245
N	-0.074157	-1.215734	-2.214955
O	-0.039722	-1.096655	-3.434946
O	0.158037	-2.236086	-1.581522
N	-0.422071	1.256494	0.624072
H	-1.290846	1.134259	1.126452
H	0.297598	1.53977	1.275852
Br	3.574838	0.0	0.0
