15

C	-0.621404	-0.018206	-1.388998
C	0.0	0.0	0.0
Cl	-0.035813	-1.35848	-2.378774
H	1.089133	0.0	0.0
H	-0.325005	0.950111	0.459381
N	-2.038638	-0.073552	-1.317191
H	-2.369493	0.773423	-0.869926
H	-2.433348	-0.102605	-2.249669
N	-0.147008	1.289265	-2.108045
O	-1.019535	2.139244	-2.316817
O	1.04003	1.404072	-2.360507
N	-0.422338	-1.185974	0.726525
H	0.325094	-1.468957	1.342396
H	-1.261899	-1.026565	1.259531
Br	3.643182	0.0	0.0
