16
Coordinates from ORCA-job run
  C   0.83399029430747      0.39303821536016     -0.10467774216358
  C   -0.51060184964380     -0.33877651517977      0.03109426053674
  Cl  0.86755726132570      1.87406623966550      0.83104117064701
  H   -0.36012055325935     -1.34686939046498     -0.36422991270659
  C   1.10454448995986      0.67350117320625     -1.50923225777879
  N   1.30580187628153      0.90296754310999     -2.64487819625757
  N   1.99163046326047     -0.56754947395570      0.34490393456694
  O   2.75511960968838     -0.19352659151141      1.20945072352348
  O   2.00204505149937     -1.61611364252905     -0.28028984476626
  C   -1.65815593462123      0.37113431301244     -0.65033725843997
  H   -2.57909930019061     -0.18834367548962     -0.49037333613566
  H   -1.47000371876064      0.42788562055662     -1.72356841585893
  H   -1.79569238613493      1.37538868292749     -0.25163262535083
  N   -0.77274643701283     -0.53453703576553      1.50671943294988
  O   0.10020555963014     -1.14247077689454      2.12072036151825
  O   -1.81347442632953     -0.09079468604786      1.97628970571586
