16
Coordinates from ORCA-job run
  C   0.83568671570544      0.39788303478562     -0.06687214752291
  C   -0.51135844950569     -0.33930846897791      0.00110103987692
  Cl  0.85759063010389      1.81265675343389      0.96691799786124
  H   -0.35616228794989     -1.31845894404613     -0.45974766315982
  C   1.12496563194209      0.77192757004543     -1.44560528644070
  N   1.34108132967670      1.07493164289919     -2.56111188570668
  N   1.98615323439144     -0.59254860412538      0.33251274318086
  O   2.73733399453044     -0.27933036701962      1.23137141652457
  O   2.00467031949912     -1.59642519189816     -0.36206474133429
  C   -1.64901941426883      0.41716106842290     -0.64589493895402
  H   -2.57285243049221     -0.14932590558556     -0.53530678440589
  H   -1.79042521282409      1.39272536921146     -0.18266682605164
  H   -1.44702400567362      0.54515940357767     -1.71035250044929
  N   -0.79341669414819     -0.63371124458395      1.45656744566809
  O   -1.83970865470567     -0.22057330037099      1.94115832072894
  O   0.07148529371907     -1.28176281576846      2.03999381018463
