16
Coordinates from ORCA-job run
  C   0.99298120003198      0.07445243220933      0.23655131883819
  C   -0.47289236658984     -0.33734308184894      0.41362465676702
  Cl  1.87682549345868     -0.08277889914979      1.75430781032028
  H   -0.47491823566804     -1.35480524257711      0.80517360893149
  C   1.17942113217423      1.40352781479605     -0.32182075342080
  N   1.33888962670118      2.47737192991367     -0.77349256534454
  N   1.56760070892572     -0.96355260370108     -0.76615003226599
  O   1.54562925540849     -2.12259696213930     -0.38403570125322
  O   1.93957756645444     -0.53990803000626     -1.85065518167216
  C   -1.28315920198062     -0.19240621936748     -0.85976275844011
  H   -1.26209246815153      0.83742655136182     -1.21777561782705
  H   -0.89877797304757     -0.85310844178691     -1.63870738337476
  H   -2.31863369996352     -0.47545913917252     -0.66102047684308
  N   -1.08574739866806      0.50504671665584      1.49363907685746
  O   -1.16228146538203      1.71113531721530      1.27727688686209
  O   -1.48242217370354     -0.08600214240263      2.49384711186519
