16
Coordinates from ORCA-job run
  C   0.91716772379260     -0.11340349844316     -0.49773204947279
  C   -0.51809457765349     -0.52996460019733     -0.11840881512451
  Cl  1.09744004236679     -0.24313720452095     -2.25222073612843
  H   -0.64256483490707     -1.54921823457731     -0.48876072009885
  C   1.88355662638091     -0.98564127852493      0.15673058314004
  N   2.60846145179074     -1.75535078002539      0.67126916398053
  N   1.22325743199495      1.34726122644653     -0.09853977905445
  O   0.58466025928973      2.19820000902446     -0.69531276534591
  O   2.06492752718371      1.51197972191424      0.77081776442299
  C   -1.64362533278803      0.37317271681415     -0.58478017710620
  H   -1.60855498539039      1.33469868940211     -0.07802810305864
  H   -1.58580352861667      0.53662047337998     -1.65979007520752
  H   -2.59082082010676     -0.12077194243699     -0.35636112066206
  N   -0.57830618131623     -0.64592782664065      1.37899752486176
  O   -0.33221014858485      0.38180723501604      2.00623314249032
  O   -0.87849065343595     -1.73932470663080      1.84688616236372
