13

C	-0.511062	0.049323	-1.412149
C	0.0	0.0	0.0
F	-1.882971	0.135517	-1.432583
H	1.090793	0.0	0.0
H	-0.091629	0.872676	-1.984886
H	-0.360814	-0.926002	0.463724
N	-0.159141	-1.214017	-2.149463
O	-0.790794	-2.225284	-1.848039
O	0.736939	-1.141784	-2.985168
N	-0.444997	1.221944	0.669506
H	0.283347	1.5214	1.302907
H	-1.288398	1.05524	1.198278
Br	3.584569	0.0	0.0
