13

C	-0.527778	0.098187	-1.40708
C	0.0	0.0	0.0
F	-1.864873	0.418975	-1.410417
H	1.090631	0.0	0.0
H	0.011741	0.826877	-2.012532
H	-0.305845	0.937612	0.491949
N	-0.384024	-1.222744	-2.121239
O	-1.387889	-1.893126	-2.327308
O	0.762165	-1.509889	-2.436597
N	-0.499278	-1.208571	0.639259
H	-1.414801	-1.061339	1.038103
H	0.137965	-1.478784	1.373784
Br	3.638705	0.0	0.0
