13

C	-0.555489	0.047659	-1.402454
C	0.0	0.0	0.0
F	-0.458173	-1.157224	-2.025834
H	1.100213	0.0	0.0
H	-1.598808	0.374054	-1.402952
H	-0.339916	-0.957815	0.405101
N	0.167276	1.068515	-2.2562
O	0.658668	0.714655	-3.316416
O	0.151327	2.211441	-1.805661
N	-0.589269	1.079972	0.806841
H	-0.15084	1.943784	0.507684
H	-0.28019	0.931511	1.761264
Br	3.638092	0.0	0.0
