16
Coordinates from ORCA-job run
  C   -0.90923556923955     -0.12518861647147     -0.15009601681193
  C   0.58190792505341     -0.19518590896998      0.18452186696889
  F   -1.03441024741965      0.22175740710010     -1.49116572703717
  H   0.65500757751829     -0.53600740474124      1.22515132239104
  C   -1.53058255886364     -1.46772825508040     -0.01273696048867
  N   -2.10015384885063     -2.47501367267385      0.18785143096788
  N   -1.57685123367185      0.89074298761498      0.60713762720066
  H   -2.57450853128077      0.86199755448551      0.43079339594555
  H   -1.42117516992079      0.75259303818669      1.59841286934020
  C   1.24094806025709      1.17442833258669      0.04004982539846
  H   2.30948828821021      1.08562861247132      0.25157462377256
  H   0.80894207085052      1.91512494651167      0.71382255139652
  H   1.11948446156300      1.53825615413928     -0.98235452218877
  N   1.14586224693064     -1.24607763432279     -0.65121169581077
  H   2.08251683553743     -1.47315402662677     -0.34270275974481
  H   1.20375969332627     -0.92017351420974     -1.60904783129965
