16
Coordinates from ORCA-job run
  C   -0.87584774978801     -0.50625189885073      0.04681808379004
  C   0.64456410769886     -0.30349694486755      0.02825805290826
  F   -1.09642239288849     -1.77944321295363     -0.54764236426416
  H   1.06818389506413     -1.17469626934820      0.54802177891556
  C   -1.38824381103381     -0.62536630455371      1.42496370613003
  N   -1.76773340279178     -0.72272254034990      2.53131634523162
  N   -1.52911661464390      0.53024699293545     -0.63857632939661
  H   -1.07447043222232      0.66394888435315     -1.53475682653452
  H   -2.52047460894046      0.36018155668306     -0.74014910627625
  C   1.05402607745542      0.97133864332919      0.74428371907469
  H   0.70547443169701      0.97310888101130      1.77845229192472
  H   0.63610795597374      1.83897688899467      0.23332969065094
  H   2.14401830848825      1.05630274045177      0.75934366111497
  N   1.02533792624950     -0.23842319649677     -1.38107567745342
  H   1.96511837503170      0.12682159024075     -1.46784399997403
  H   1.00847793465016     -1.16652581057884     -1.78574302584183
