16
Coordinates from ORCA-job run
  C   -0.88621928534697     -0.48865133257548      0.04120998908875
  C   0.63812540394558     -0.31693345998242      0.03274408147536
  F   -1.12888431138023     -1.75708038844035     -0.55454582983132
  H   1.04032765277389     -1.19630718143743      0.55578602624614
  C   -1.40998173312587     -0.59661089715912      1.41601286110974
  N   -1.79846362106642     -0.68517975243021      2.51996190313640
  N   -1.51337833590048      0.56118568957017     -0.64849656196522
  H   -1.04997871644060      0.68539503222928     -1.54153791830735
  H   -2.50735851646147      0.41173245403856     -0.75673051367295
  C   1.06890213414894      0.94959488250351      0.75101289423607
  H   0.71428215204133      0.95850911184026      1.78306314859084
  H   2.16024709248201      1.01251502935438      0.77274003832403
  H   0.67164236259785      1.82537310054540      0.23747630522493
  N   1.02959654299654     -0.26028551219700     -1.37397000710006
  H   1.97813909879189      0.08345521520044     -1.45470709547329
  H   0.99400207994402     -1.18771199105999     -1.77901932108209
