16
Coordinates from ORCA-job run
  C   -0.89589071769931     -0.38490570016420      0.19749359780232
  C   0.60151562497011     -0.30342424446418     -0.13014808912317
  F   -0.99357645929521     -1.22904178033444      1.32780490995001
  H   0.91549354073166     -1.35465736205326     -0.16288650363090
  C   -1.43025614708981      0.92319167659500      0.64168323337862
  N   -1.81959424304289      1.98084748329764      0.97021470611404
  N   -1.65224551768717     -0.84400621119699     -0.89499089097084
  H   -1.16469974853365     -1.54723834313768     -1.43130119159805
  H   -2.57730156540785     -1.14490627780421     -0.61958902652267
  C   1.37377257529841      0.40077454888750      0.98217149764137
  H   2.44689986453934      0.30463449296294      0.79862761374384
  H   1.12782129331822      1.46534110900454      1.00911794367388
  H   1.15559732381351     -0.03459254351356      1.95930652881480
  N   0.78027004108274      0.24623133910313     -1.46849022991923
  H   1.77111038815032      0.35316869899568     -1.65339680827627
  H   0.36108374685158      1.16858311382210     -1.52661729107778
