16
Coordinates from ORCA-job run
  C   -0.92025183329601     -0.06291452168283     -0.14896706931495
  C   0.58790333693673     -0.10089044003211      0.13737532405105
  F   -1.15244446182800      0.50224334918834     -1.38372798602937
  H   0.68935681501089     -0.35564842098791      1.20642318250316
  C   -1.44542625615185     -1.45448914977364     -0.21253605887868
  N   -1.85360407769782     -2.55468103252875     -0.15598681001354
  N   -1.59839561734002      0.75520525142227      0.81627158849317
  H   -2.59360297147047      0.76648901707084      0.62456391870283
  H   -1.45284456116973      0.39865631052769      1.75269378819728
  C   1.19489190589686      1.27091235757507     -0.11210180911049
  H   1.18197353409795      1.48058814538527     -1.18244595145867
  H   2.23011288314851      1.28817122617139      0.23837326772013
  H   0.63460374702097      2.04717779391406      0.40683075423596
  N   1.19934608848716     -1.08313145186199     -0.74548902228567
  H   2.18171804020424     -0.87800806286373     -0.87089811872708
  H   1.11766342815059     -2.02068037152397     -0.37237899808513
