16
Coordinates from ORCA-job run
  C   -0.95400676424209     -0.20611187053217     -0.06957883642557
  C   0.56247689420363     -0.17045022354233      0.16037127946827
  F   -1.12304596976391     -0.06041180592937     -1.45971528099355
  H   0.71425136237075     -0.36535200345637      1.22821336152158
  C   -1.49669628185001     -1.53257093302794      0.28278230391176
  N   -1.97603804702690     -2.54878568464191      0.62050778466673
  N   -1.70844941106869      0.79136949799857      0.59780854125576
  H   -1.18172302752698      1.61542079606557      0.83766069929629
  H   -2.26878187071653      0.45900244740035      1.36456894577199
  C   1.15100136543285      1.19677353518709     -0.19978555197196
  H   2.23839023246074      1.15290648370706     -0.10691021976817
  H   0.90305393801546      1.45449987113967     -1.23119880137932
  H   0.81002811089266      2.00510617161947      0.45379481606988
  N   1.13612058035406     -1.28543837977861     -0.57819685502210
  H   2.10894183538262     -1.40986604726521     -0.32922057716439
  H   1.08347705308236     -1.09709185494387     -1.57210160923720
