16
Coordinates from ORCA-job run
  C   -0.92085180900802     -0.45725958528699      0.28702482169114
  C   0.55878473460785     -0.24363901601367     -0.07755342983044
  F   -0.96820436053293     -1.11178908741990      1.50463981503903
  H   0.95929888300750     -1.25611833642014     -0.21169816023900
  C   -1.56595303464486      0.86801421095976      0.44345270172461
  N   -2.00679135240479      1.95179753850354      0.53733736969035
  N   -1.68030853649597     -1.23921346365602     -0.64788760980620
  H   -1.31323762895173     -2.18563026689423     -0.62930267280038
  H   -1.51177698451064     -0.85409637246884     -1.57192427688138
  C   1.33702363326255      0.47596834783746      1.01682210851420
  H   2.38898736588395      0.55666243717774      0.73256779641979
  H   1.27510780019015     -0.05609229892477      1.96736165915196
  H   0.94683731366922      1.48753196499315      1.16255990111856
  N   0.56806073429192      0.41481465586646     -1.38279694078886
  H   0.49684643127508      1.42003390715803     -1.26322368573105
  H   1.43717681036071      0.22901536458841     -1.86637939727233
