16
Coordinates from ORCA-job run
  C   -0.87308869183529     -0.51034426109121      0.04188556452732
  C   0.64644480567335     -0.30057688202618      0.03330838581992
  F   -1.08355503020727     -1.78510096202124     -0.55380460302428
  H   1.07062096925653     -1.16831138444921      0.55844712112217
  C   -1.39468807997335     -0.63178471805203      1.41623417663597
  N   -1.78486959754811     -0.73072366780064      2.51869038520117
  N   -1.52666962538147      0.52265314059058     -0.64859205267986
  H   -1.06739845234059      0.65587255467206     -1.54264767666907
  H   -2.51645989162970      0.34700460657204     -0.75680170762907
  C   1.04424830132056      0.97809640951398      0.74934786914957
  H   2.13378133439563      1.06544035045890      0.77804845615192
  H   0.63068333638341      1.84250238677959      0.22943598962395
  H   0.68258571760369      0.98364723531513      1.77903246910258
  N   1.03662088900290     -0.23625473579293     -1.37311961529407
  H   1.02668739677393     -1.16485623215161     -1.77684155306079
  H   1.97505661850578      0.13373615948271     -1.45462320897747
