16
Coordinates from ORCA-job run
  C   -0.85395025828671     -0.61575729169335     -0.07049671738804
  C   0.65211135873405     -0.32282704158990      0.02778027972066
  F   -0.93580825569162     -1.93056470156457     -0.60082593035991
  H   1.09660027265685     -1.19695149969110      0.52450761709044
  C   -1.46735393446434     -0.69613825300722      1.26808679473703
  N   -1.93764582159630     -0.74624139733614      2.34260658775273
  N   -1.52638122824834      0.29231059178200     -0.88934670668956
  H   -2.36413802166975      0.72575595854386     -0.54817187054997
  H   -0.92290483627468      0.84456750190202     -1.47755673899566
  C   0.94161613403239      0.92801089342922      0.83914549185023
  H   2.01967198502551      1.10565424532981      0.87685018776325
  H   0.46853833988117      1.79792598424843      0.38026043995466
  H   0.58536139161648      0.82916669104743      1.86591415809097
  N   1.11627328055285     -0.13750626970663     -1.34410915259714
  H   1.03667673460015     -1.01159657776673     -1.85128974139388
  H   2.09133285913228      0.13519116607285     -1.34235469898580
