16
Coordinates from ORCA-job run
  C   -0.89610734289175     -0.28984889711911     -0.08886066212541
  C   0.58220014523748     -0.16661962898392      0.28462157559665
  F   -0.96271232039262     -0.18137225561514     -1.50188393110620
  H   0.64205294681538     -0.39337723684029      1.35371348502034
  C   -1.40546928066357     -1.63465789154018      0.24099959147889
  N   -1.85765526707078     -2.68017623124361      0.52139557854069
  N   -1.70264097306531      0.67986432987449      0.55175956010186
  H   -2.68354170619546      0.52985218667272      0.35153526848625
  H   -1.44108170131620      1.61250501019201      0.25986317731726
  C   1.10679655659560      1.24865387643142      0.03696253631179
  H   0.65963649324510      1.98430531257914      0.71045332546511
  H   0.92476666730530      1.54880778218973     -0.99805022158945
  H   2.18507853362065      1.26628265405890      0.20930358246405
  N   1.28575023749980     -1.21949654760107     -0.43238062364763
  H   2.22974538722152     -1.31244881326719     -0.08032753120095
  H   1.33418162405488     -0.99227364978791     -1.41810471111328
