16
Coordinates from ORCA-job run
  C   -0.88315195186613     -0.20042935067717     -0.21950596796649
  C   0.57125494900161     -0.13804356504105      0.25141412186963
  F   -0.90152525398735      0.01310260667014     -1.59302323580942
  H   0.56618360518925     -0.37860198103770      1.32210513082648
  C   -1.43228859628202     -1.56441875146712     -0.00508161067056
  N   -1.94346455933386     -2.58900261035341      0.25587731478483
  N   -1.67861568204511      0.83227880093403      0.37385711649404
  H   -1.60832256447633      0.79689513140055      1.38362698337750
  H   -2.65176626932322      0.71968715364538      0.11416624548571
  C   1.15744890440093      1.25554635793837      0.03681441791541
  H   0.62082908258509      2.02160764531844      0.59752278968848
  H   1.11071807043645      1.51846227374821     -1.02201320985392
  H   2.20481191315438      1.25862373937401      0.34894531115357
  N   1.27431218694528     -1.21738552828541     -0.42783348509964
  H   1.40527494685859     -0.97322628714840     -1.40260482821094
  H   2.18830121874245     -1.35309563501888     -0.01526709398470
