16
Coordinates from ORCA-job run
  C   -0.83765489466475     -0.59967948837958     -0.08765280756484
  C   0.68063206406408     -0.44435728630922      0.03876091489422
  F   -1.13620622689010     -1.80329188866482     -0.68160850129387
  H   1.01714579555161     -1.29196120491939      0.64718204014017
  C   -1.46207911036804     -0.63437605190403      1.26362262245716
  N   -1.95709348357101     -0.61995988517522      2.32881408636065
  N   -1.38793706805143      0.42519282270069     -0.94253532510691
  H   -1.41890695305720      1.31542856549177     -0.46020901801318
  H   -2.33676790403574      0.16797411223985     -1.19140677825305
  C   1.03923967989558      0.86164830549129      0.75295577201802
  H   0.56446564260848      0.95430389632479      1.73379881953252
  H   0.76541269444968      1.72365158228865      0.13829980973082
  H   2.12018741733039      0.90426614440897      0.90503253179776
  N   1.24666765142565     -0.59706498275223     -1.29108142166276
  H   2.25042116622372     -0.47062560873659     -1.25086158961735
  H   0.85347352908908      0.10885096789505     -1.90211115541931
