16
Coordinates from ORCA-job run
  C   -0.82208758063860     -0.17478626179678     -0.24880388719052
  C   0.61399595975681     -0.05764375158088      0.29885310673622
  F   -0.78173956574798      0.01730947725966     -1.62495776144621
  H   0.55660144447777     -0.23679448784872      1.38027669074162
  C   -1.30912320094449     -1.56674200097300     -0.05211841057781
  N   -1.69734127886974     -2.64943696044271      0.18806900440586
  N   -1.68812223665683      0.81853943554852      0.29939064069035
  H   -1.59826686686251      0.86310189927047      1.30643814591849
  H   -2.65555768632001      0.64076090483082      0.05829702988693
  C   1.16952861470646      1.33637865154421      0.03932377019575
  H   2.17824089424703      1.38901135245080      0.44950639036293
  H   1.22075643887513      1.52364787991358     -1.03528573399457
  H   0.54952187341019      2.11317763737023      0.48528063473674
  N   1.51540081429480     -1.04979684117889     -0.25913142845466
  H   1.22883123297146     -1.99063992461483     -0.01555083493251
  H   1.52236114330057     -0.97308700975245     -1.26958735707863
