16
Coordinates from ORCA-job run
  C   -0.75061936246802     -0.59162162987838     -0.09262552818722
  C   0.75557655921103     -0.32872224004200      0.09178917205317
  F   -0.89815717924719     -1.79859602845801     -0.75916917221895
  H   1.12429989734861     -1.14393195714375      0.72454627956103
  C   -1.42401220930922     -0.75515171184785      1.22075946728798
  N   -1.94834799321978     -0.81616555393582      2.27059051091644
  N   -1.35239424711391      0.40830097649404     -0.93237694760878
  H   -2.30287731373982      0.13400657753239     -1.15554405381237
  H   -1.38475489613396      1.30145543045594     -0.45575419120438
  C   1.00901419508173      1.00210062324726      0.78467379255476
  H   0.74524301437368      1.83586669379625      0.12767085816157
  H   2.07344794675821      1.08803648145945      1.00262927009976
  H   0.45202381129175      1.09583830917012      1.72010159544899
  N   1.47624326625757     -0.38213088695849     -1.16586961779180
  H   1.03830101616034      0.26093469278875     -1.81716188177373
  H   1.38801349474898     -1.30921977667988     -1.56525955348650
