16
Coordinates from ORCA-job run
  C   -0.90818352521986     -0.24389120506409     -0.13770237505807
  C   0.57506205646356     -0.07757100182066      0.23636192363048
  F   -1.06617515583500      0.08341841289737     -1.49002563389646
  H   0.61546575561810     -0.21851829050044      1.32635765753698
  C   -1.29348592664955     -1.66515793322304     -0.00401515069414
  N   -1.56628387105801     -2.79885694424217      0.12770096502332
  N   -1.74916517156988      0.53183894239394      0.70263321857118
  H   -2.72431184451607      0.37908071180507      0.47692152024301
  H   -1.53972572261278      1.51647046855486      0.60161176028378
  C   1.06998027662859      1.31873225265525     -0.11436910723878
  H   1.00165791590505      1.47432534549886     -1.19118904070900
  H   2.11458531164129      1.42236864715557      0.18997450500370
  H   0.51231342812037      2.10218337087611      0.40195059639347
  N   1.34846695184097     -1.05871036072567     -0.51256412723750
  H   2.32417971631672     -0.79200867930055     -0.53141607453155
  H   1.28661980492649     -1.97370373696042     -0.08223063732044
