16
Coordinates from ORCA-job run
  C   -0.89478587192980     -0.29660914825007      0.10421696577470
  C   0.61654257721592     -0.23189261225470     -0.12098046956249
  F   -1.13029694303668     -1.22065304155965      1.14084655239109
  H   0.89723216490292     -1.25167756075968     -0.44356632013377
  C   -1.42124605531928      0.99938616886442      0.57165629208844
  N   -1.83920520358466      2.00880265200207      0.99962076896461
  N   -1.55545674964075     -0.67848597216052     -1.09332263133538
  H   -2.56205366539905     -0.64958418812336     -0.98726246624387
  H   -1.27365399028576     -1.61759699424115     -1.35117047394587
  C   1.36757284391889      0.10216761125670      1.15645197782086
  H   1.10270395590938      1.10652549390324      1.49356190322984
  H   2.44436819749589      0.07884883289588      0.96882787596588
  H   1.14374273565122     -0.61645706049058      1.94435635951251
  N   0.85255153667587      0.79714610348433     -1.11751646221436
  H   1.84521921912343      0.91791310420679     -1.27207006103931
  H   0.40676524830246      0.55416661122632     -1.99264981127292
