16
Coordinates from ORCA-job run
  C   -0.81201880596335     -0.52313556858112      0.03350527323688
  C   0.71687787657657     -0.33269815037322      0.08908858512864
  F   -1.02108444445644     -1.81254200389496     -0.51774064359177
  H   1.09063515855878     -1.19699950508148      0.64896252527390
  C   -1.39557138962202     -0.56423617409376      1.38606825899840
  N   -1.83419442982048     -0.60474327315981      2.47425538633817
  N   -1.44905727369144      0.48085596415572     -0.72899981365068
  H   -2.45121893310885      0.34416627940111     -0.76372163934295
  H   -1.07688573771656      0.48756816330358     -1.66988604166058
  C   1.09996019466450      0.94731751044063      0.81106297102439
  H   0.72333958267899      0.95827485288395      1.83507306440886
  H   2.18749382849531      1.02724656915508      0.83769965196059
  H   0.69091076619000      1.81624003992992      0.29097737879934
  N   1.33458260339314     -0.36726951898580     -1.22386030784466
  H   1.00746368654595     -1.15409030947166     -1.76948411278486
  H   1.18876731727590      0.49504512437180     -1.73300053629364
