16
Coordinates from ORCA-job run
  C   -0.86046677943599     -0.61666211930716     -0.00007999684962
  C   0.64976198390710     -0.32968655405652      0.00918977148562
  F   -0.97473649850032     -1.94776533060179     -0.47188440128426
  H   1.11732278459980     -1.17910981398230      0.52718924111458
  C   -1.40524164036148     -0.63210158210142      1.36998015898403
  N   -1.82358928248843     -0.61918360247805      2.46672199445902
  N   -1.57983019117455      0.25701235343370     -0.82558688854910
  H   -2.34133981896810      0.76735384143687     -0.41592966143234
  H   -0.99237467910177      0.76990827128584     -1.46560138148606
  C   0.98294235367374      0.95957041451137      0.73968934030787
  H   0.49232606234749      1.80780308871368      0.25898825383472
  H   2.06214974992470      1.13234344399423      0.71629124978007
  H   0.67625735641953      0.91632153553103      1.78617135230080
  N   1.04427180602254     -0.21695394304081     -1.39245324934776
  H   2.02036782626801      0.04529771519479     -1.45346598576332
  H   0.93317896686766     -1.11514771853342     -1.84921979755426
