16
Coordinates from ORCA-job run
  C   -0.83451514389882     -0.26048527662709     -0.13950011304775
  C   0.62935308213284     -0.10028389899269      0.31676427240449
  F   -0.84763019794156     -0.06830254829177     -1.54448134993953
  H   0.64571535940215     -0.35574718272749      1.38090818533628
  C   -1.27201305173445     -1.65482474916193      0.07432689111231
  N   -1.58605467812691     -2.76821447715628      0.27251142811845
  N   -1.72030880648511      0.61318910611372      0.52782717236118
  H   -1.46885097846871      1.57821891928717      0.36076540168804
  H   -2.67998567063095      0.45982290016577      0.24433311221305
  C   1.10417495828215      1.33690441804241      0.13522261540041
  H   2.16823897708430      1.37424750377030      0.36719731568418
  H   0.58823440251420      2.03236446063317      0.80030953567593
  H   0.96663774874287      1.66152355369250     -0.89901953038272
  N   1.53782618299934     -0.99953483962302     -0.37403316527724
  H   1.43727663344963     -0.88399510823532     -1.37555609011163
  H   1.33290118267902     -1.96588278088942     -0.14857568123546
