16
Coordinates from ORCA-job run
  C   -0.85860375504248     -0.19537408474571     -0.09343039296378
  C   0.64887298021059     -0.18061258619800      0.23072063484164
  F   -0.99101411070370      0.23323476478604     -1.43892838403385
  H   0.74760459371592     -0.61369145647885      1.23105913506666
  C   -1.35894827714367     -1.58450840139174     -0.06952389517020
  N   -1.71546928816927     -2.70227682645757     -0.03780926773186
  N   -1.62254945176504      0.59113418852343      0.79591376937269
  H   -1.33035110613645      1.55859517342440      0.76447825184330
  H   -2.61240143647011      0.52992727716779      0.59278325757521
  C   1.19105043436650      1.24402911744104      0.24055319420616
  H   2.27260608855036      1.19434778008649      0.36390732578166
  H   0.78365164331795      1.83843008328685      1.06083259332872
  H   0.97617332717205      1.74546987428010     -0.70620411014591
  N   1.43212418606832     -0.98883091373497     -0.68765367358276
  H   1.19054753433640     -1.96937358549949     -0.60579731083565
  H   1.24770663769263     -0.69950040448983     -1.64090112755202
