16
Coordinates from ORCA-job run
  C   -0.90691098306612     -0.26871889736999     -0.05317684163636
  C   0.59037953607781     -0.18638295475612      0.25015530885855
  F   -1.04008949750113     -0.12220181482516     -1.45762175388928
  H   0.69721453396664     -0.44458006191973      1.30837835918949
  C   -1.42812614889263     -1.61089815237335      0.26917177433557
  N   -1.86967651127203     -2.66091887295025      0.54975637866763
  N   -1.65916930293318      0.70092882670762      0.65067878933852
  H   -2.65202600838051      0.57488797266509      0.49896446244143
  H   -1.39386367202213      1.63515892447390      0.36748249631980
  C   1.13254646550363      1.22452655689374      0.01584936116291
  H   2.21784216930043      1.21618073671547      0.13734609726595
  H   0.90861641476365      1.55685780627915     -1.00098105550995
  H   0.73287853884972      1.94974073843990      0.72930435924030
  N   1.23566352419248     -1.23224948488816     -0.52916437068848
  H   1.23982530212416     -0.97848218742274     -1.50957888320932
  H   2.19389563928921     -1.35284913566942     -0.22756448188675
