16
Coordinates from ORCA-job run
  C   -0.92800873866765     -0.28378059175698     -0.13681506230560
  C   0.55566140903702     -0.11596880344176      0.21805341748305
  F   -0.98064841514993     -0.25078509049144     -1.54256468355969
  H   0.62324357768067     -0.22962827148091      1.30605643017508
  C   -1.40088744042181     -1.62055928230695      0.27451931235755
  N   -1.82208166752643     -2.64329871435486      0.66575449273647
  N   -1.81190986185316      0.69644108533018      0.38177107395115
  H   -1.36956048477220      1.57586817887853      0.59318497832693
  H   -2.39955997205118      0.37721065608290      1.13421397892564
  C   1.07669453767448      1.26591937409878     -0.18597381496790
  H   2.15478852688504      1.30357479683216     -0.01512761345897
  H   0.89068017359238      1.44553301286613     -1.24661355559126
  H   0.63634461535462      2.08414603325802      0.39122952260279
  N   1.26912985408624     -1.23096694101995     -0.38659167914774
  H   2.22628054581178     -1.25715968114507     -0.05866045879061
  H   1.28083334032016     -1.12054576134878     -1.39343633873689
