16
Coordinates from ORCA-job run
  C   -0.79282503941356     -0.53945863629032     -0.04399827885902
  C   0.73450876109301     -0.37804557200429      0.06892105720016
  F   -1.05219035113049     -1.74973692954020     -0.66932047365381
  H   1.07341784355351     -1.20136692380264      0.70788088384893
  C   -1.41755479031871     -0.62266509478588      1.30048514943436
  N   -1.89705913837773     -0.62699105055819      2.37328623752732
  N   -1.36120121060041      0.47848951332264     -0.88554585570723
  H   -2.33708420805254      0.26515817549660     -1.06048171367760
  H   -1.31137852379395      1.38362672110850     -0.43373839777367
  C   1.10944694256787      0.94844281026614      0.71314925402176
  H   2.18587368006767      0.96564229987620      0.88298336604053
  H   0.60221673872397      1.10379623874597      1.66848190017530
  H   0.87383868673679      1.78211747812609      0.04535620706919
  N   1.39388585662254     -0.51357798105763     -1.21575602384599
  H   0.97592993826732      0.14430989693207     -1.86534253085479
  H   1.22117481405470     -1.44074094583512     -1.58636078094549
