16
Coordinates from ORCA-job run
  C   -0.88727699933511     -0.45212547794508      0.29600695208834
  C   0.59745948581952     -0.33020955980562     -0.07026186186766
  F   -0.98682252336378     -1.07548581602119      1.53183114768521
  H   0.92990878150328     -1.36994297816104     -0.15994998409773
  C   -1.46790405653630      0.90715067952480      0.46983606680698
  N   -1.90276014777729      1.99696888406894      0.53147726566540
  N   -1.55402482122605     -1.24403900389612     -0.67684617293554
  H   -2.55960745075921     -1.14522781459946     -0.62438999294670
  H   -1.21890586353776     -0.96490767461410     -1.59225885786988
  C   1.39754789781212      0.38043688023757      1.01318874878811
  H   2.45820946654091      0.37281055803548      0.75134705950783
  H   1.07889032799460      1.42257979539452      1.10969682889854
  H   1.27778202646260     -0.10780808274945      1.98134471525584
  N   0.66898957868938      0.27550974509375     -1.39885035165179
  H   1.55071147671125      0.04689771197740     -1.83969923885504
  H   0.61980282100182      1.28639215345963     -1.32247232447197
