16
Coordinates from ORCA-job run
  C   -0.90782543855505     -0.51181252822529      0.23274489846457
  C   0.54995878437723     -0.21965458532741     -0.16344231595084
  F   -0.89134603397334     -1.42176751718060      1.27363313770824
  H   0.93019452707030     -1.17584391851163     -0.54370330675077
  C   -1.52639197294676      0.74463232669590      0.71890480356461
  N   -1.94672694959685      1.78014432296741      1.07766398988573
  N   -1.73056969603167     -1.06564771693663     -0.80621865771309
  H   -1.37460402769553     -1.99204978713599     -1.02071235160639
  H   -1.60990374673773     -0.48407656729557     -1.62960192640900
  C   1.39993309298602      0.23907348359490      1.01484757258158
  H   2.43430591668792      0.38202823927572      0.69280685319666
  H   1.38755828593281     -0.49163215033012      1.82505097769053
  H   1.03163313777413      1.19236632136675      1.40517424659569
  N   0.49001016995262      0.71393074972459     -1.28727387747121
  H   1.32933536480105      0.64489247257650     -1.84824179343304
  H   0.43443858595485      1.66641685474150     -0.94163225035328
