16
Coordinates from ORCA-job run
  C   -0.95501108873899     -0.40119826418333      0.25830299023290
  C   0.54627803586862     -0.27557596767834     -0.05400718667598
  F   -1.08331300120771     -1.03383361164941      1.48131021692986
  H   0.89433039585925     -1.31058453603428     -0.15961261621688
  C   -1.52919337425383      0.96068609411661      0.37340562633444
  N   -1.90846074573555      2.06974533194469      0.43502311622529
  N   -1.72278928869844     -1.15345447196861     -0.69430729794909
  H   -1.41667068091136     -2.12011334775366     -0.64246045203513
  H   -1.49118076038563     -0.79866280349838     -1.61692168139250
  C   1.32385206860228      0.41675505099547      1.05839491702290
  H   0.98751540186545      1.45122761497898      1.17468438784277
  H   2.38842660728738      0.43238297475127      0.81242866556061
  H   1.19689715418302     -0.09519786819483      2.01353305371194
  N   0.63991344937748      0.36018314379222     -1.36749115159116
  H   1.52048747056260      0.12825571316121     -1.80882304890150
  H   0.60991835632546      1.36938494722039     -1.26445953909845
