16
Coordinates from ORCA-job run
  C   -0.92296976181275     -0.21567836619299     -0.07316175461080
  C   0.59019593565887     -0.10422579310887      0.18267670308233
  F   -1.18426068310281      0.19178885532139     -1.38689684944795
  H   0.71792309096992     -0.31027274603500      1.25545090604854
  C   -1.33415079632655     -1.63326592930497      0.01362322219842
  N   -1.62297924688995     -2.76804164579354      0.09036830680063
  N   -1.66973820828131      0.52957650580983      0.87696148344520
  H   -2.66397615784844      0.41472478652697      0.72335776541224
  H   -1.44042550242811      1.51300246334013      0.81460592847234
  C   1.09157987591409      1.29926117321472     -0.12787770717156
  H   0.93410573695372      1.52281609634851     -1.18316663231313
  H   2.16123629605798      1.36009878861962      0.08818821228985
  H   0.60339582201273      2.06169725198262      0.48185285847594
  N   1.27173070157328     -1.05628449857383     -0.68409764250006
  H   2.24950087723795     -0.81076948005169     -0.76914977191735
  H   1.22083202031137     -1.99342746210292     -0.30273502826465
