16
Coordinates from ORCA-job run
  C   -0.84164875693493     -0.21452295783565     -0.13931461630573
  C   0.64610557892207     -0.02793400064019      0.22050933182611
  F   -0.97793430717807     -0.06940919151901     -1.51562057703663
  H   0.73078126818560     -0.18142867960359      1.30404756100041
  C   -1.24354667934950     -1.61592997492677      0.15522580609669
  N   -1.54511443788762     -2.71176325849155      0.45299626299175
  N   -1.67097913109234      0.76348257364520      0.48463883058663
  H   -2.65291092140111      0.53154416566908      0.40159353383266
  H   -1.43348308418739      0.87676431389801      1.46146535527188
  C   1.10663240812515      1.37884954434400     -0.13757661365158
  H   0.52504037619220      2.14486324323490      0.37422794443330
  H   2.15908424699465      1.47662789713120      0.12935989106419
  H   1.00329171994052      1.54245074979005     -1.21227496527082
  N   1.51027158234201     -0.99919922003759     -0.42526029999151
  H   1.29966842827460     -1.94280773334518     -0.12241972051411
  H   1.38374170905419     -0.95358747131295     -1.42959772433329
