16
Coordinates from ORCA-job run
  C   -0.84243178525147     -0.59576661780049     -0.07957538016108
  C   0.67646910138308     -0.44984314331751      0.04524714703876
  F   -1.15054384233414     -1.80437153037751     -0.65808056723285
  H   1.00904983768469     -1.28923752832892      0.66694183298253
  C   -1.46867003180205     -0.60671504696909      1.27157370311676
  N   -1.96544771110517     -0.55773996610611      2.33494944997614
  N   -1.38403417536812      0.42306059970457     -0.94770301877454
  H   -2.33383546987950      0.16820186142588     -1.19566639825497
  H   -1.41237440012945      1.31795436716862     -0.47366667287473
  C   1.04420254102047      0.86517059363595      0.73876158106819
  H   0.56403930810446      0.97989236415781      1.71469035546957
  H   2.12443705984567      0.89907154220032      0.89751949659965
  H   0.78235942941142      1.71845477592695      0.10708535951520
  N   1.24220052415123     -0.62762995711882     -1.28164965919610
  H   2.24837203810149     -0.52296034382819     -1.23957661755936
  H   0.86620757616736      0.08045802962653     -1.90085061171316
