16
Coordinates from ORCA-job run
  C   -0.87054350724232     -0.60386256274148      0.00427035867029
  C   0.64407074918245     -0.33937881517348      0.01891597268983
  F   -1.00155879995666     -1.94038401378980     -0.44630827811269
  H   1.09438217439586     -1.18729333371828      0.55444033311211
  C   -1.42372604635099     -0.58772754635192      1.37062894319104
  N   -1.84553659212061     -0.55283556034043      2.46555861056768
  N   -1.57208518087149      0.26607883559428     -0.84125125264756
  H   -0.97126967506993      0.75712471111988     -1.48620660091066
  H   -2.32284123056675      0.79995911837543     -0.44163707140947
  C   0.99179050890817      0.95674405988105      0.73010142860720
  H   0.68272935249429      0.93303683171056      1.77649539962038
  H   0.51240749638329      1.80374715527910      0.23601590878535
  H   2.07306534560554      1.11596829348803      0.70621396475976
  N   1.04972513537040     -0.25645017149685     -1.38136476233027
  H   2.02830275968465     -0.00347944012598     -1.44056557275508
  H   0.93308751015408     -1.16124756171012     -1.82330738183787
