16
Coordinates from ORCA-job run
  C   -0.80540171946128     -0.59145887263607     -0.02485856882659
  C   0.71764412127698     -0.36040440116731      0.06537272519693
  F   -0.98962241159879     -1.87760219315529     -0.53290230602959
  H   1.07907427342315     -1.17121068875094      0.70756098278017
  C   -1.41069444536916     -0.61063228682438      1.32877481440550
  N   -1.87468026995699     -0.57859060811971      2.40778930089588
  N   -1.43297370473490      0.32260131909483     -0.91864007776703
  H   -2.43557916121150      0.35974557642950     -0.79451052443814
  H   -1.04508511011160      1.25176594432603     -0.84421937103605
  C   1.07540188139828      0.96933609613670      0.71046693348970
  H   0.61598324574811      1.08287375744238      1.69415276775234
  H   2.15880910247148      1.02247520188337      0.82000989822171
  H   0.77401849925438      1.81810224045874      0.08795696075420
  N   1.38056112858665     -0.49681944193505     -1.21805556766514
  H   1.11585789568303     -1.37822598203451     -1.64241750377170
  H   1.07668667460210      0.23804433885169     -1.84648046396216
