17

C	0.0	0.0	0.0
C	-0.369087	0.224912	-1.534081
Cl	1.792771	0.0	0.0
H	0.450057	-0.234557	-2.096773
N	-0.592177	0.863679	0.972189
H	-1.613007	0.665117	0.895612
H	-0.452239	1.823891	0.677036
C	-0.349021	-1.394503	0.336629
N	-0.526945	-2.535395	0.550409
C	-0.393891	1.717413	-1.834419
H	-1.275496	2.169754	-1.37489
H	0.509703	2.231357	-1.490227
H	-0.484318	1.84607	-2.913507
N	-1.6051	-0.368278	-1.983404
H	-1.513352	-1.379411	-1.957537
H	-2.362148	-0.151717	-1.2927
H	-3.259612	0.0	0.0
