14
Coordinates from ORCA-job run
  C   -0.19266145038380      0.57725160194936     -0.32875866956141
  C   0.98402974478780     -0.16422469483200      0.31143913872912
  F   0.26451389688572      1.52910082751319     -1.14047960357038
  H   1.62394991537778      0.62040177369198      0.73344342607738
  N   -1.09483462826752     -0.36157770345041     -1.10531315804086
  O   -1.29345226747103     -0.09721629940260     -2.27866391051642
  O   -1.52351088562956     -1.29413277474721     -0.43944380021281
  N   -1.05263083754442      1.25801488463361      0.72602167374071
  O   -0.43861667155392      1.67154658731287      1.70206362050291
  O   -2.23583945163066      1.40100809074686      0.45528313445726
  C   1.72024456045430     -0.87289242430401     -0.73981605677443
  N   2.30412022290993     -1.42804894107424     -1.59397241060397
  C   0.59309251408059     -1.06447367972651      1.39769773029900
  N   0.34059533798479     -1.77375724831090      2.29849888547388
