14
Coordinates from ORCA-job run
  C   -0.19704577061044      0.56693716688546     -0.34577914039261
  C   0.97801229919264     -0.12849655040164      0.34660657861778
  F   0.25927560213527      1.52412216763959     -1.15179937189899
  H   1.58307738374459      0.68233833030718      0.77031816617070
  N   -1.04074874811380     -0.40793789623401     -1.14353619461459
  O   -1.24160614229643     -0.13850820058912     -2.31536245380993
  O   -1.43069042264121     -1.36802118227342     -0.49339310623206
  N   -1.11500593558096      1.23109205105960      0.67032135994910
  O   -2.29855197224641      1.30537400941107      0.37391061257776
  O   -0.54260142086674      1.70299415751341      1.64497535749992
  C   1.76546967096675     -0.84113807455179     -0.66396568575665
  N   2.38697168707410     -1.40599073915370     -1.48460444523469
  C   0.57737636970569     -1.01479382252060      1.44075964170208
  N   0.31606739953695     -1.70797141709201      2.35154868142217
