14
Coordinates from ORCA-job run
  C   -0.35503786554765      0.20458478887375     -0.39281757773932
  C   0.78913925685421     -0.43652932374494      0.38955943280176
  F   -0.17005732410766      0.15766430030498     -1.69781970507505
  H   0.55257588891703     -0.35137278725071      1.45401039854134
  N   -1.67771439861920     -0.48104822942539     -0.04743161728448
  O   -2.46447039045411     -0.62067955166132     -0.96965489645844
  O   -1.81035523922549     -0.78980982159278      1.12995466409117
  N   -0.53467013038328      1.66167135857357      0.03731129249356
  O   -0.82664713326197      2.44851610638156     -0.84830586898124
  O   -0.39124797651683      1.87046448250358      1.23519890462398
  C   2.03066990234503      0.28665138461561      0.10186731949734
  N   3.01445453330582      0.88477333790339     -0.12801671069342
  C   0.89128584814146     -1.85016183847740      0.01847953694657
  N   0.95107502855260     -2.98372420700391     -0.28133517276373
