14
Coordinates from ORCA-job run
  C   -0.08354998660139      0.49004546055885     -0.27385028043407
  C   0.47406072831845     -0.76129395264782      0.40077970921998
  F   0.85958010559765      1.25882111123472     -0.78283165310027
  H   -0.37229850630724     -1.33467439869306      0.78955762259118
  N   -1.06449860427675      0.09856881373365     -1.38026830827732
  O   -1.04158637679832      0.79091410449417     -2.38474312127966
  O   -1.78645983725522     -0.85549308454212     -1.12012887446679
  N   -0.90981300235248      1.30252904144477      0.72458126545906
  O   -0.82299466669328      2.51575304000421      0.62854126325722
  O   -1.59183561907928      0.63883107295436      1.49504062704569
  C   1.34818578718929     -0.36092328487657      1.50649636375670
  N   2.03917502548063     -0.02415337068554      2.39393577044641
  C   1.19537361778419     -1.56080208469632     -0.59291571370461
  N   1.75466133499375     -2.19912246828330     -1.40419467051351
