14
Coordinates from ORCA-job run
  C   -0.31234330169525      0.33129296205508     -0.52926127288475
  C   0.88795680416782     -0.52379843061118     -0.11712450004526
  F   -0.08833336865227      0.88194501850085     -1.71922192943931
  H   1.07201681895894     -1.17357822814043     -0.98355789972209
  N   -1.53731742733511     -0.57328789158088     -0.63999251114202
  O   -1.46299865355082     -1.38198834898123     -1.55435798766202
  O   -2.42872638170402     -0.42365023590716      0.18219242317493
  N   -0.64227371507516      1.42502791991813      0.46543232376888
  O   -1.26686918010871      2.37071964708018      0.01122530320548
  O   -0.26861742584385      1.23255442662865      1.61500263510227
  C   0.59932749048532     -1.37492744967386      1.03808780037023
  N   0.37525358400582     -2.11901518311221      1.91813847866200
  C   2.06109908450302      0.32709357566587      0.09179801745035
  N   3.01382567184430      1.00061221815821      0.22163911916127
