14
Coordinates from ORCA-job run
  C   -0.16266441523873      0.44751772440692     -0.30937702136957
  C   0.59061233998631     -0.66822556927397      0.41164355060440
  F   0.63465133658932      1.23439136220876     -1.00555958433676
  H   -0.14428171979554     -1.26569560426164      0.95867734991330
  N   -1.22009783004593     -0.14747482492916     -1.24036876363151
  O   -1.80646734091056     -1.12830124561221     -0.80074436368173
  O   -1.38437772755016      0.43162396087099     -2.30182431388470
  N   -0.94532221503815      1.29046901339874      0.69922229173059
  O   -1.46943027188416      0.65810351146772      1.60728937617951
  O   -0.98593729788335      2.48947122562248      0.47719275854147
  C   1.54142306673454     -0.07323462881096      1.35453784825946
  N   2.28908541456938      0.41759046527242      2.11514268832910
  C   1.26887360806627     -1.50748468250456     -0.57940759696845
  N   1.79193305240078     -2.17975070785552     -1.38742421968509
