14
Coordinates from ORCA-job run
  C   -0.22592785715210      0.54378148835018     -0.35793720760741
  C   0.98817805379630     -0.08775787025257      0.32799298330531
  F   0.17933585661592      1.43165961001495     -1.26348625847408
  H   1.56016915387445      0.74922933385938      0.74718190287248
  N   -1.09185254358161     -0.50613283411980     -1.02844308843128
  O   -1.63925351194831     -1.26786183422405     -0.24252537360943
  O   -1.13397074209590     -0.49261474103897     -2.24691145314648
  N   -1.11703852271431      1.27966972624397      0.62835108940912
  O   -0.60347844241888      1.58719802788877      1.69732378372007
  O   -2.23171216847928      1.55932228251382      0.21183360369547
  C   1.79933267550329     -0.76330425422872     -0.69067451695751
  N   2.44727532266295     -1.29788039875211     -1.51122720975066
  C   0.64161643443893     -1.00026414392245      1.41924975124203
  N   0.42932629149853     -1.73604439233236      2.30927199373239
