14
Coordinates from ORCA-job run
  C   -0.23460053076197      0.43292103628953     -0.49364135668597
  C   0.82902754968076     -0.60987353277440     -0.14283687216714
  F   0.13104679380916      1.10385297191463     -1.58245486727723
  H   0.99558896984020     -1.15751999773159     -1.08046695165182
  N   -1.54479175051067     -0.29188782475077     -0.79243951539501
  O   -2.47010072111710     -0.13701797984146     -0.00964815188161
  O   -1.49902396139204     -0.98147176973818     -1.80141239840359
  N   -0.50369223204828      1.41820037973318      0.62496794310132
  O   -0.23807575312049      1.02938948252747      1.75478037988051
  O   -0.97904293900577      2.48688838538832      0.27477533252742
  C   0.36622148794333     -1.56416472500317      0.86593078166207
  N   -0.00654939333935     -2.38235818014667      1.62088098119331
  C   2.07437326233457      0.05613443090628      0.24331923284303
  N   3.07861921768763      0.59790732322676      0.51924546225473
