12

C	0.0	0.0	0.0
C	-0.524222	-0.015219	-1.411458
Br	1.947639	0.0	0.0
H	-1.685268	-0.046463	-1.110183
H	-0.351835	-0.898496	0.502657
H	-0.234621	0.852594	-1.995721
C	-0.426903	1.186547	0.743127
N	-0.564541	2.149904	1.403459
N	-0.120228	-1.205719	-2.117394
O	-0.097186	-2.272077	-1.481292
O	0.100466	-1.128248	-3.336879
H	-2.639847	0.0	0.0
