18

C	-0.330673	0.023558	-1.487892
C	0.0	0.0	0.0
F	-0.033405	-1.246699	-2.039616
H	1.099288	0.0	0.0
C	-1.785901	0.187331	-1.737118
N	-2.943044	0.305991	-1.889561
N	0.399794	1.050413	-2.131263
H	1.376183	0.977425	-1.84682
H	0.327044	0.962902	-3.137468
C	-0.523997	-1.251585	0.686583
H	-0.18751	-1.256682	1.726566
H	-0.142054	-2.151674	0.205961
H	-1.620335	-1.283752	0.681464
C	-0.489966	1.268461	0.689346
H	-0.12723	1.27792	1.72032
H	-0.110251	2.159492	0.189011
H	-1.584858	1.316764	0.709772
Cl	3.470747	0.0	0.0
