18

C	-0.313634	-0.096741	-1.493459
C	0.0	0.0	0.0
F	-1.635124	-0.541656	-1.700194
H	1.097156	0.0	0.0
C	-0.292545	1.235107	-2.16077
N	-0.262642	2.282282	-2.691896
N	0.572795	-1.035777	-2.096703
H	1.514225	-0.920426	-1.71848
H	0.589563	-0.946208	-3.102887
C	-0.478309	-1.268364	0.700899
H	-0.056931	-1.296544	1.708658
H	-0.144198	-2.157791	0.166798
H	-1.569456	-1.293896	0.77436
C	-0.55213	1.253518	0.65939
H	-1.637552	1.324042	0.527612
H	-0.340741	1.221839	1.73084
H	-0.091367	2.157949	0.259368
Cl	3.439842	0.0	0.0
