18

C	-0.314341	-0.1107	-1.492746
C	0.0	0.0	0.0
F	-1.628223	-0.578596	-1.693572
H	1.098759	0.0	0.0
C	-0.318234	1.216723	-2.167811
N	-0.312324	2.257322	-2.713205
N	0.587491	-1.037668	-2.093635
H	1.524061	-0.916157	-1.70729
H	0.616821	-0.935185	-3.099769
C	-0.4742	-1.263673	0.712702
H	-1.565097	-1.289637	0.79134
H	-0.047551	-1.284037	1.718934
H	-0.141098	-2.157034	0.183422
C	-0.552948	1.257167	0.650859
H	-1.63981	1.321561	0.525313
H	-0.333917	1.236937	1.721533
H	-0.098683	2.160108	0.238595
Cl	3.439463	0.0	0.0
