18

C	-0.504944	0.04434	-1.43704
C	0.0	0.0	0.0
F	-1.946354	0.064487	-1.383871
H	1.096623	0.0	0.0
C	-0.178927	1.314729	-2.123708
N	0.030132	2.31302	-2.704433
N	-0.050743	-1.025015	-2.230598
H	-0.516029	-1.047573	-3.127467
H	-0.133526	-1.910696	-1.754331
C	-0.452685	-1.289822	0.687627
H	-1.534723	-1.431732	0.615318
H	-0.178107	-1.237083	1.743535
H	0.059234	-2.169264	0.288273
C	-0.483874	1.220943	0.777487
H	-0.155756	2.149421	0.304619
H	-0.047999	1.198643	1.77858
H	-1.573858	1.23704	0.865807
Cl	3.489495	0.0	0.0
