18

C	-0.287538	0.03455	-1.50192
C	0.0	0.0	0.0
F	-0.112397	-1.272167	-2.028836
H	1.099515	0.0	0.0
C	-1.705042	0.352248	-1.809981
N	-2.835032	0.591189	-2.022636
N	0.571946	0.967316	-2.124158
H	0.535333	0.882815	-3.132046
H	1.525034	0.820637	-1.788451
C	-0.558079	-1.24097	0.674509
H	-0.14897	-2.147834	0.231005
H	-1.652098	-1.275704	0.604535
H	-0.285478	-1.228111	1.732906
C	-0.477931	1.282446	0.672384
H	-1.572145	1.338534	0.700562
H	-0.10571	1.308898	1.699607
H	-0.094808	2.161656	0.15294
Cl	3.462711	0.0	0.0
