18

C	-0.465981	-0.024883	-1.447527
C	0.0	0.0	0.0
F	0.021438	1.080536	-2.126322
H	1.096321	0.0	0.0
C	0.065127	-1.214247	-2.171023
N	0.344712	-2.188682	-2.764373
N	-1.905221	0.043	-1.553485
H	-2.324356	-0.65389	-0.951375
H	-2.190088	-0.145518	-2.50771
C	-0.445012	-1.248751	0.759301
H	0.051999	-1.260228	1.731665
H	-1.526966	-1.270337	0.942634
H	-0.153907	-2.166062	0.24077
C	-0.466729	1.277461	0.691329
H	-0.158685	2.154167	0.120657
H	0.006853	1.336708	1.674341
H	-1.552958	1.306514	0.816378
Cl	3.475131	0.0	0.0
