18

C	-0.470797	-0.024186	-1.448464
C	0.0	0.0	0.0
F	0.14951	1.032705	-2.139582
H	1.09586	0.0	0.0
C	-0.067336	-1.261563	-2.155639
N	0.178314	-2.243407	-2.749862
N	-1.893965	0.081453	-1.560161
H	-2.192075	0.939649	-1.112981
H	-2.157923	0.117128	-2.537988
C	-0.477365	-1.23485	0.756848
H	-1.569363	-1.295479	0.782208
H	-0.086236	-2.149847	0.305935
H	-0.098714	-1.192317	1.78123
C	-0.446965	1.287045	0.692023
H	0.105179	1.385732	1.629508
H	-0.211333	2.162569	0.083152
H	-1.517087	1.285867	0.935325
Cl	3.493686	0.0	0.0
