17

C	0.0	0.0	0.0
C	-0.535723	-0.126317	-1.441104
Cl	1.78815	0.0	0.0
H	-1.636485	-0.112865	-1.349775
N	-0.469426	1.262056	0.507675
H	-0.221049	1.324955	1.489164
H	-1.492367	1.244552	0.445987
C	-0.442037	-1.228213	0.791213
H	-1.534029	-1.268277	0.7816
H	-0.094079	-1.116097	1.821364
H	-0.020425	-2.148621	0.382592
C	-0.083346	-1.33717	-2.10935
N	0.233137	-2.326015	-2.65831
N	-0.153499	1.068301	-2.275145
O	-0.951808	1.997307	-2.293285
O	0.925925	1.027381	-2.863477
Br	-3.764957	0.0	0.0
