17

C	0.0	0.0	0.0
C	-0.261732	0.036744	-1.545821
Cl	1.792627	0.0	0.0
H	0.251921	0.84969	-1.940669
N	-0.326885	1.187867	0.707881
H	0.036928	2.016768	0.213174
H	-1.327978	1.259954	0.863872
C	-0.316896	-1.268461	0.784353
H	0.090749	-1.095773	1.797321
H	-1.389601	-1.489934	0.842506
H	0.226447	-2.112	0.357202
C	-1.648209	0.229207	-2.251449
N	-2.442385	0.137855	-3.189456
N	0.188707	-1.160983	-2.264399
O	-0.30853	-2.295974	-1.957442
O	1.138229	-1.010279	-3.0324
Br	-3.478136	0.0	0.0
