17

C	0.0	0.0	0.0
C	-0.233158	-0.067281	-1.56412
Cl	1.796416	0.0	0.0
H	0.231457	0.840515	-1.957492
N	-0.534038	1.194942	0.558419
H	-1.549359	1.062208	0.642616
H	-0.360886	1.995972	-0.038649
C	-0.49929	-1.198104	0.773862
H	-0.234687	-1.050053	1.822294
H	-1.586927	-1.232558	0.674843
H	-0.057286	-2.120793	0.407078
C	-1.549042	-0.183763	-2.202709
N	-2.332199	-0.329366	-3.069213
N	0.55992	-1.176554	-2.241823
O	1.365118	-0.829277	-3.099954
O	0.312823	-2.331502	-1.915792
Br	-3.792093	0.0	0.0
