13

C	0.0	0.0	0.0
C	-0.258525	0.192749	-1.553394
Cl	1.784313	0.0	0.0
H	0.44745	0.985959	-1.822391
C	-0.428492	1.164395	0.778879
N	-0.644762	2.120712	1.428606
C	-0.455461	-1.276805	0.54529
N	-0.50694	-2.354665	1.016504
C	-1.536312	0.645274	-2.126023
N	-2.176023	1.120372	-2.998674
C	0.183233	-1.01697	-2.254807
N	0.568935	-1.95821	-2.841841
Br	-3.149876	0.0	0.0
