14

C	-0.516494	0.008648	-1.458454
C	0.003579	-0.010208	-0.002659
Br	0.352295	-1.541468	-2.401115
H	1.098805	-0.019956	-0.004247
N	-1.935997	-0.042932	-1.493849
H	-2.272616	-0.883986	-1.037566
H	-2.281213	-0.014839	-2.445411
C	-0.059735	1.207123	-2.162992
N	0.2184	2.174335	-2.76987
C	-0.500516	-1.203725	0.674281
N	-0.95172	-2.154713	1.196821
C	-0.463241	1.18881	0.695559
N	-0.82849	2.154126	1.256469
Cl	3.133492	0.0534	0.011176
