14

C	-0.54439	-0.069391	-1.461346
C	0.00026	8.8e-05	5.5e-05
Br	0.194668	-1.684357	-2.283042
H	1.10431	-1.8e-05	-8.1e-05
N	-1.982295	-0.124628	-1.595159
H	-2.384105	0.725148	-1.20873
H	-2.335212	-0.923978	-1.078388
C	-0.057085	1.091354	-2.211384
N	0.254642	2.051811	-2.812425
C	-0.50118	-1.144082	0.756326
N	-0.948334	-2.059014	1.342897
C	-0.496965	1.236229	0.603271
N	-0.943677	2.233564	1.036572
Cl	3.128085	0.000703	0.001272
