14

C	-0.223339	0.194585	-1.486098
C	-0.015391	-0.047595	0.027028
Br	-2.158413	0.505925	-1.845455
H	1.07083	-0.145472	0.135976
N	0.514153	1.352248	-1.849098
H	0.51273	1.476335	-2.854785
H	1.48401	1.227068	-1.514438
C	0.0924	-1.036205	-2.232636
N	0.358172	-1.982477	-2.879469
C	-0.681812	-1.261928	0.491857
N	-1.201667	-2.242122	0.877327
C	-0.454579	1.108247	0.808689
N	-0.808649	1.999828	1.485735
Cl	3.158885	0.355185	-0.403439
