15
Coordinates from ORCA-job run
  C   -0.60783824527264     -0.28185381038173      0.26311366478072
  C   0.69699620580933      0.55548540852890      0.27550222179294
  Cl  -0.67672194203408     -1.20466689635623      1.83067523223283
  H   0.69020656055522      1.22650418836586      1.13707143002102
  N   -0.55466728595150     -1.25324175220534     -0.78129977401885
  H   -1.25408399296839     -1.97238689858130     -0.65580382920933
  H   -0.66527086794360     -0.80563552940587     -1.68410637686407
  N   -1.67882091135058      0.65399673983978      0.13528469730732
  H   -1.75758151943415      1.26128607423159      0.94340689511324
  H   -2.55749389238772      0.16632832361201      0.00638072569723
  C   0.81299680655123      1.30299715971363     -0.97017882096334
  N   0.90054361002462      1.90803973167629     -1.97263782483394
  N   1.92206229652217     -0.31179597439790      0.44411975560494
  O   2.37797745441688     -0.83733424895148     -0.56245684033809
  O   2.34969572346321     -0.40772251568820      1.58992884367736
