15
Coordinates from ORCA-job run
  C   -0.64032902417553     -0.25873584496761      0.28547053706409
  C   0.77549706203731      0.35051395885779      0.46363663956926
  Cl  -1.43582278768307      0.12998055416094      1.90724959486978
  H   1.19964222344053     -0.05620972508507      1.37829828515160
  N   -0.52914952767986     -1.68018545338968      0.16870292003225
  H   -0.77172899516591     -1.98717729258010     -0.76890880626310
  H   -1.01729090962878     -2.20017904558590      0.88496172890551
  N   -1.29413790938480      0.29975619093870     -0.83799366768611
  H   -2.25955635971219     -0.00357676087099     -0.87423977201173
  H   -1.25066379047897      1.31239509930318     -0.86750192332524
  C   0.76519146254585      1.80741043679328      0.47312650905083
  N   0.69573808631759      2.98057858688525      0.48700743559442
  N   1.69553994327697     -0.11851009820146     -0.63974147314568
  O   2.55494753340417     -0.92737521119773     -0.30011540237546
  O   1.51212299288668      0.35131460493940     -1.75895260543043
