15
Coordinates from ORCA-job run
  C   -0.69652787309013     -0.24053323167965      0.32009383133042
  C   0.76209837345791      0.30987721529903      0.42451187025380
  Cl  -1.42561210474064      0.26021991668223      1.94267925350776
  H   1.26414897830930     -0.18090678481087      1.25937209755040
  N   -0.83943902176028     -1.65601102937606      0.25529980740576
  H   -0.48856441634499     -2.11199120468617      1.08649936557288
  H   -0.37092934816097     -2.02014525445761     -0.56525863235754
  N   -1.30870801679387      0.31532029659599     -0.81374836381914
  H   -1.30075101073113      1.32675365771696     -0.83320301833428
  H   -2.24838366908197     -0.04374187104685     -0.92030502579352
  C   0.80791781825558      1.75807170065984      0.56006381871796
  N   0.81469908435352      2.92729151927685      0.67145907276342
  N   1.50689765959934     -0.10030509360751     -0.82545600181883
  O   1.64776433013819      0.72739260764267     -1.71510366935034
  O   1.87538921659012     -1.27229244420883     -0.84690440562874
