15

C	0.0	0.0	0.0
C	-0.419232	-0.416772	-1.41611
Cl	1.850228	0.0	0.0
H	-1.509111	-0.490787	-1.305329
H	0.01502	-1.409704	-1.587478
C	-0.360063	1.408107	0.251598
N	-0.536544	2.550915	0.454003
N	-0.542997	-0.807777	1.04175
H	-1.579343	-0.607182	0.863172
H	-0.372633	-1.775672	0.777673
C	-0.039063	0.544031	-2.532099
H	-0.37751	0.149385	-3.495025
H	1.040118	0.706836	-2.592764
H	-0.526704	1.509926	-2.38147
F	-2.758408	0.0	0.0
