15

C	0.0	0.0	0.0
C	-0.195823	-0.141269	-1.558881
Cl	1.805832	0.0	0.0
H	0.350553	-1.061996	-1.806045
H	0.376468	0.673042	-2.016641
C	-0.402865	1.346157	0.444052
N	-0.59926	2.456698	0.771549
N	-0.609516	-0.977698	0.822114
H	-0.444539	-1.882448	0.38708
H	-1.650199	-0.710665	0.658969
C	-1.568408	-0.206968	-2.211132
H	-1.398839	-0.293606	-3.294663
H	-2.150549	-1.049475	-1.850539
H	-2.170138	0.667932	-1.985733
F	-2.818652	0.0	0.0
