15

C	0.0	0.0	0.0
C	-0.488229	-0.184807	-1.436149
Cl	1.851169	0.0	0.0
H	-1.55287	-0.340932	-1.224174
H	-0.024572	-1.080754	-1.86357
C	-0.416919	1.335753	0.451137
N	-0.280858	2.468766	0.709014
N	-0.431465	-1.005068	0.962684
H	0.097272	-1.861625	0.890617
H	-1.44368	-1.055484	0.751794
C	-0.298484	1.037529	-2.305675
H	-0.606509	0.842887	-3.344993
H	-0.926267	1.84722	-1.937192
H	0.730693	1.396008	-2.327747
F	-2.692541	0.0	0.0
