15

C	0.0	0.0	0.0
C	-0.432126	-0.025697	-1.474896
Cl	1.802795	0.0	0.0
H	0.040753	-0.91109	-1.918737
H	-1.516338	-0.163984	-1.390401
C	-0.389368	1.271899	0.639264
N	-0.556702	2.319537	1.142717
N	-0.530273	-1.07324	0.788923
H	-0.319351	-1.933776	0.288205
H	-1.56525	-0.862197	0.660733
C	-0.099786	1.22635	-2.274334
H	0.967985	1.460803	-2.259227
H	-0.647517	2.082066	-1.872972
H	-0.403793	1.098513	-3.317876
F	-2.747403	0.0	0.0
