13

C	-0.637166	-0.006334	-1.364277
C	0.0	0.0	0.0
Br	-0.015555	1.456415	-2.483933
H	1.091693	0.0	0.0
H	-1.722407	0.070957	-1.329426
H	-0.323375	0.927232	0.486721
N	-0.391912	-1.295697	-2.10619
O	0.61425	-1.937086	-1.839775
O	-1.243078	-1.603598	-2.941771
N	-0.524057	-1.183716	0.705778
H	-0.868349	-0.91166	1.617212
H	0.271566	-1.795713	0.859094
H	2.960469	0.0	0.0
