13

C	-0.639689	0.012545	-1.364535
C	0.0	0.0	0.0
Br	0.033038	1.434217	-2.5077
H	1.095694	0.0	0.0
H	-1.713942	0.161048	-1.306642
H	-0.347697	-0.920862	0.486733
N	-0.450043	-1.292019	-2.07922
O	0.688807	-1.711571	-2.23024
O	-1.482616	-1.864204	-2.441393
N	-0.532651	1.160591	0.744568
H	-0.408068	0.951571	1.729112
H	0.117829	1.92008	0.561472
H	2.960321	0.0	0.0
