16

C	-0.391237	-0.04121	-1.471772
C	0.0	0.0	0.0
F	-0.204854	1.266531	-1.981735
H	1.094613	0.0	0.0
H	-0.316253	-0.953331	0.43732
N	0.449712	-0.878282	-2.287978
H	0.333844	-1.831728	-1.964844
H	1.417251	-0.619854	-2.10075
N	-1.745649	-0.454812	-1.675282
H	-2.364383	0.163227	-1.165288
H	-1.942544	-0.368819	-2.666065
C	-0.555478	1.17441	0.793071
H	-0.224676	2.1157	0.354459
H	-1.651384	1.176044	0.8313
H	-0.18925	1.135121	1.821757
Br	3.716024	0.0	0.0
