16

C	-0.395522	-0.062818	-1.466791
C	0.0	0.0	0.0
F	-1.717496	-0.614875	-1.525735
H	1.093826	0.0	0.0
H	-0.318632	-0.949703	0.444124
N	-0.368269	1.207555	-2.097437
H	-0.594262	1.077194	-3.075393
H	-1.036708	1.832851	-1.66897
N	0.418135	-0.953522	-2.258142
H	0.351701	-1.878483	-1.847371
H	1.384899	-0.656547	-2.13249
C	-0.56964	1.172956	0.783017
H	-0.144736	2.114036	0.427209
H	-1.661574	1.218188	0.704997
H	-0.310683	1.082642	1.840517
Br	3.715258	0.0	0.0
