16

C	-0.414417	-0.041465	-1.463074
C	0.0	0.0	0.0
F	-0.133561	1.246496	-1.979911
H	1.095736	0.0	0.0
H	-0.346334	0.947267	0.424371
N	0.31249	-1.051423	-2.138799
H	1.302971	-0.952744	-1.938061
H	0.148477	-0.960676	-3.132926
N	-1.819928	-0.226239	-1.762728
H	-2.097962	-1.136374	-1.418737
H	-2.348503	0.477919	-1.26346
C	-0.507195	-1.191057	0.802024
H	-1.597831	-1.189278	0.905509
H	-0.074856	-1.177512	1.804954
H	-0.204505	-2.123718	0.321936
Br	3.74501	0.0	0.0
