16

C	-0.378919	-0.06515	-1.47428
C	0.0	0.0	0.0
F	-0.119794	1.224648	-1.991376
H	1.094359	0.0	0.0
H	-0.358468	0.944351	0.42226
N	0.425651	-0.951345	-2.276427
H	0.263939	-1.898324	-1.955571
H	1.402941	-0.731886	-2.090876
N	-1.750452	-0.410564	-1.685604
H	-1.926111	-0.352231	-2.682313
H	-2.338724	0.262705	-1.208829
C	-0.491215	-1.191906	0.812523
H	-1.581382	-1.240145	0.867095
H	-0.137637	-2.12915	0.375025
H	-0.087472	-1.139671	1.826625
Br	3.713285	0.0	0.0
