16

C	-0.404116	0.160665	-1.459595
C	0.0	0.0	0.0
F	-0.234531	1.503535	-1.78473
H	1.092023	0.0	0.0
H	-0.371395	0.861711	0.559381
N	0.447986	-0.549433	-2.398254
H	0.333864	-1.543559	-2.2374
H	1.418448	-0.333317	-2.170473
N	-1.799069	-0.129369	-1.684127
H	-2.016506	-1.059391	-1.34485
H	-1.943206	-0.120957	-2.689981
C	-0.471495	-1.303035	0.637642
H	-1.555891	-1.330663	0.785304
H	-0.174958	-2.168328	0.035432
H	0.003124	-1.427785	1.613371
Br	3.702177	0.0	0.0
