14
Coordinates from ORCA-job run
  C   0.72770634101682      0.51183592700069     -0.09659447746827
  C   -0.02160811999196     -0.79564024212505     -0.39075813126203
  Cl  1.66262452376467      0.96429069157401     -1.52909114630537
  H   0.71847422464491     -1.60414036271913     -0.40443808437836
  C   1.62273513719844      0.36910144119889      1.04189558175417
  N   2.37741554339830      0.18894577041276      1.92528525003805
  N   -0.26194283267216      1.66176478975962      0.17762396484753
  O   -1.37354129783647      1.53197002622801     -0.30906020414714
  O   0.18599217096416      2.60344218687234      0.80814715960659
  C   -0.75801586195835     -0.80514012840169     -1.64625161974818
  N   -1.34544687281149     -0.87746232424536     -2.66072816561689
  N   -0.96646210819441     -1.15383563710275      0.75506206782139
  O   -0.90100864161170     -0.46022980387241      1.76134477454479
  O   -1.66592220591077     -2.13490233457992      0.56556303031371
