14
Coordinates from ORCA-job run
  C   0.73242514857405      0.49913087661293     -0.09157012743288
  C   -0.02820210158145     -0.80376385688295     -0.37876167747196
  Cl  1.68556495319323      0.93224440890965     -1.51732504343220
  H   0.70136341604940     -1.62201217467796     -0.37064628882279
  C   1.61365027212640      0.36140968627923      1.05813664772744
  N   2.37514846343546      0.20155677478264      1.93978862212005
  N   -0.25231788586490      1.66021589253623      0.16137305180268
  O   0.19607425746309      2.60558652235374      0.78568918860248
  O   -1.35912319458578      1.53481728077507     -0.33783339800303
  C   -0.74416770459052     -0.82068450265787     -1.64621540607983
  N   -1.28385730119736     -0.89090655691276     -2.68669606260493
  N   -0.99474922602720     -1.13073023571081      0.75781029192640
  O   -0.91750636814980     -0.43837644155115      1.76413189673193
  O   -1.72330272884461     -2.08948767385598      0.56311830493666
