14
Coordinates from ORCA-job run
  C   0.74766471377719      0.35446913555163     -0.00073081477388
  C   -0.44677203853469     -0.51768593967703     -0.41245928224737
  Cl  2.22564988564894     -0.32201456420550     -0.66610673618205
  H   -0.48603530016648     -0.54979181045375     -1.50334381349052
  C   0.86619473624690      0.58680170048838      1.42598859599959
  N   0.97836612028795      0.79942310510552      2.57753229730158
  N   0.46936690449813      1.72651282313767     -0.70722176807810
  O   0.27865576155393      2.68834977707434      0.01758871526967
  O   0.43189320213409      1.67486073364346     -1.92533529323087
  C   -1.68797379222205      0.00089478019072      0.14641052912649
  N   -2.69006100916492      0.43201979657456      0.58413744569489
  N   -0.26165648956229     -1.95147005958775      0.04751545561235
  O   0.12255642883124     -2.11616444813768      1.19658080522851
  O   -0.54584912332796     -2.80520502970458     -0.78155613623031
