14
Coordinates from ORCA-job run
  C   0.56414043842643      0.55577192210688     -0.28364142530674
  C   -0.19926226591768     -0.73130143041441      0.07026652629738
  Cl  0.39062853870750      1.02341320136759     -1.95439823378507
  H   0.01623037962824     -0.98767531343651      1.11109852898202
  C   1.96567009498601      0.35924487512165      0.06399173614826
  N   3.09073154613647      0.17560208778364      0.36361844708446
  N   0.03186831238510      1.67196859953790      0.68123315331795
  O   -0.17889253007018      2.77242304842367      0.22310044522521
  O   -0.04974674505075      1.29366163218943      1.83942398667562
  C   0.15503983135569     -1.83991811474258     -0.79749923789522
  N   0.43071052203873     -2.77264137571483     -1.45784767873952
  N   -1.71924994677282     -0.54305823516551      0.03615365086079
  O   -2.15053425678693      0.54824173148144     -0.29523864082943
  O   -2.34833391906582     -1.52573262853834      0.39973874196429
