14
Coordinates from ORCA-job run
  C   0.64601164148231      0.37883761288360     -0.23121794272202
  C   -0.41227283282796     -0.59587290649289      0.31443477313053
  Cl  1.04043793220427      0.02734960545904     -1.89432393513593
  H   -0.75800878362121     -0.21563037553952      1.28149833257376
  C   1.83118342727149      0.32354115759424      0.61435067180547
  N   2.78287494908820      0.28037917977948      1.30457131853158
  N   0.09608320216548      1.84197447120685     -0.06883654695818
  O   -0.30893692656201      2.07142226977812      1.05946974163794
  O   0.16417228797725      2.58780252252227     -1.02073136809169
  C   0.13050565374320     -1.93791367710296      0.44008152933413
  N   0.59900008411805     -3.00822129898302      0.56459321532215
  N   -1.63993807261071     -0.59455414971183     -0.58771791826013
  O   -2.01601280917054      0.51511383965524     -0.94020753724580
  O   -2.15609975325783     -1.67222825104860     -0.83696433392180
