17

C	0.0	0.0	0.0
C	-0.703251	0.074838	-1.361543
Br	2.008851	0.0	0.0
H	-1.691434	0.455402	-1.063292
N	-0.233745	1.312188	0.787271
O	-0.268795	1.223335	2.005347
O	-0.327061	2.355094	0.146575
N	-0.518512	-1.028155	0.724132
H	-0.787327	-1.822665	0.166852
H	-0.193132	-1.166247	1.662924
N	-0.896609	-1.270945	-1.863366
H	-1.867741	-1.397821	-2.120269
H	-0.286638	-1.409877	-2.658061
N	0.00586	0.889844	-2.339105
H	0.263175	1.766005	-1.899374
H	-0.672871	1.118771	-3.060071
Cl	-3.870434	0.0	0.0
