17

C	0.0	0.0	0.0
C	-0.480417	0.482637	-1.375963
Br	1.950782	0.0	0.0
H	-1.558401	0.605231	-1.228271
N	-0.384319	1.03015	1.07744
O	-1.082488	1.97568	0.739673
O	0.022896	0.800233	2.211431
N	-0.53496	-1.241713	0.418141
H	-0.494363	-1.837878	-0.404189
H	-1.534945	-1.070319	0.589187
N	-0.290853	-0.631034	-2.305038
H	-0.96646	-0.556692	-3.054233
H	0.643995	-0.60048	-2.698141
N	0.109913	1.757396	-1.746082
H	0.935024	1.616692	-2.317336
H	-0.565211	2.302439	-2.266549
Cl	-3.639465	0.0	0.0
