17

C	0.0	0.0	0.0
C	-0.488853	0.490541	-1.388626
Br	1.958902	0.0	0.0
H	0.195898	1.277107	-1.723974
N	-0.320206	1.141932	0.993014
O	0.172419	2.232469	0.751761
O	-1.045499	0.872271	1.941359
N	-0.579415	-1.193704	0.420726
H	-0.95919	-1.662434	-0.39565
H	-1.291964	-1.021425	1.122785
N	-1.769852	1.07478	-1.190051
H	-2.086977	1.614664	-1.981441
H	-2.531074	0.478752	-0.84866
N	-0.471156	-0.686306	-2.274791
H	0.43248	-0.790857	-2.722215
H	-1.182764	-0.556131	-2.981152
Cl	-4.532447	0.0	0.0
