17

C	0.0	0.0	0.0
C	-0.613123	-0.230824	-1.393672
Br	1.958771	0.0	0.0
H	-1.641111	0.123629	-1.24991
N	-0.28201	1.501685	0.439797
O	-0.298131	2.381908	-0.4151
O	-0.426792	1.69081	1.640747
N	-0.504526	-0.886321	0.941469
H	-0.373971	-0.51089	1.873159
H	-1.501972	-1.021586	0.758945
N	-0.68849	-1.646972	-1.659086
H	0.116696	-1.919618	-2.212102
H	-1.54818	-1.859293	-2.149201
N	0.118434	0.452716	-2.461235
H	-0.476303	0.403249	-3.280722
H	0.209478	1.431788	-2.221707
Cl	-3.691356	0.0	0.0
