13
Coordinates from ORCA-job run
  C   0.04983410128576      0.10216983538409     -0.26795123731924
  C   -1.18184913676156     -0.75136379113239     -0.05222819020092
  F   0.42420300368429     -0.08838809635794     -1.63056777078141
  H   -1.51877611558925     -0.67568988371260      0.98203965970598
  H   -0.96068750314912     -1.79282103909745     -0.28862389749559
  H   -1.98598276166570     -0.41680134713582     -0.71221298575926
  N   -0.24569480803116      1.47231527981544     -0.02004054150261
  H   0.56396039319551      2.04795249972566     -0.21708515071081
  H   -1.00795551564780      1.78027426965858     -0.61151829031300
  C   1.24112484503049     -0.33876526907101      0.55575897740041
  H   1.02235206387752     -0.24298938155062      1.61967709211337
  H   2.10878597303553      0.28048929627759      0.31527985063496
  H   1.49068546073551     -1.37538237280352      0.32647248422812
