16

C	0.0	0.0	0.0
C	-0.518927	0.10039	-1.410885
F	1.359226	0.0	0.0
H	-1.577795	0.36501	-1.35986
H	0.020349	0.916581	-1.8938
N	-0.243591	1.377052	0.738843
O	-0.291886	2.401642	0.067605
O	-0.266882	1.33179	1.966844
N	-0.520516	-1.066227	0.72711
H	-0.301442	-0.948691	1.709707
H	-1.539582	-1.044811	0.613209
C	-0.329916	-1.212231	-2.164405
H	0.702726	-1.56368	-2.09837
H	-0.98388	-1.983211	-1.75822
H	-0.581267	-1.074373	-3.219454
Br	-3.799741	0.0	0.0
