16

C	0.0	0.0	0.0
C	-0.417939	-0.091219	-1.448156
F	1.38842	0.0	0.0
H	-0.048097	-1.067453	-1.777836
H	0.16221	0.670581	-1.971446
N	-0.254568	1.441544	0.558075
O	-0.379537	1.538023	1.776863
O	-0.222638	2.379491	-0.23066
N	-0.524325	-0.979182	0.837169
H	-1.520456	-1.083332	0.665759
H	-0.387318	-0.726194	1.808149
C	-1.899687	0.066289	-1.739134
H	-2.057701	0.053038	-2.820445
H	-2.298098	1.004301	-1.357696
H	-2.523473	-0.7133	-1.307355
Br	-4.891094	0.0	0.0
