16

C	0.0	0.0	0.0
C	-0.503021	-0.108228	-1.428115
F	1.371322	0.0	0.0
H	-1.595897	-0.056792	-1.372335
H	-0.248934	-1.135784	-1.721825
N	-0.320656	1.389215	0.595384
O	0.20815	2.337327	0.016666
O	-1.015163	1.463778	1.598107
N	-0.497992	-0.962918	0.909815
H	-1.471893	-0.719106	1.106363
H	-0.521883	-1.85724	0.433743
C	0.063941	0.86432	-2.456707
H	-0.212626	0.525388	-3.459256
H	1.152712	0.918944	-2.397525
H	-0.333918	1.868313	-2.31727
Br	-3.868011	0.0	0.0
