16

C	0.0	0.0	0.0
C	-0.624458	-0.069031	-1.384181
Br	1.955488	0.0	0.0
H	-1.726627	-0.110106	-1.059436
H	-0.292526	0.958152	0.431462
C	-0.485016	-1.127733	0.893335
H	-1.578921	-1.027589	0.865818
H	-0.097417	-1.015469	1.909454
H	-0.163523	-2.096509	0.500169
C	-0.251194	-1.282466	-2.093672
N	0.026978	-2.2527	-2.698206
C	-0.376962	1.174523	-2.232279
H	-0.878951	1.086099	-3.198972
H	-0.79829	2.040361	-1.713436
H	0.689736	1.346992	-2.407938
F	-2.907327	0.0	0.0
