16

C	0.0	0.0	0.0
C	-0.482803	0.280548	-1.458927
Br	1.958989	0.0	0.0
H	0.40236	0.484778	-2.07196
H	-0.275439	0.840608	0.632897
C	-0.500073	-1.277249	0.640129
H	-1.595531	-1.148193	0.622055
H	-0.172822	-2.162883	0.090601
H	-0.123143	-1.347128	1.663994
C	-1.257661	1.527171	-1.507663
N	-1.757634	2.568318	-1.721042
C	-1.275253	-0.856266	-2.110309
H	-0.676873	-1.770832	-2.144204
H	-2.180381	-0.961883	-1.504495
H	-1.527393	-0.574959	-3.137606
F	-2.824814	0.0	0.0
