16

C	0.0	0.0	0.0
C	-0.616142	-0.007892	-1.389495
Br	1.955621	0.0	0.0
H	-1.719326	-0.052495	-1.073199
H	-0.29433	0.937935	0.4722
C	-0.485576	-1.167378	0.840152
H	-0.155121	-2.116448	0.409
H	-1.579748	-1.071925	0.810332
H	-0.105839	-1.096178	1.862694
C	-0.248196	-1.196957	-2.142389
N	0.033406	-2.143122	-2.782523
C	-0.341281	1.261903	-2.189585
H	-0.738074	2.117887	-1.63711
H	-0.846482	1.223077	-3.158019
H	0.729011	1.413408	-2.360901
F	-2.901607	0.0	0.0
