16

C	0.0	0.0	0.0
C	-0.280218	0.001997	-1.551287
Br	1.957405	0.0	0.0
H	0.475209	-0.659292	-1.990338
H	-0.318783	0.945977	0.436385
C	-0.645129	-1.15784	0.711086
H	-0.367329	-2.112217	0.25189
H	-1.733987	-0.958202	0.606965
H	-0.359895	-1.178608	1.76596
C	0.01452	1.340252	-2.077929
N	0.232286	2.403219	-2.530577
C	-1.654029	-0.469369	-2.043412
H	-1.717199	-0.275971	-3.119421
H	-1.73025	-1.549991	-1.884364
H	-2.472871	-0.026399	-1.441247
F	-3.253134	0.0	0.0
