20

C	-0.350064	0.040211	-1.494166
C	0.0	0.0	0.0
Cl	-2.152281	-0.056481	-1.737372
H	1.093014	0.0	0.0
C	0.141987	1.313571	-2.164134
H	1.209261	1.424658	-1.9538
H	-0.380435	2.195703	-1.797148
H	-0.018044	1.237513	-3.242252
C	0.282945	-1.171091	-2.166998
H	0.123929	-1.115015	-3.245988
H	-0.147743	-2.10575	-1.807987
H	1.356885	-1.160575	-1.954471
C	-0.491999	-1.208508	0.770231
H	-1.571963	-1.32734	0.704887
H	0.008043	-2.101173	0.395895
H	-0.214663	-1.098257	1.819309
N	-0.464817	1.2477	0.679304
O	0.220443	2.261338	0.54882
O	-1.518989	1.197207	1.319391
Br	3.516676	0.0	0.0
