20

C	-0.343939	0.033409	-1.495946
C	0.0	0.0	0.0
Cl	-2.150327	0.062787	-1.734955
H	1.093165	0.0	0.0
C	0.242159	1.249768	-2.196232
H	1.314726	1.284922	-1.983028
H	-0.211258	2.177838	-1.852709
H	0.080005	1.157571	-3.273079
C	0.19451	-1.238356	-2.138567
H	-0.311554	-2.127986	-1.762298
H	1.265924	-1.306684	-1.921636
H	0.045664	-1.192212	-3.219793
C	-0.499233	-1.207737	0.766301
H	-1.569671	-1.366758	0.636337
H	0.054934	-2.087817	0.43968
H	-0.294269	-1.070127	1.828567
N	-0.464297	1.252302	0.671172
O	-1.485792	1.193976	1.360799
O	0.189995	2.277604	0.486667
Br	3.505752	0.0	0.0
