17

C	0.0	0.0	0.0
C	-0.315778	-0.045003	-1.514696
F	1.395547	0.0	0.0
H	-0.155342	-1.070292	-1.858015
H	-0.312724	0.965547	0.405861
C	-0.657079	-1.120388	0.745207
H	-0.388284	-1.088353	1.804898
H	-1.743917	-0.936912	0.623281
H	-0.368468	-2.091757	0.332448
N	0.772864	0.722539	-2.224435
O	1.453044	0.121362	-3.057933
O	0.893162	1.916894	-1.963526
C	-1.638452	0.50508	-1.99432
H	-1.646344	1.587113	-1.842903
H	-2.474649	0.11099	-1.365302
H	-1.747483	0.290478	-3.063231
F	-3.31852	0.0	0.0
