17

C	0.0	0.0	0.0
C	-0.574882	-0.14428	-1.400688
F	1.390658	0.0	0.0
H	-1.665701	-0.27173	-1.178511
H	-0.335084	0.983425	0.339885
C	-0.483519	-1.041956	0.981438
H	-0.124192	-2.034363	0.702461
H	-1.577806	-0.979441	0.937723
H	-0.10666	-0.79478	1.979228
N	-0.027777	-1.377229	-2.035612
O	0.88409	-1.263819	-2.865126
O	-0.504009	-2.462426	-1.689619
C	-0.285426	1.064946	-2.266137
H	-0.600637	0.898164	-3.298215
H	-0.864818	1.900306	-1.863064
H	0.777757	1.316378	-2.267124
F	-2.888013	0.0	0.0
