17

C	0.0	0.0	0.0
C	-0.457212	-0.0744	-1.464192
F	1.395176	0.0	0.0
H	0.454767	0.053213	-2.062668
H	-0.324789	0.952531	0.407765
C	-0.46045	-1.120613	0.900517
H	-0.094149	-2.08956	0.547982
H	-1.555214	-1.051856	0.890086
H	-0.057159	-0.947258	1.903412
N	-1.250171	1.158848	-1.845447
O	-0.946383	2.224725	-1.31526
O	-2.042866	1.058295	-2.775405
C	-1.208085	-1.319388	-1.885292
H	-0.611048	-2.204635	-1.650971
H	-1.399764	-1.304863	-2.958319
H	-2.140753	-1.296054	-1.312526
F	-2.767552	0.0	0.0
