14

C	0.0	0.0	0.0
C	-0.467874	-0.270262	-1.427639
F	1.405604	0.0	0.0
H	-0.080193	-1.246726	-1.724059
H	-1.563962	-0.309917	-1.414508
N	-0.412974	1.318224	0.396095
H	-0.13722	1.467806	1.361715
H	-1.433512	1.318067	0.363657
N	-0.404089	-1.12281	0.811277
H	-0.12178	-0.93227	1.767873
H	-1.425184	-1.125485	0.797859
C	-0.025135	0.742247	-2.38191
N	0.288415	1.515677	-3.208752
Cl	-3.55656	0.0	0.0
