14

C	0.0	0.0	0.0
C	-0.458208	0.136111	-1.457191
F	1.406323	0.0	0.0
H	-0.135787	1.105508	-1.847167
H	-1.555823	0.097799	-1.424341
N	-0.468195	1.043196	0.854183
H	-1.486349	0.938184	0.88759
H	-0.25543	1.946169	0.448042
N	-0.461108	-1.228902	0.530821
H	-0.229036	-1.271277	1.514001
H	-0.059559	-2.01321	0.035402
C	0.075823	-0.917818	-2.312988
N	0.514159	-1.774567	-2.98544
Cl	-3.696433	0.0	0.0
