14

C	0.0	0.0	0.0
C	-0.443386	0.079423	-1.468276
F	1.404512	0.0	0.0
H	-1.541467	0.070557	-1.448108
H	-0.10285	1.017836	-1.916482
N	-0.457875	1.167304	0.666931
H	-0.36376	1.033097	1.664301
H	0.071474	1.974186	0.366846
N	-0.478801	-1.13401	0.717638
H	-0.237711	-1.982907	0.219526
H	-1.499595	-1.043208	0.731677
C	0.081572	-1.036771	-2.246776
N	0.517163	-1.940436	-2.856324
Cl	-3.688297	0.0	0.0
