14

C	0.0	0.0	0.0
C	-0.433014	-0.329683	-1.438126
F	1.384458	0.0	0.0
H	-1.528271	-0.30801	-1.465666
H	-0.081597	-1.333125	-1.692306
N	-0.412055	1.28913	0.47716
H	-1.430551	1.274094	0.512668
H	-0.122893	2.015496	-0.169934
N	-0.45541	-1.058475	0.847496
H	-1.460298	-1.158441	0.703646
H	-0.331531	-0.732802	1.801139
C	0.10981	0.633471	-2.387203
N	0.529326	1.431463	-3.139187
Cl	-3.566765	0.0	0.0
