18

C	-0.240261	0.017744	-1.524406
C	0.0	0.0	0.0
F	-0.080546	1.391873	-1.878604
H	1.087196	0.0	0.0
N	0.798516	-0.768433	-2.06601
H	0.877562	-0.607006	-3.061416
H	1.67921	-0.561846	-1.56643
C	-1.610309	-0.387745	-2.018612
H	-2.374631	0.251637	-1.580698
H	-1.639133	-0.28796	-3.107968
H	-1.799428	-1.430567	-1.763291
N	-0.53482	-1.237833	0.614624
O	0.069553	-2.278759	0.381495
O	-1.558965	-1.152324	1.300726
N	-0.600499	1.135153	0.734714
O	-0.036829	1.445739	1.782335
O	-1.625602	1.664304	0.305839
F	2.567138	0.0	0.0
