18

C	-0.386741	0.081669	-1.484337
C	0.0	0.0	0.0
F	-0.110597	-1.193096	-1.986749
H	1.087876	0.0	0.0
N	-1.796392	0.280427	-1.697926
H	-2.082438	1.106079	-1.186617
H	-1.946475	0.452693	-2.68519
C	0.578236	1.018103	-2.19439
H	1.5872	0.793308	-1.833206
H	0.330611	2.05681	-1.97198
H	0.500109	0.848015	-3.273642
N	-0.607364	-1.198099	0.630396
O	-1.737	-1.078454	1.109452
O	0.04392	-2.236741	0.600487
N	-0.405707	1.165252	0.814575
O	-0.19157	1.084719	2.019855
O	-0.857291	2.172018	0.25486
F	2.527984	0.0	0.0
