17

C	0.0	0.0	0.0
C	-0.367238	0.042504	-1.511343
Br	1.957594	0.0	0.0
H	0.385227	0.674209	-1.992403
C	-0.380681	1.323755	0.659879
H	0.039492	2.182379	0.127251
H	-1.474571	1.361678	0.654713
H	-0.015843	1.339485	1.690461
N	-0.617594	-1.136704	0.595771
H	-1.657696	-0.881351	0.449595
H	-0.454573	-1.106764	1.599791
C	-1.651612	0.727142	-1.855131
N	-2.331406	1.372801	-2.575528
N	-0.265777	-1.295646	-2.077619
H	-0.805288	-1.330948	-2.934222
H	-0.680384	-1.932804	-1.405329
H	-2.886039	0.0	0.0
