17

C	0.0	0.0	0.0
C	-0.527278	0.068449	-1.43051
Br	1.968129	0.0	0.0
H	-1.633183	0.088493	-1.244601
C	-0.419955	1.249026	0.761182
H	-1.517952	1.246627	0.734767
H	-0.025586	2.156188	0.304429
H	-0.077129	1.176094	1.797732
N	-0.515254	-1.22097	0.55185
H	-0.296412	-1.247672	1.544029
H	-1.548245	-1.088672	0.475557
C	-0.204732	-1.150865	-2.190328
N	0.019573	-2.049657	-2.916022
N	-0.13003	1.286514	-2.125135
H	0.823479	1.189263	-2.456651
H	-0.73115	1.409527	-2.930705
H	-3.074673	0.0	0.0
