17

C	0.0	0.0	0.0
C	-0.530333	-0.053656	-1.424342
Br	2.045797	0.0	0.0
H	-1.637941	-0.033381	-1.195827
C	-0.511158	1.234901	0.688495
H	-0.130339	1.289351	1.711869
H	-1.613003	1.106079	0.679216
H	-0.233504	2.129083	0.134325
N	-0.422707	-1.172347	0.665902
H	0.193817	-1.962798	0.577352
H	-0.747287	-1.020937	1.606877
C	-0.217342	-1.342078	-2.06105
N	0.026995	-2.336027	-2.640491
N	-0.148521	1.097536	-2.226933
H	-0.78927	1.181508	-3.006324
H	0.789595	0.969301	-2.589654
H	-3.196908	0.0	0.0
