17

C	0.0	0.0	0.0
C	-0.571414	0.121993	-1.411571
Br	1.957696	0.0	0.0
H	-1.671046	0.098324	-1.177482
C	-0.424024	1.208927	0.821547
H	-1.521528	1.201062	0.804489
H	-0.043175	2.139474	0.399418
H	-0.072187	1.096373	1.853703
N	-0.502512	-1.252092	0.505003
H	-0.267252	-1.317686	1.491128
H	-1.536633	-1.135429	0.445047
C	-0.251693	-1.051595	-2.232891
N	-0.044032	-1.956361	-2.955341
N	-0.255214	1.384569	-2.069815
H	-1.027539	1.636736	-2.675186
H	0.576826	1.284668	-2.639885
H	-3.086793	0.0	0.0
