17

C	0.0	0.0	0.0
C	-0.527903	0.029545	-1.43022
Br	1.968596	0.0	0.0
H	-1.635874	0.053428	-1.242032
C	-0.419188	1.269908	0.72683
H	-0.024243	2.164325	0.245907
H	-0.077417	1.225295	1.765293
H	-1.517153	1.267918	0.699529
N	-0.517906	-1.204463	0.584
H	-1.550293	-1.070276	0.507174
H	-0.297529	-1.203997	1.575696
C	-0.212819	-1.213185	-2.155563
N	0.013209	-2.12853	-2.857045
N	-0.133874	1.22683	-2.158395
H	0.829216	1.130045	-2.464769
H	-0.716771	1.311916	-2.983132
H	-3.065529	0.0	0.0
