17

C	0.0	0.0	0.0
C	-0.53026	0.006515	-1.443239
Br	1.966144	0.0	0.0
H	-1.633881	-0.048496	-1.260601
C	-0.425002	1.27135	0.723063
H	-0.102774	1.220744	1.766954
H	-0.003408	2.175053	0.278179
H	-1.522869	1.276579	0.679649
N	-0.509386	-1.19917	0.599868
H	-1.542506	-1.081166	0.515429
H	-0.286751	-1.194609	1.588927
C	-0.113593	-1.199373	-2.165261
N	0.185921	-2.153358	-2.78221
N	-0.25271	1.181003	-2.255026
H	0.720754	1.449668	-2.144818
H	-0.838015	1.939373	-1.925881
H	-3.070796	0.0	0.0
