15

C	-0.479993	0.04284	-1.43879
C	0.0	0.0	0.0
F	-1.828233	0.242243	-1.514807
H	1.094591	0.0	0.0
H	0.035856	0.800395	-2.027129
N	-0.190927	-1.274244	-2.114635
O	-1.063809	-2.137759	-2.058672
O	0.909231	-1.37226	-2.645297
C	-0.495223	-1.221684	0.777577
H	-0.204816	-1.114769	1.823419
H	-0.015437	-2.121868	0.392255
H	-1.578988	-1.333974	0.712287
C	-0.448912	1.237368	0.637758
N	-0.831521	2.20982	1.172985
Br	3.43207	0.0	0.0
