15

C	-0.362487	-0.000554	-1.471007
C	0.0	0.0	0.0
F	0.013217	1.152653	-2.070696
H	1.096676	0.0	0.0
H	0.08486	-0.851855	-1.984883
N	-1.857236	-0.139545	-1.661684
O	-2.287149	-1.293011	-1.663522
O	-2.525937	0.883065	-1.759371
C	-0.444653	-1.264135	0.738198
H	-1.529498	-1.338326	0.830704
H	-0.071976	-2.145638	0.212944
H	0.001659	-1.254441	1.733444
C	-0.501547	1.203735	0.654966
N	-0.910715	2.144018	1.227616
Br	3.417649	0.0	0.0
