15

C	-0.359431	-0.013652	-1.472273
C	0.0	0.0	0.0
F	-0.141339	1.191317	-2.051149
H	1.096576	0.0	0.0
H	0.195961	-0.787747	-2.00237
N	-1.821017	-0.346727	-1.664387
O	-2.63145	0.570456	-1.594815
O	-2.082997	-1.538073	-1.829192
C	-0.435195	-1.275474	0.726251
H	0.005272	-1.272358	1.723856
H	-1.520694	-1.357564	0.81443
H	-0.054638	-2.149408	0.194104
C	-0.519858	1.191745	0.659994
N	-0.951604	2.119482	1.236522
Br	3.41167	0.0	0.0
