15

C	-0.485219	-0.073493	-1.434925
C	0.0	0.0	0.0
F	-1.848484	0.026642	-1.507757
H	1.095513	0.0	0.0
H	-0.031259	0.691305	-2.065227
N	-0.111194	-1.393994	-2.061978
O	-0.861707	-2.343992	-1.853097
O	0.915943	-1.404804	-2.731824
C	-0.488973	-1.149494	0.884642
H	-1.573292	-1.264597	0.839527
H	-0.015368	-2.080699	0.575372
H	-0.188477	-0.948773	1.913603
C	-0.453428	1.287078	0.527808
N	-0.842314	2.307175	0.960858
Br	3.429193	0.0	0.0
