15

C	-0.358005	-0.015147	-1.472575
C	0.0	0.0	0.0
F	-0.087154	1.173524	-2.061727
H	1.096654	0.0	0.0
H	0.165789	-0.817766	-1.99272
N	-1.832806	-0.288341	-1.666591
O	-2.148547	-1.473458	-1.771233
O	-2.600168	0.667423	-1.6604
C	-0.440277	-1.269355	0.733017
H	0.000642	-1.262181	1.730496
H	-0.06304	-2.147511	0.205633
H	-1.525794	-1.347815	0.821271
C	-0.514397	1.19825	0.653414
N	-0.929417	2.135248	1.227059
Br	3.4128	0.0	0.0
