15

C	-0.357913	-0.253048	-1.450495
C	0.0	0.0	0.0
F	-0.109332	0.832216	-2.221356
H	1.104296	0.0	0.0
H	0.179611	-1.118082	-1.839602
N	-1.827204	-0.579586	-1.593972
O	-2.613838	0.352629	-1.716256
O	-2.119339	-1.773504	-1.527858
C	-0.436656	-1.136184	0.927871
H	-0.05673	-2.086713	0.548718
H	-1.522071	-1.202097	1.028161
H	0.003932	-0.967301	1.911092
C	-0.517335	1.285704	0.453151
N	-0.956091	2.293585	0.866858
Br	3.412677	0.0	0.0
