15

C	-0.525283	-0.038136	-1.426936
C	0.0	0.0	0.0
F	-0.080345	-1.15166	-2.059971
H	1.0971	0.0	0.0
H	-1.617898	-0.010901	-1.477307
N	-0.075743	1.167272	-2.223875
O	-0.759713	2.17414	-2.053739
O	0.893036	1.051586	-2.955374
C	-0.435748	-1.273008	0.736387
H	-0.004351	-2.13978	0.236046
H	-0.046723	-1.243811	1.755061
H	-1.525526	-1.372145	0.773236
C	-0.495614	1.181672	0.699734
N	-0.898902	2.10531	1.303099
Br	3.434863	0.0	0.0
