18

C	0.0	0.0	0.0
C	-0.50699	0.050513	-1.443076
F	1.401116	0.0	0.0
H	-1.610453	-0.008381	-1.301315
N	-0.548477	1.059236	0.783181
H	-1.581206	0.889244	0.704411
H	-0.348637	1.95051	0.34359
N	-0.425152	-1.237916	0.589465
H	-0.605701	-1.076644	1.570425
H	0.306666	-1.921444	0.464564
N	-0.13526	-1.153375	-2.253551
O	0.702436	-1.956187	-1.83816
O	-0.706539	-1.268624	-3.340513
C	-0.090842	1.277655	-2.23574
H	-0.472283	1.208195	-3.25484
H	0.997929	1.377483	-2.259081
H	-0.521108	2.17198	-1.782822
H	-3.086113	0.0	0.0
