18

C	-0.308449	-0.074085	-1.500623
C	0.0	0.0	0.0
F	-1.683682	-0.310262	-1.693618
H	1.100912	0.0	0.0
C	0.009442	1.225302	-2.218259
H	-0.612423	2.043764	-1.849911
H	-0.179356	1.097454	-3.288654
H	1.063153	1.469665	-2.062282
N	0.397727	-1.221739	-2.015096
H	1.357428	-1.189213	-1.672875
H	0.429703	-1.171168	-3.026954
C	-0.512096	-1.217743	0.770135
H	-0.114959	-2.123381	0.313993
H	-0.173631	-1.166597	1.806946
H	-1.603091	-1.259498	0.748872
C	-0.510407	1.230211	0.591669
N	-0.963195	2.195131	1.085475
Cl	3.346604	0.0	0.0
