11
Coordinates from ORCA-job run
  C   -0.52832047855133     -0.64834091068794     -0.02463622939644
  C   0.95498336020231     -0.35097608918040     -0.12493495011124
  F   -0.70068885861785     -1.77072122966392      0.71960710174095
  H   1.44961440140037     -1.21381061121807     -0.57819162791269
  H   -1.03313776133453     -0.75404906110397     -0.98389180210122
  H   1.34358956951290     -0.22394935403068      0.88856332357127
  N   -1.20825576819951      0.49170558094223      0.69187322446232
  O   -0.90955426357411      0.64138223709059      1.87089322087661
  O   -1.97973898853795      1.17525633002140      0.02524193167240
  C   1.20892591086842      0.84623117720769     -0.92018521799677
  N   1.40258287683129      1.80727193062306     -1.56433897480516
