11
Coordinates from ORCA-job run
  C   -0.28017583186722      0.20300922737393      0.56913677467573
  C   0.63366685409490     -0.19047663814316     -0.57869827750180
  F   -0.19490497950181      1.52561728025642      0.81753537797204
  H   0.49648314816488     -1.24934381410364     -0.80632694104147
  H   -0.09270837924495     -0.36087713279243      1.48372140029094
  H   0.35631664377135      0.39547665810041     -1.46030422090649
  N   -1.69882264993515     -0.13290407705780      0.15728580884956
  O   -1.91871743321607     -1.33526000202095      0.05371960348306
  O   -2.47469888079339      0.78715469243168     -0.04942509183805
  C   2.02799724240439      0.07434244892496     -0.23703150806726
  N   3.14556426612307      0.28326135703058      0.05138707408376
