11
Coordinates from ORCA-job run
  C   -0.61932327424130     -0.45986916269568     -0.32500051586733
  C   0.88973863369860     -0.47493013500207     -0.18125372863900
  F   -1.09186371175152     -1.71475893583945     -0.11267063068045
  H   1.13049485516265     -0.83082484644235      0.82359834129431
  H   -0.97811218452766     -0.08149388198182     -1.28114877814278
  H   1.29766656231717     -1.18492333194061     -0.90531648326752
  N   -1.20202263809577      0.44044594974437      0.73611388199127
  O   -1.73065863523532      1.47702834945299      0.34518658858850
  O   -1.07037214047546      0.06237692784522      1.89436898535581
  C   1.46279764641491      0.84894192679684     -0.40322605282639
  N   1.91265488673370      1.91600714006257     -0.59065160780643
