11
Coordinates from ORCA-job run
  C   -0.28079260798250     -0.51436928088644      0.31696595257101
  C   0.61786008277340      0.46784597127600     -0.41462706955059
  F   0.19275065315541     -0.76633627461880      1.55401217003299
  H   0.17553261666845      0.71537124054029     -1.38158855408392
  H   -0.42950907196106     -1.45017756789739     -0.22309374045248
  H   0.68916329628847      1.38245343881126      0.18179745270096
  N   -1.65127928659167      0.12142870310920      0.43121193085359
  O   -2.23383361735660      0.25231842531962     -0.64040724966387
  O   -2.04297743861619      0.45673863366700      1.53829063234244
  C   1.95017058761626     -0.09831349109180     -0.60326071968200
  N   3.01391478600603     -0.56695979822893     -0.75930080506814
