11
Coordinates from ORCA-job run
  C   -0.40518815743806     -0.63686363093445      0.39759420263304
  C   0.73770765448043     -0.43292011437740     -0.57931240602822
  F   0.05019357955754     -0.73152835646693      1.66374976542217
  H   0.33447899984680     -0.36321845770231     -1.59149592896595
  H   -1.00444125631660     -1.51459370023863      0.15070233949150
  H   1.39654301426596     -1.30375042137648     -0.52745407377587
  N   -1.34815841071073      0.54391841531522      0.29608525737910
  O   -1.46555465266524      1.27820700936166      1.26386652567219
  O   -1.90428305991782      0.64111916157604     -0.79316028134760
  C   1.50021391323630      0.77349401004066     -0.26375735977613
  N   2.10848837566144      1.74513608480262     -0.01581804070421
