11
Coordinates from ORCA-job run
  C   -0.37015533692520     -0.49607968402290      0.24569486571958
  C   0.68960520119876      0.40418886685212     -0.36575013028590
  F   0.06756904738133     -1.03366860952115      1.40222582108528
  H   0.95101268922027      1.17721685070754      0.36327088892511
  H   -0.70802861164999     -1.28487242188870     -0.42752877175884
  H   0.28610929905724      0.88726346497638     -1.25776581664827
  N   -1.58815753540137      0.35984130179917      0.52716903804629
  O   -2.15180525092326      0.77552933850258     -0.47993793794235
  O   -1.88875517204710      0.57332671596138      1.69139419826749
  C   1.88112967565484     -0.36674528654404     -0.70840211739247
  N   2.82947599443448     -0.99700053682240     -0.98937003801593
