11
Coordinates from ORCA-job run
  C   -0.48251290967877     -0.66511656284836      0.16027872761634
  C   0.97852356705983     -0.30478405788385     -0.02442102422744
  F   -0.59055370118326     -1.54279182713526      1.19026626015391
  H   1.53885530974805     -1.22250186454703     -0.22027858832615
  H   -0.96351394395045     -1.06995278737298     -0.72906202915835
  H   1.34094832076182      0.12715026149909      0.91173909168424
  N   -1.24909500430693      0.58062202364462      0.53007114690169
  O   -2.05263331424925      0.99582432165061     -0.29973798472062
  O   -0.98027501196808      1.07481670413035      1.61868963945960
  C   1.16309691574094      0.63738339223982     -1.12377010865306
  N   1.30015977202610      1.39035039662299     -2.01277513073016
