11
Coordinates from ORCA-job run
  C   -0.41864745346900     -0.69149173506865      0.21696225723135
  C   1.00269579193828     -0.17232432022204      0.12328987107707
  F   -0.54698319737615     -1.41350031091572      1.35947183457787
  H   1.68335395683644     -1.02740493666824      0.13540501895036
  H   -0.73990621219296     -1.28399655373607     -0.63855091182661
  H   1.19912958360841      0.43760836176870      1.00844467688774
  N   -1.36300022776947      0.48199109944291      0.30153824538367
  O   -1.28400059371353      1.16456868861527      1.31617902388335
  O   -2.10515616296149      0.65788380445897     -0.66014016155643
  C   1.20780087961300      0.61115881529712     -1.09108773230498
  N   1.36271363548646      1.23450708702776     -2.07251212230338
