11
Coordinates from ORCA-job run
  C   -0.44596153840655     -0.67164659322208      0.22563846065997
  C   0.99584625035526     -0.23532290363482      0.05403172328973
  F   -0.54621120464059     -1.41727678979308      1.35552374892026
  H   1.28374121162845      0.33557552502099      0.94033326397529
  H   -0.85626356226269     -1.21859469407586     -0.62208863254326
  H   1.62302809351745     -1.12891679800523      0.00074443497775
  N   -1.30906406699924      0.55329930711483      0.40032211535425
  O   -1.12566158644809      1.19937868006959      1.42521341975698
  O   -2.09729118235524      0.80172573216665     -0.50720172817022
  C   1.17252036345554      0.57095641702028     -1.14975822871611
  N   1.30431722215569      1.21282211733874     -2.12275857750464
