11
Coordinates from ORCA-job run
  C   -0.45529919997503     -0.67539633313381      0.18970152687315
  C   0.98904252407514     -0.26581037755710     -0.02108133198560
  F   -0.52133938529759     -1.51878410444523      1.25126647933969
  H   1.34061518003659      0.21918295116554      0.89302101263850
  H   -0.92720493263295     -1.12982742763777     -0.68025875637190
  H   1.58347348782618     -1.16873514840543     -0.18270887415862
  N   -1.26771235380661      0.55198561239175      0.52170694065973
  O   -1.01013346600228      1.09574285172339      1.58912525704738
  O   -2.09334907149371      0.90509960660933     -0.31520626235778
  C   1.12931025778632      0.63482844265811     -1.16127897910128
  N   1.23159695948393      1.35271392663124     -2.08328701258329
