15

C	-0.157776	-0.128288	-1.532403
C	0.0	0.0	0.0
F	0.08889	1.204313	-2.019627
H	1.094264	0.0	0.0
N	0.85107	-1.009484	-1.978092
H	1.715527	-0.764369	-1.463842
H	0.996456	-0.885216	-2.972835
N	-1.463088	-0.518626	-1.95621
H	-2.097922	0.257915	-1.811915
H	-1.446364	-0.745157	-2.943865
C	-0.484278	-1.182958	0.690888
N	-0.853037	-2.119904	1.296258
C	-0.595731	1.209158	0.531234
N	-1.084082	2.185946	0.966028
F	2.554331	0.0	0.0
