15

C	-0.161933	0.121482	-1.533295
C	0.0	0.0	0.0
F	0.082881	-1.214738	-2.011565
H	1.09776	0.0	0.0
N	-1.467113	0.508209	-1.962984
H	-2.07886	-0.299982	-1.927833
H	-1.433754	0.86614	-2.909797
N	0.844319	1.001125	-1.982662
H	1.709581	0.765809	-1.467202
H	0.987572	0.88095	-2.979606
C	-0.60471	-1.199681	0.54095
N	-1.113675	-2.155261	0.996392
C	-0.486326	1.190627	0.676957
N	-0.886436	2.140428	1.240872
F	2.557306	0.0	0.0
