15

C	-0.159927	0.162768	-1.529423
C	0.0	0.0	0.0
F	0.068692	-1.162657	-2.045246
H	1.094154	0.0	0.0
N	-1.46093	0.576877	-1.942355
H	-2.10559	-0.190882	-1.797542
H	-1.446597	0.803909	-2.929234
N	0.856503	1.040667	-1.958666
H	0.989297	0.95047	-2.959041
H	1.721842	0.779495	-1.454477
C	-0.594115	-1.220505	0.507297
N	-1.071455	-2.210854	0.92348
C	-0.482079	1.168673	0.716888
N	-0.848611	2.094755	1.340349
F	2.555573	0.0	0.0
