15

C	0.004334	-0.005933	-1.539333
C	0.0	0.0	0.0
F	-1.252399	-0.012301	-2.121916
H	1.098231	0.0	0.0
N	0.650716	1.230002	-1.922513
H	1.566461	1.18886	-1.467238
H	0.793971	1.220457	-2.926608
N	0.661206	-1.238161	-1.910109
H	1.576491	-1.187444	-1.45274
H	0.80329	-1.234674	-2.914632
C	-0.559614	-1.201742	0.587792
N	-0.998302	-2.158536	1.110536
C	-0.561635	1.204335	0.57963
N	-1.004062	2.161756	1.09757
F	2.570581	0.0	0.0
