15

C	-0.157256	0.196349	-1.525311
C	0.0	0.0	0.0
F	0.086594	-1.114014	-2.072379
H	1.094191	0.0	0.0
N	-1.461358	0.609274	-1.929824
H	-1.447412	0.861468	-2.910885
H	-2.100563	-0.167059	-1.804291
N	0.853737	1.093691	-1.931533
H	0.993756	1.024243	-2.93281
H	1.718421	0.823147	-1.430945
C	-0.593849	-1.233329	0.474863
N	-1.066332	-2.239672	0.856867
C	-0.484388	1.150177	0.743633
N	-0.848124	2.061759	1.389652
F	2.554207	0.0	0.0
