15

C	-0.170896	-0.039285	-1.538661
C	0.0	0.0	0.0
F	0.014066	1.281614	-1.991853
H	1.094553	0.0	0.0
N	0.852477	-0.895551	-2.01702
H	0.961273	-0.788976	-3.02058
H	1.72671	-0.657532	-1.515638
N	-1.513598	-0.370548	-1.954354
H	-1.584726	-0.207487	-2.954045
H	-1.654997	-1.361625	-1.788208
C	-0.507458	-1.228318	0.585427
N	-0.935957	-2.229076	1.029324
C	-0.59693	1.172795	0.60255
N	-1.065791	2.117445	1.11992
F	2.560962	0.0	0.0
