15

C	-0.176988	-0.029577	-1.537555
C	0.0	0.0	0.0
F	-0.013651	-1.37319	-1.927148
H	1.098064	0.0	0.0
N	-1.513316	0.300997	-1.97588
H	-1.613522	1.307196	-1.913876
H	-1.60031	0.034087	-2.951098
N	0.856173	0.791529	-2.055635
H	1.729627	0.578458	-1.543532
H	0.960543	0.638719	-3.05134
C	-0.59529	-1.142948	0.662124
N	-1.061718	-2.073005	1.207683
C	-0.493521	1.255334	0.536552
N	-0.897366	2.275629	0.957806
F	2.563095	0.0	0.0
