15

C	-0.154282	-0.025885	-1.537814
C	0.0	0.0	0.0
F	0.08493	1.340528	-1.932141
H	1.097665	0.0	0.0
N	0.858181	-0.867399	-2.043424
H	1.722038	-0.651983	-1.516412
H	0.997358	-0.690302	-3.031513
N	-1.458581	-0.391481	-1.984729
H	-2.095851	0.361258	-1.752277
H	-1.452924	-0.505125	-2.991682
C	-0.484134	-1.225467	0.611998
N	-0.852865	-2.200197	1.155653
C	-0.590278	1.172528	0.61214
N	-1.070932	2.116191	1.122361
F	2.554435	0.0	0.0
