15

C	-0.159738	0.053899	-1.536923
C	0.0	0.0	0.0
F	0.071019	-1.30468	-1.956865
H	1.096553	0.0	0.0
N	-1.461629	0.435693	-1.977481
H	-2.105766	-0.321544	-1.779735
H	-1.44765	0.592251	-2.978958
N	0.855629	0.900438	-2.028239
H	0.991965	0.736968	-3.018863
H	1.720977	0.678281	-1.505696
C	-0.596587	-1.180986	0.590224
N	-1.0935	-2.128456	1.077133
C	-0.481444	1.216054	0.633174
N	-0.840502	2.190065	1.183422
F	2.55488	0.0	0.0
