15

C	-0.162127	0.263872	-1.51354
C	0.0	0.0	0.0
F	0.091839	-1.016571	-2.120295
H	1.094148	0.0	0.0
N	-1.47549	0.677821	-1.890344
H	-1.487488	0.903498	-2.879352
H	-2.111461	-0.096251	-1.737893
N	0.838997	1.188742	-1.881148
H	1.708664	0.889346	-1.407219
H	0.968438	1.175277	-2.885798
C	-0.592593	-1.252848	0.420067
N	-1.061774	-2.27937	0.748578
C	-0.483905	1.118174	0.79239
N	-0.865078	2.003591	1.464799
F	2.551016	0.0	0.0
