15

C	-0.183039	0.059472	-1.534119
C	0.0	0.0	0.0
F	-1.425244	-0.521996	-1.90237
H	1.092942	0.0	0.0
N	-0.182216	1.426821	-1.964885
H	-0.184595	1.447361	-2.978497
H	-1.01953	1.894721	-1.633874
N	0.859045	-0.735155	-2.082332
H	0.992902	-0.53099	-3.064444
H	1.72002	-0.53533	-1.544883
C	-0.488162	-1.253189	0.550926
N	-0.872281	-2.251597	1.035902
C	-0.564569	1.136263	0.69986
N	-1.020412	2.064033	1.260259
F	2.553907	0.0	0.0
