16

C	0.0	0.0	0.0
C	-0.548584	0.069632	-1.39864
Br	2.006612	0.0	0.0
H	-1.613804	-0.205682	-1.293928
H	-0.046346	-0.703739	-2.00393
N	-0.511129	0.938561	0.842485
H	-1.018299	1.726241	0.495356
H	-0.316387	0.874402	1.816961
N	-0.225388	-1.419377	0.601242
O	-0.226536	-1.487181	1.819321
O	-0.352075	-2.355516	-0.172358
C	-0.424281	1.44319	-2.038895
H	0.604324	1.838222	-1.960693
H	-0.689445	1.388026	-3.091353
H	-1.111331	2.159385	-1.577593
Cl	-3.799843	0.0	0.0
