16

C	0.0	0.0	0.0
C	-0.501308	0.091479	-1.424059
Br	2.002157	0.0	0.0
H	-1.562884	-0.176549	-1.375808
H	0.016544	-0.653579	-2.026471
N	-0.528765	0.96995	0.843836
H	-1.55048	0.935196	0.710421
H	-0.317594	0.74694	1.809032
N	-0.250134	-1.456439	0.536732
O	-0.378541	-1.568854	1.750565
O	-0.261337	-2.374058	-0.272768
C	-0.349064	1.491222	-2.003842
H	-0.681103	1.491177	-3.045873
H	0.689298	1.831393	-1.97178
H	-0.965033	2.201038	-1.452464
Cl	-3.58203	0.0	0.0
