16

C	-0.491384	0.003575	-1.421714
C	0.0	0.0	0.0
Br	0.230158	-1.481786	-2.467695
H	1.092291	0.0	0.0
H	-0.337625	0.951842	0.437405
N	-2.060153	-0.20331	-1.40225
O	-2.700899	0.84049	-1.237449
O	-2.556384	-1.323277	-1.446737
N	-0.169076	1.194991	-2.097479
H	-0.58657	1.238252	-3.018462
H	-0.442768	1.992878	-1.543279
C	-0.481633	-1.163315	0.854793
H	-1.558791	-1.149741	1.069656
H	-0.23953	-2.115609	0.377929
H	0.062478	-1.130309	1.804458
F	2.641305	0.0	0.0
