16

C	-0.48115	0.065791	-1.415143
C	0.0	0.0	0.0
Br	0.415418	1.514094	-2.390623
H	1.091911	0.0	0.0
H	-0.350143	-0.952324	0.417903
N	-0.061071	-1.223417	-2.191653
O	-0.384656	-1.273387	-3.379736
O	0.464284	-2.135185	-1.565718
N	-1.886758	0.241072	-1.575843
H	-2.142939	0.142228	-2.552143
H	-2.364921	-0.452635	-1.010716
C	-0.481646	1.175379	0.841355
H	-0.060582	2.106475	0.453927
H	-1.570572	1.281808	0.889013
H	-0.093684	1.048149	1.855459
F	2.643913	0.0	0.0
