16

C	-0.064503	-0.17903	-1.506974
C	0.0	0.0	0.0
Br	-1.748651	-1.002681	-2.207155
H	1.097899	0.0	0.0
H	-0.468268	0.92488	0.331147
N	-0.089115	1.249417	-2.132761
O	0.783319	1.543706	-2.937296
O	-0.98124	2.000847	-1.747091
N	1.044212	-0.882471	-2.048571
H	0.8716	-1.876964	-1.990649
H	1.861289	-0.63648	-1.436098
C	-0.45682	-1.211534	0.791583
H	-1.539135	-1.367218	0.750594
H	-0.15872	-1.090373	1.836541
H	0.036905	-2.113934	0.422013
F	2.711226	0.0	0.0
