15

C	0.0	0.0	0.0
C	-0.501964	-0.017908	-1.427293
F	1.400347	0.0	0.0
H	-1.596188	-0.098969	-1.298909
H	-0.250375	0.963652	-1.864353
C	-0.522408	1.196998	0.757978
H	-0.16458	1.179415	1.790792
H	-0.165501	2.109649	0.270492
H	-1.620443	1.087059	0.686921
C	-0.389376	-1.252466	0.681403
N	-0.599099	-2.259044	1.245809
N	0.074139	-1.147775	-2.153522
H	-0.439381	-1.287026	-3.013472
H	1.039435	-0.94879	-2.385492
F	-2.885018	0.0	0.0
