15

C	0.0	0.0	0.0
C	-0.476083	-0.143829	-1.434618
F	1.399776	0.0	0.0
H	-0.22829	-1.161394	-1.776429
H	-1.568474	-0.03639	-1.335302
C	-0.458139	1.289472	0.647287
H	-0.010648	1.376233	1.641716
H	-0.118255	2.113714	0.017921
H	-1.552711	1.216277	0.673628
C	-0.409368	-1.167852	0.802551
N	-0.548754	-2.105669	1.494832
N	0.134416	0.90444	-2.255169
H	-0.379246	0.979579	-3.122498
H	1.08857	0.64975	-2.47633
F	-2.798833	0.0	0.0
