15

C	0.0	0.0	0.0
C	-0.312312	0.088166	-1.518943
F	1.394046	0.0	0.0
H	0.536725	-0.424329	-1.991696
H	-0.20771	1.160452	-1.756555
C	-0.601629	1.114063	0.81139
H	-0.314699	1.029876	1.863087
H	-0.258822	2.074339	0.415647
H	-1.69395	0.986635	0.686641
C	-0.402984	-1.311781	0.548343
N	-0.592147	-2.350771	1.059201
N	-1.561874	-0.515387	-1.940477
H	-2.284264	-0.371013	-1.178858
H	-1.89712	-0.004124	-2.748554
F	-3.129163	0.0	0.0
