15

C	0.0	0.0	0.0
C	-0.420215	-0.062016	-1.469619
F	1.414049	0.0	0.0
H	-0.061104	-0.993652	-1.903387
H	-1.506375	0.026856	-1.526858
N	-0.441375	1.210383	0.59721
H	-1.438898	1.3072	0.409407
H	-0.325958	1.105074	1.599344
N	-0.409259	-1.160803	0.738227
H	-0.118498	-2.0081	0.263002
H	-1.428703	-1.139489	0.780499
N	0.194129	1.024978	-2.274564
O	1.23515	0.759374	-2.880508
O	-0.36761	2.117457	-2.286341
Cl	-3.560424	0.0	0.0
