15

C	0.0	0.0	0.0
C	-0.41713	0.212821	-1.466644
F	1.378772	0.0	0.0
H	-1.485179	0.438104	-1.502401
H	-0.165366	-0.669004	-2.049744
N	-0.417752	1.001713	0.935403
H	-0.183748	1.9199	0.574823
H	-1.434263	0.939385	0.98499
N	-0.459876	-1.306785	0.369571
H	-0.3071	-1.382605	1.371255
H	-1.473289	-1.312293	0.234887
N	0.335689	1.339224	-2.068009
O	0.175891	2.46114	-1.582718
O	1.084427	1.095972	-3.014878
Cl	-3.556688	0.0	0.0
