16

C	-0.319204	-0.241095	-1.497177
C	0.0	0.0	0.0
Br	-2.286208	-0.376754	-1.762929
H	1.102239	0.0	0.0
C	0.092863	0.935162	-2.259472
N	0.417341	1.880134	-2.879824
C	0.354927	-1.501939	-2.014155
H	-0.028442	-2.371162	-1.477676
H	1.428504	-1.402209	-1.820144
H	0.175715	-1.629216	-3.082284
C	-0.482783	-1.139205	0.785513
N	-0.889443	-2.057272	1.39531
N	-0.45042	1.24865	0.56878
H	0.2079	1.976308	0.322537
H	-1.376249	1.493318	0.240102
Br	3.410315	0.0	0.0
