16

C	-0.440086	0.064461	-1.480385
C	0.0	0.0	0.0
Br	-0.050072	-1.656191	-2.347933
H	1.095069	0.0	0.0
C	-1.886327	0.267724	-1.562856
N	-3.044742	0.468412	-1.599408
C	0.329271	1.167119	-2.198538
H	0.057376	1.197856	-3.254986
H	1.398305	0.970281	-2.085253
H	0.088662	2.118807	-1.722734
C	-0.511964	-1.192699	0.684886
N	-0.932939	-2.091037	1.315729
N	-0.415592	1.240276	0.648872
H	0.278662	1.487576	1.343989
H	-1.316468	1.136705	1.099297
Br	3.456511	0.0	0.0
