12
Coordinates from ORCA-job run
  C   0.84237669931038      0.36569403235200     -0.57317287481688
  C   -0.56102513982934      0.06098841536537     -0.02949191531570
  F   0.73996169795306      1.00948328326229     -1.78535771732213
  H   -1.10026855343879     -0.50316524440298     -0.80425773096383
  H   1.37030557384731      1.00929744028876      0.13394098202234
  C   1.57602374476149     -0.89604148013587     -0.74452244101205
  N   2.11998247773172     -1.92854473076725     -0.86927832298312
  C   -1.26855350614332      1.32832739749696      0.17318638450262
  N   -1.83687332089809      2.33844696159978      0.35649044570879
  N   -0.39849225696590     -0.63817219199383      1.23970724561878
  H   -1.21230375013892     -0.51721122338428      1.82799963085773
  H   -0.26913366618959     -1.62910265968096      1.07475631370344
