12
Coordinates from ORCA-job run
  C   0.77705840285209     -0.44762248033055     -0.35915033133619
  C   -0.59595325562023      0.19005160265936     -0.07373144336677
  F   1.25427212502274     -1.00029171269643      0.81218785819395
  H   -0.96298160476260      0.62005796525449     -1.01270154728144
  H   0.64873978939234     -1.25986644853304     -1.08189179902814
  C   1.74075623474852      0.52729240681727     -0.88208113117484
  N   2.48108909096901      1.31891762705758     -1.33292899575360
  C   -0.42368534477592      1.28883043273117      0.88847136344341
  N   -0.27150687001755      2.15600582979128      1.66396956102572
  N   -1.58530368719041     -0.74211119777738      0.42801190806747
  H   -1.84023796159328     -1.41359520933044     -0.28533006857116
  H   -1.22324691902472     -1.23666881564332      1.23417462578159
