12
Coordinates from ORCA-job run
  C   0.57930605027483     -0.10768850453071     -0.92617663362792
  C   -0.66246850032667      0.12839313851586     -0.06295761869587
  F   0.44080109001235     -1.35846127302562     -1.50566520735321
  H   -1.52174056486367      0.08216595301447     -0.75107311196627
  H   0.63422948624629      0.63079610286656     -1.73076336787883
  C   1.81277637104046     -0.07237271934201     -0.13172998529526
  N   2.82047684899459     -0.01999416321305      0.46671441713629
  C   -0.60659480304223      1.48317938212101      0.49520049006705
  N   -0.57682168745724      2.57560610929394      0.92313866499199
  N   -0.68121605582496     -0.85920641353432      1.00133350991613
  H   -0.77457525695023     -1.78287858481487      0.59660358218997
  H   -1.46317297810352     -0.70053902735128      1.62437526051593
