12
Coordinates from ORCA-job run
  C   0.78849370602059     -0.46667676113830     -0.52483259288403
  C   -0.53089502082029      0.17290900972494     -0.09407482986123
  F   1.26057158134815     -1.24143771658705      0.51703153378539
  H   -0.88762524572577      0.78373496865711     -0.93019279729691
  H   0.58849136851487     -1.12740474461855     -1.37199857288364
  C   1.79236751691663      0.54131791175726     -0.88592935428161
  N   2.57405621388770      1.35794268180785     -1.20116858266533
  C   -0.30542898616676      1.06403056356454      1.06308031801185
  N   -0.17823974484525      1.74668046970889      2.01026911998310
  N   -1.48693483763909     -0.89500597226389      0.14104289221845
  H   -2.40594567717292     -0.50977364565958      0.32121481850937
  H   -1.20691087431786     -1.42731676495321      0.95655804736461
