12
Coordinates from ORCA-job run
  C   0.95132402626607      0.36148291071679     -0.33072134780149
  C   -0.53392553203161      0.02689384121224     -0.13860145458344
  F   1.08323243740165      1.32642471941839     -1.30455844586922
  H   -0.88981340316995     -0.42058892289720     -1.07128447386279
  H   1.36822626042408      0.75626443020563      0.60125409814940
  C   1.68783669810846     -0.84449875626982     -0.72874118274019
  N   2.28487771077976     -1.79267134977386     -1.07675277515255
  C   -1.28730356844808      1.27379772700214      0.09049178403616
  N   -1.89781774534680      2.24410924360196      0.34572083917344
  N   -0.64166422210678     -0.95190950391070      0.92685165786400
  H   -1.50360321164572     -1.47525013248119      0.85301615075214
  H   -0.62136945023109     -0.50305420682438      1.83432515003454
