12
Coordinates from ORCA-job run
  C   0.88295531032420      0.41960092905393     -0.46634419440510
  C   -0.55206488990652      0.00403029611513     -0.11073945588017
  F   0.90501400500105      0.98593008447489     -1.72022924687701
  H   -0.91511106100807     -0.65191034899847     -0.91520898305853
  H   1.23842066976603      1.14806865316925      0.26579709527648
  C   1.74452497546594     -0.77106038473943     -0.44617149968362
  N   2.38547365950401     -1.75389325453315     -0.42063530691062
  C   -1.39703305365387      1.20141263316329     -0.10006981086577
  N   -2.08610061060654      2.15125237995522     -0.10336929373106
  N   -0.51703752073435     -0.60711198810171      1.21254805738415
  H   -0.27155049285454     -1.58668536392879      1.13525113743965
  H   -1.41749099129736     -0.53963363563016      1.66817150131160
