12
Coordinates from ORCA-job run
  C   0.92817881445975      0.24550287786429     -0.47309759182623
  C   -0.54037928908541      0.10306445838263     -0.05098806686788
  F   1.03598536479144      1.22197823932770     -1.43835888948375
  H   -1.09572365520209     -0.25457659515438     -0.92310949587876
  H   1.53616718830687      0.54510271476057      0.38643442873352
  C   1.42211508622834     -1.03069513083273     -1.00447894681890
  N   1.82602475956995     -2.03875382211679     -1.44870773789947
  C   -1.07003952630212      1.42887568421151      0.31886843943290
  N   -1.49617637372735      2.46168745113576      0.68103320565746
  N   -0.61428959716681     -0.89533664686839      0.99891404120289
  H   -0.39129933056461     -0.49096554324323      1.90005369124875
  H   -1.54056344130798     -1.29688368746695      1.05343692249948
