12
Coordinates from ORCA-job run
  C   0.73583894830639     -0.42591792273239     -0.45853471894031
  C   -0.58852444292643      0.22221841911337     -0.01324185112494
  F   1.24001949907044     -1.15940420056209      0.59671039629112
  H   -0.97851753361621      0.79648100730941     -0.86146311090633
  H   0.53303604972557     -1.12120331162037     -1.27955426087036
  C   1.72157688958391      0.57074273764767     -0.89166037625196
  N   2.47722408738647      1.38621249516321     -1.26846423617848
  C   -0.31772631247994      1.16678345893679      1.08107798884343
  N   -0.08494786078440      1.92232221150625      1.94812367215967
  N   -1.59747999347314     -0.72937488567968      0.40660628619185
  H   -1.22310870637278     -1.34530190644929      1.11783508042994
  H   -1.91639062441987     -1.28455810263287     -0.37743486964363
