12
Coordinates from ORCA-job run
  C   0.93025946232846      0.37072008217103     -0.41492725874387
  C   -0.54714114798644      0.10966593595038     -0.08743912548490
  F   1.02365953674745      1.17929460014876     -1.52463069671509
  H   -1.01812140410630     -0.30100873848437     -0.99218526622596
  H   1.40485983800877      0.86664402356310      0.43468655262333
  C   1.59582528895317     -0.91237326244282     -0.68109950022528
  N   2.08144542169278     -1.95884659756296     -0.89665807022992
  C   -1.19369309257694      1.39013076240705      0.21244032798804
  N   -1.71422585805332      2.40358404141887      0.49351487136992
  N   -0.59026845761712     -0.76515248129022      1.07832929485017
  H   -1.45579046614263     -0.64995296342821      1.58866273917866
  H   -0.51680912124789     -1.73270540245060      0.78830613161489
