12
Coordinates from ORCA-job run
  C   0.78978420162127     -0.41708988205613     -0.56261518554875
  C   -0.53716165827328      0.16309713826591     -0.07467188615177
  F   1.30032978876072     -1.23518153254492      0.42676789767639
  H   -0.92467553202944      0.80898137532648     -0.86981157417865
  H   0.59107112797619     -1.03537403421344     -1.44160673072618
  C   1.76111174662326      0.63492890528006     -0.88487521440985
  N   2.51585335976299      1.48733504548217     -1.16977485591478
  C   -0.31297710903105      0.99695872609900      1.12444948850291
  N   -0.18717349317063      1.63780731395378      2.10060588823688
  N   -1.46084077901466     -0.94085121298887      0.11862224434674
  H   -1.15122192396097     -1.51002090307619      0.89760133183201
  H   -2.38609972926440     -0.59159093952786      0.33530859633506
