12
Coordinates from ORCA-job run
  C   0.63900638942499     -0.07936420651358     -0.96602652922819
  C   -0.67546976927388      0.03625859657160     -0.18048541185246
  F   0.60771120141379     -1.22484372797550     -1.72229695871273
  H   -1.47444719431280     -0.09888124231981     -0.91649769557014
  H   0.75237127916145      0.77372681509576     -1.64173323452840
  C   1.78016746781291     -0.12700220804371     -0.04019045802085
  N   2.66297649475271     -0.16126616915550      0.73216702830759
  C   -0.77547571960983      1.40440802953942      0.36957366476003
  N   -0.84480817384312      2.47398561282812      0.85063562770146
  N   -0.76836541370088     -1.02709923064882      0.79728255318397
  H   -0.18104034279053     -0.83430543984900      1.60034636473456
  H   -1.72162621903482     -1.13461682952900      1.11822504922515
