12
Coordinates from ORCA-job run
  C   0.59956498716997     -0.17144007290122     -0.90221835028633
  C   -0.66093286390194      0.12468762677524     -0.08592092621356
  F   0.46842699464208     -1.45699040929173     -1.40091418173323
  H   -1.50410585441546      0.03692828296633     -0.78978518142241
  H   0.67774460311002      0.51252200001778     -1.75184126309462
  C   1.81477749889267     -0.08678759425854     -0.08356732821815
  N   2.81728490705694      0.00996371236824      0.51821255857677
  C   -0.61185967775521      1.51253356405262      0.38457655075573
  N   -0.58814687035698      2.63115786596345      0.73869625891228
  N   -0.70867429814908     -0.79199191210009      1.03910648958661
  H   -1.49455339702645     -0.58176323496399      1.64114834867940
  H   -0.81052602926654     -1.73881982862807      0.69450702445751
