12
Coordinates from ORCA-job run
  C   0.58316039266334     -0.09039365673142     -0.92619740769204
  C   -0.66150033311695      0.13268314717750     -0.06342788522859
  F   0.44110091625340     -1.32748915530860     -1.53304459511343
  H   -1.51827915280632      0.10729490814621     -0.75570510207301
  H   0.64617560090754      0.66484216311278     -1.71443884359423
  C   1.81290772993027     -0.07789368095488     -0.12529774958051
  N   2.82148589895444     -0.04073876787305      0.47289441959854
  C   -0.60127558330953      1.47340211220410      0.52702817331987
  N   -0.56943479723507      2.55529555636825      0.98071568714742
  N   -0.68966663867592     -0.88001465472567      0.97693231033500
  H   -0.79913142669596     -1.79248656333074      0.55139503152327
  H   -1.46454260686922     -0.72450140808450      1.60914596135770
