12
Coordinates from ORCA-job run
  C   0.56536391350018     -0.13410752228962     -0.93168316079341
  C   -0.66622753079253      0.10713380787017     -0.05562384856518
  F   0.45041448191686     -1.41271168189806     -1.45229768604461
  H   -1.53665695520363      0.00799598977344     -0.72386096900035
  H   0.58600920022080      0.56902363986769     -1.76888559365518
  C   1.81196860513433     -0.03040103919226     -0.16417012536397
  N   2.83115294610339      0.07771018783718      0.40682934165508
  C   -0.63759192691433      1.48620098094533      0.44163166565263
  N   -0.63316416386556      2.59789521594061      0.81765751373913
  N   -0.63848535181378     -0.83310116464100      1.05069270350560
  H   -1.40470843087345     -0.65932741256932      1.68870376408609
  H   -0.72707478741228     -1.77531100164416      0.69000639478415
