12
Coordinates from ORCA-job run
  C   0.94168375682913      0.26851964858920     -0.43145381829073
  C   -0.54064022198380      0.06832350667240     -0.08833421963246
  F   1.05770150058067      1.18832808554082     -1.44986375270952
  H   -1.02068382896391     -0.37417515401534     -0.96621382940894
  H   1.47765960724055      0.65453649165821      0.44145873521780
  C   1.53516148089653     -1.00764368582126     -0.84903201639310
  N   2.01844049158455     -2.01558191599568     -1.20520134005929
  C   -1.16312806009613      1.38187496288829      0.16112944170485
  N   -1.66771616434757      2.40999775358347      0.42138865212158
  N   -0.62607840537099     -0.86554558897938      1.01848870734933
  H   -1.53101836180904     -1.31562464433359      1.04483712691409
  H   -0.48138179455998     -0.39400945978714      1.90279631318638
