12
Coordinates from ORCA-job run
  C   0.94813154794112      0.20286780676009     -0.29130457940620
  C   -0.58064497549230      0.28970945837342     -0.09067584275611
  F   1.36186993503474      1.21162263216606     -1.13064376150814
  H   -1.03232847053968      0.25909134070930     -1.08797047375323
  H   1.46237199440306      0.31937610272939      0.66806584645067
  C   1.28441475918196     -1.10316368551826     -0.87526326357768
  N   1.50090694217509     -2.16610556251127     -1.32380320329234
  C   -0.88712025278162      1.59558547819873      0.50732481487492
  N   -1.09815288928672      2.63114164239501      1.01718706724995
  N   -1.15642496718054     -0.76864671907096      0.71029689647007
  H   -0.75216560439410     -0.80296704607036      1.63743867197256
  H   -1.05185801906102     -1.66851144816116      0.25934782727553
