12
Coordinates from ORCA-job run
  C   0.70522202284163      0.15929285571159     -0.70781786463444
  C   -0.65240037953658      0.04409066702797      0.01896831439860
  F   0.49547898634759      0.46508386079894     -2.03308012221126
  H   -1.24071737524974     -0.70044176560482     -0.52796082288337
  H   1.30722888496555      0.95701518801756     -0.26114107792983
  C   1.41938311316813     -1.12055511393803     -0.59907497130760
  N   1.94464147888171     -2.16436827053973     -0.48705904350580
  C   -1.33902128046618      1.33755018262719     -0.09247927929202
  N   -1.84545623725981      2.39337101523586     -0.16725179894328
  N   -0.57406418287476     -0.35730677511281      1.40668261414778
  H   -0.20808769260803     -1.29645842534422      1.49667629326954
  H   -0.01120733820949      0.28172658112053      1.95353775889169
