12
Coordinates from ORCA-job run
  C   0.85008645387142     -0.43591718531884     -0.44972286638320
  C   -0.54479505591672      0.09593042772604     -0.12200265453374
  F   1.38277054642581     -1.00236228377414      0.69217390295339
  H   -0.94890629300719      0.54064957085439     -1.03759892450764
  H   0.74854019628795     -1.22363341162599     -1.20039488454307
  C   1.73844315064511      0.62578058081492     -0.93744023841074
  N   2.42110307231456      1.47892620334350     -1.36531961880035
  C   -0.45247499529112      1.15522497452554      0.90439728239940
  N   -0.42880759505641      1.95726945512959      1.76215404802747
  N   -1.37545546480444     -1.03551306647005      0.25097861256316
  H   -2.33717667202324     -0.74184522868562      0.36909385950598
  H   -1.05432734344573     -1.41551003651933      1.13368148172932
