12
Coordinates from ORCA-job run
  C   0.90498821217516      0.25247064132763     -0.51280044844685
  C   -0.54605182516539     -0.00581276410866     -0.08493841254152
  F   0.91735015885456      0.92429960191940     -1.71490142878236
  H   -0.98798146330275     -0.68082954643311     -0.82388659961783
  H   1.40813738254207      0.87576786391129      0.23328077825224
  C   1.62092955644732     -1.02165454982944     -0.65060318273903
  N   2.20608701005553     -2.03165385248448     -0.76902223285628
  C   -1.29597756669737      1.26342653144717     -0.11848419194471
  N   -1.90135485982951      2.26922813709074     -0.08385400237128
  N   -0.52525063330146     -0.66691694806512      1.20636845219473
  H   -1.37942475146722     -1.18475889575096      1.36251530239929
  H   -0.42145122031093      0.00543378097553      1.95632596645364
