12
Coordinates from ORCA-job run
  C   0.74417678155011     -0.41698705011092     -0.45421389656685
  C   -0.59174784020914      0.21218791457003     -0.01557448590073
  F   1.26298601459415     -1.12740320919850      0.60961370603806
  H   -0.99252771598752      0.76836297146604     -0.87079054044791
  H   0.55359699854068     -1.12635107281448     -1.26606379309347
  C   1.70958273648468      0.59280804380892     -0.90241719548572
  N   2.44173185040149      1.41914044131904     -1.30144133168532
  C   -0.33702677179058      1.17377694604649      1.06765775590967
  N   -0.12121202309216      1.93145857632260      1.93697925595263
  N   -1.58281021366556     -0.75213252326877      0.41701229462728
  H   -1.89087836809574     -1.32421716216488     -0.35915459294895
  H   -1.19787144873041     -1.35064387597555      1.13739282360129
