12
Coordinates from ORCA-job run
  C   0.82645047637885      0.21030006455415     -0.54488759299307
  C   -0.64305689003955      0.08931426109217     -0.08601067191935
  F   0.87188429948629      0.73044168069044     -1.81816232419790
  H   -1.15996592293504     -0.51632478671496     -0.83808373557563
  H   1.37673744561926      0.88183108695147      0.12184713248372
  C   1.44752424439202     -1.12156319058229     -0.52807308316027
  N   1.89763224332536     -2.20529299518073     -0.49564543355179
  C   -1.23534187397910      1.43313676459613     -0.09810689462443
  N   -1.66850957445282      2.52343952556725     -0.07554111748834
  N   -0.83283908836845     -0.52299982064896      1.21087547742722
  H   -0.52924404477829     -1.48831812362794      1.20941004641111
  H   -0.35227131464854     -0.01496446669672      1.94237819718875
