12
Coordinates from ORCA-job run
  C   0.65739620829191     -0.10965862104689     -0.94968714273947
  C   -0.67084797077077      0.04404926320601     -0.19453345347694
  F   0.62045135112261     -1.26732048642231     -1.68684377637579
  H   -1.45688449222897     -0.08989258703328     -0.94450748743045
  H   0.80070988826929      0.72921478091043     -1.63738706875432
  C   1.77773742872502     -0.16150672837643      0.00091201041537
  N   2.64433482174587     -0.19522974553840      0.79161585108260
  C   -0.75676156637795      1.42444658012588      0.32757610388191
  N   -0.81767042693328      2.50794622312931      0.77741436002838
  N   -0.80381434349715     -0.99872729262307      0.80050167940920
  H   -1.76500213418212     -1.08208718050369      1.10450498174769
  H   -0.22864876416447     -0.80223420582754      1.61143394221183
