12
Coordinates from ORCA-job run
  C   0.62713009779636     -0.06126665131824     -0.97451228791239
  C   -0.67796257649454      0.03438348308601     -0.17074879170855
  F   0.59306325889093     -1.19533810487738     -1.74760696907513
  H   -1.48554924345917     -0.09436508298201     -0.89847727327810
  H   0.72688458535406      0.80264459572171     -1.63851190490876
  C   1.78011028073195     -0.11578808986799     -0.06376817917438
  N   2.67288923460493     -0.15439385589820      0.69688565510908
  C   -0.77910643047406      1.39393675447495      0.40032396690089
  N   -0.84963733161560      2.45834651537687      0.89250624378405
  N   -0.75198431233937     -1.04395875995671      0.79188511029871
  H   -1.70052996109484     -1.16352634758074      1.12227445655248
  H   -0.15630760190063     -0.85967445617825      1.59074997341212
