12
Coordinates from ORCA-job run
  C   0.59446270160310     -0.14216730618092     -0.91372756886054
  C   -0.66077769020660      0.13098650813548     -0.08136908227710
  F   0.45560438290729     -1.41002802076614     -1.45468948122126
  H   -1.50796136078907      0.07087809895638     -0.78326336641352
  H   0.67052663501519      0.56893803367605     -1.74093468924126
  C   1.81352316066602     -0.08998644340912     -0.09848024399561
  N   2.81345635279999     -0.01783142556581      0.51095000798870
  C   -0.60278431768355      1.50089125349697      0.43809668878033
  N   -0.56416646306913      2.59898717044072      0.85046343417245
  N   -0.70705516038032     -0.82360524464262      1.01187335089172
  H   -0.81771045149010     -1.75727584191382      0.63557587607679
  H   -1.48711745435858     -0.62878678617597      1.62650510548150
