12
Coordinates from ORCA-job run
  C   0.65170388045024     -0.10397177140890     -0.95494874558267
  C   -0.67197044076374      0.04915486372081     -0.19173589664250
  F   0.60569939626170     -1.25505317260837     -1.70168416182653
  H   -1.46234697493813     -0.07477716438272     -0.93894756136695
  H   0.79624163298139      0.74034931032591     -1.63572840937058
  C   1.77693930562276     -0.16908005557967     -0.01055727426218
  N   2.64771815574241     -0.21077762081072      0.77500912692970
  C   -0.74964147888110      1.42459271311314      0.34387688539238
  N   -0.80230521814939      2.50044845547333      0.81290309991950
  N   -0.80448348664871     -1.00253230668021      0.79423887378876
  H   -0.22405185584796     -0.81602712954734      1.60382635412016
  H   -1.76450291582948     -1.08332612161526      1.10274770890091
