19

C	-0.536528	-0.032268	-1.407512
C	0.0	0.0	0.0
F	-1.880907	0.137834	-1.445425
H	1.099456	0.0	0.0
N	-0.011085	1.031061	-2.373352
O	0.339181	0.672991	-3.490311
O	-0.089144	2.183469	-1.96815
N	-0.228795	-1.372392	-2.055036
O	-1.185929	-2.083059	-2.345909
O	0.957517	-1.637165	-2.168518
C	-0.450372	-1.283221	0.711011
H	-0.104333	-1.234883	1.744972
H	0.001408	-2.172283	0.26789
H	-1.539208	-1.393756	0.710187
C	-0.471877	1.226648	0.78297
H	-0.049007	2.145769	0.386798
H	-0.121494	1.115248	1.811015
H	-1.561982	1.30861	0.794454
Br	3.567701	0.0	0.0
