19

C	-0.38722	-0.050339	-1.451147
C	0.0	0.0	0.0
F	0.317101	-0.960966	-2.125896
H	1.096921	0.0	0.0
N	-1.862651	-0.375033	-1.725842
O	-2.104463	-0.897414	-2.808406
O	-2.683017	-0.081534	-0.863341
N	-0.186508	1.29297	-2.147688
O	0.914506	1.483754	-2.639994
O	-1.133444	2.074027	-2.107044
C	-0.419961	-1.293994	0.702015
H	-0.174202	-2.169308	0.095405
H	0.153978	-1.37822	1.625104
H	-1.483927	-1.304352	0.939989
C	-0.443135	1.251997	0.747568
H	-0.000548	2.149549	0.312677
H	-0.061655	1.17599	1.768371
H	-1.527542	1.363972	0.777987
Br	3.536311	0.0	0.0
