13
Coordinates from ORCA-job run
  C   -0.98957835951528     -0.46660482258692      0.13131556017085
  C   0.46048863167893     -0.79279355581081     -0.13667585121045
  F   -1.22878401580165     -0.34256994976819      1.46273678684240
  H   0.66508695583899     -1.74159514291110      0.36791902012958
  H   -1.68720797223357     -1.19093934252219     -0.29193193867698
  H   0.57500433892235     -0.95763818186126     -1.21032679664518
  N   -1.32172446473485      0.84954386324342     -0.53489477994320
  O   -1.49254622088821      1.83515847535540      0.16796593225076
  O   -1.34675017815382      0.80202488710068     -1.76113429757167
  C   1.40706468125228      0.29589480810349      0.35841378058522
  H   1.23106869157502      0.51890643598352      1.41136017841936
  H   1.28600271594083      1.21978848101562     -0.21047578486232
  H   2.44287519611897     -0.02817595534166      0.24672819051164
