13
Coordinates from ORCA-job run
  C   -0.81758614786407     -0.25817150530956      0.13796044841993
  C   0.53442323748128      0.29482233568269     -0.24109041794510
  F   -1.08231743941648     -0.04547187172431      1.45310734430758
  H   0.66623517530502      0.15414120227902     -1.31637796237299
  H   -0.93445383540565     -1.32044621200376     -0.08391299242291
  H   0.51644856731063      1.37097556108610     -0.04135661111159
  N   -1.87792383893137      0.44202654151566     -0.68118075592432
  O   -1.93656103453165      0.07929778782084     -1.85229883546162
  O   -2.54479728585261      1.31463853650404     -0.14415543732612
  C   1.65311824451402     -0.38071204173277      0.54444335300673
  H   1.52328992425541     -0.22981250008988      1.61644710570005
  H   2.62145891332291      0.03339384019232      0.25889051374162
  H   1.67866551981255     -1.45568167422039      0.34952424738873
