13
Coordinates from ORCA-job run
  C   -0.99474094256016     -0.44631746877107      0.16069898650228
  C   0.44230988112507     -0.80353668317695     -0.13617061891180
  F   -1.20101661570644     -0.29994870375309      1.49518278242522
  H   0.64112235522582     -1.74910038675513      0.37684383679735
  H   -1.71614567054348     -1.16189308636149     -0.23685385374621
  H   0.52857723224842     -0.98548083609901     -1.20967109979733
  N   -1.31687351559479      0.86734355398752     -0.51574835148152
  O   -1.36804682375641      0.80502232504469     -1.74050513654415
  O   -1.45662943114644      1.86450223321614      0.17759361558192
  C   1.42010545540014      0.27383341142655      0.32150384748076
  H   2.44692806735585     -0.07207217473646      0.19363810906662
  H   1.27082870495907      0.51688447506488      1.37416957633697
  H   1.30458130299336      1.19076334091342     -0.25968169371013
