16
Coordinates from ORCA-job run
  C   -0.81230456786611      0.19400786783762      0.17110275622937
  C   0.67434519784579      0.26781551484299      0.54098274565899
  Cl  -1.77512399945598      0.93239826070346      1.53544088377162
  H   0.88463639069125      1.29431628785184      0.84930269913397
  N   -1.09209636229099      1.13775407405540     -1.00216728745599
  O   -0.41781927926071      2.15717077550153     -1.06302196253950
  O   -2.00282678437808      0.81862124397072     -1.75507453992466
  N   -1.20687496886364     -1.09278436716129     -0.20611101414300
  H   -1.08628233466320     -1.75439541917774      0.55069555509157
  H   -2.15750086993163     -1.11032317749150     -0.55204576406292
  C   1.58965879091183     -0.13906071048418     -0.61931361084980
  H   2.62828474422891     -0.11772432278544     -0.28493076290058
  H   1.48433491411057      0.56175404945491     -1.44720203783911
  H   1.34798227889473     -1.14407962173621     -0.96271263134232
  C   0.88604801791641     -0.62076616429672      1.68489681540265
  N   1.05653883211085     -1.38370429108539      2.56115815576970
