16
Coordinates from ORCA-job run
  C   -0.78969472807541      0.26187709752605      0.08662186261049
  C   0.61003997220198     -0.20984116730231      0.51197453579809
  Cl  -0.98020923685280      2.01422673825556      0.55705797161601
  H   0.55454303837449     -0.23671549742262      1.60876589098907
  N   -0.98810561901511      0.25197626625434     -1.43151705926771
  O   -2.14476296085961      0.37846557533825     -1.80965477935894
  O   0.00214603829676      0.12392189287946     -2.13885842139547
  N   -1.78154956420046     -0.58400964592605      0.60146319645480
  H   -1.74362125307332     -0.64709722158079      1.60983403201342
  H   -2.70510923110238     -0.30860968265757      0.29081515698317
  C   1.81482093044320      0.66002237689621      0.13734828028252
  H   1.69691281282085      1.66746415592380      0.53301167389793
  H   1.94780464105241      0.70491718739271     -0.93992165195758
  H   2.70793480575597      0.21852819729970      0.58335855630723
  C   0.80213075203423     -1.59167432147914      0.06207938086320
  N   0.99771960219920     -2.70245195139761     -0.26337862583624
