16
Coordinates from ORCA-job run
  C   -0.65845696425742      0.39352914935422     -0.15243380408385
  C   0.64623307116557     -0.39551945422434      0.04835458424912
  Cl  -0.35529581699697      2.01120082751405     -0.76013156635727
  H   0.33837750239709     -1.38214852559240      0.41527258939491
  N   -1.45389696297615     -0.40626814145416     -1.24529906158954
  O   -1.59987765287402      0.04420889182848     -2.36875333791604
  O   -1.85830518641221     -1.49041097400841     -0.82882202109365
  N   -1.38741813753167      0.45548708383081      1.06146394243190
  H   -2.17771842775021      1.08389105234671      0.98402055354542
  H   -1.71058939050809     -0.47197179370250      1.31333342580687
  C   1.57813012737822      0.26293595846237      1.06693675978757
  H   1.03739314912339      0.44056621712370      1.99549645052130
  H   2.42588810502548     -0.39598163130026      1.26175187928479
  H   1.95723663516685      1.21113645723293      0.68690284565995
  C   1.32189510454187     -0.59884900972785     -1.23346961785283
  N   1.89640484450828     -0.76080610768337     -2.24462362178866
