16
Coordinates from ORCA-job run
  C   -0.68435447213260      0.26057323266968     -0.20549970469960
  C   0.67245463293338     -0.43548606512190     -0.06748370101864
  Cl  -0.44198821718612      1.95656741103345     -0.80494851582622
  H   0.44852340459470     -1.50158767560595      0.03928804862664
  N   -1.53070934665913     -0.42383485445210     -1.28944163312157
  O   -0.98772401437561     -1.26872826836481     -1.98866221545029
  O   -2.69916774522260     -0.06504278859637     -1.34936624542762
  N   -1.44706814082479      0.16059167046100      0.97417733942697
  H   -1.03085239404747      0.69238468927875      1.72727776182584
  H   -2.38888501620895      0.49699279784374      0.80542283584045
  C   1.43741134629810      0.04914509912870      1.16924747002385
  H   1.57423452368010      1.13135341837201      1.14436266002536
  H   2.42298983722877     -0.41685461323156      1.19033308703650
  H   0.91324862876269     -0.23990195962215      2.08096299492147
  C   1.50056417527379     -0.26673890251495     -1.26189979350687
  N   2.24032279788574     -0.12943319127754     -2.16277038867629
