16
Coordinates from ORCA-job run
  C   -0.73269170510748      0.36020043107082     -0.22082039414467
  C   0.62700336898354     -0.35000826261129     -0.02674190891926
  Cl  -0.49298750237117      2.05769295114238     -0.59410672816178
  H   0.37897429044557     -1.40523791459327      0.13660224166384
  N   -1.40075256008475     -0.35477577045659     -1.41664637613360
  O   -1.68266298976482     -1.52378920865561     -1.16459344139560
  O   -1.58525643109409      0.23472748008091     -2.46630003258387
  N   -1.66864246762619      0.23782354275338      0.84947723468305
  H   -1.74211708117890     -0.72187038084026      1.16272312078182
  H   -1.44513451185188      0.85893027248428      1.61372088643943
  C   1.40883818976035      0.18057048343192      1.17477303205473
  H   2.32295419152170     -0.40125659848253      1.30134508417880
  H   1.68213682086386      1.22612571892361      1.03433626219514
  H   0.81633762382773      0.08182202192859      2.08575073232321
  C   1.42575582359495     -0.27294586462377     -1.25011890958278
  N   2.08724494008155     -0.20800890155253     -2.21840080339843
