16
Coordinates from ORCA-job run
  C   -0.87044993163164      0.31252387174763      0.19785161686274
  C   0.56897268182229     -0.13559524043476      0.57615191939007
  Cl  -1.18831138191870      1.85685295760207      0.98594288114143
  H   0.61789920884226     -0.04037987550326      1.66710005415371
  N   -0.86583467460707      0.49744445451534     -1.32744177802972
  O   -0.93156815054080     -0.56284868130246     -1.94287469849040
  O   -0.72908186256467      1.61311728434097     -1.80315761029489
  N   -1.93880642117284     -0.58243726854140      0.48627465730273
  H   -1.76589237186383     -1.49432615785734      0.08016173954238
  H   -2.09000800795710     -0.65611891324419      1.48339941679925
  C   1.67715185140616      0.70753564409404     -0.06013474681723
  H   1.50652958037269      1.76734791369825      0.12863447998367
  H   2.64121554249805      0.42525401023742      0.36537430049848
  H   1.72036437181318      0.54298503107174     -1.13776913640872
  C   0.74663719823406     -1.55457141528640      0.26294443787133
  N   0.90218236726796     -2.69678361513765      0.03754246649515
