16
Coordinates from ORCA-job run
  C   -0.77648794466505      0.28397123120734      0.21160677763021
  C   0.72566277453403      0.18879143701487      0.50595833548476
  Cl  -1.58018376283100      1.12854986353543      1.61678445123386
  H   1.06578297523543      1.18487968022440      0.79764689728541
  N   -1.00256459203778      1.25303486159715     -0.95313468840395
  O   -0.23288150812534      2.20083490615974     -1.03665917337749
  O   -1.96275480393272      1.02501525988476     -1.67698026070643
  N   -1.33283852217812     -0.94975801037541     -0.13670026717229
  H   -1.25279311259206     -1.61948870773077      0.61853976407428
  H   -2.29389068559977     -0.86005887683542     -0.43988344931498
  C   1.52751180511167     -0.31709997125159     -0.69837778795777
  H   1.15703441815224     -1.28805633187929     -1.02445115208781
  H   2.57806373734335     -0.41278774308540     -0.41921476579746
  H   1.45831499703438      0.39218254261523     -1.52283714821103
  C   0.89527733743233     -0.71806602799726      1.64218167632456
  N   1.02674688711844     -1.49094411308377      2.51652079099618
