16
Coordinates from ORCA-job run
  C   -0.81554712432985      0.16931527037159      0.07945583290024
  C   0.62087869068474     -0.15890034201065      0.51700992083488
  Cl  -1.20564317066612      1.87499159044102      0.59718040661685
  H   0.55101483047461     -0.23099822853945      1.61092171680937
  N   -0.98785841680143      0.18643141530418     -1.44201123329299
  O   0.02146042332161      0.19807237972788     -2.13381254476295
  O   -2.14525998869510      0.19150785439748     -1.83860189231814
  N   -1.71560916167903     -0.79613781198814      0.54987487874346
  H   -2.65909046234871     -0.61590414157196      0.22965955851863
  H   -1.68652107883940     -0.88757878394937      1.55632831441423
  C   1.72723694832811      0.85190435253914      0.19623661532092
  H   1.86513581073062      0.95660087176030     -0.87624047834060
  H   2.65870024881561      0.49123682392126      0.63641378796780
  H   1.49601296696796      1.82282452691243      0.63125551965825
  C   0.97299789799225     -1.49381624014279      0.02419836142439
  N   1.30209158604410     -2.56054953717290     -0.33886876449436
