16
Coordinates from ORCA-job run
  C   -0.81369576444726      0.29024834272274      0.29303566601146
  C   0.62854940829378     -0.16852756690902      0.59092266059530
  Cl  -1.10045349825783      1.87362791391904      1.01739604351938
  H   0.69738122113175     -0.13541878533853      1.68368856946082
  N   -0.91217674971525      0.46430314078294     -1.26296148847816
  O   -0.55574747807464      1.51859819611742     -1.76817784379778
  O   -1.28576938289766     -0.54348256453739     -1.85749628606748
  N   -1.75166226738771     -0.63328261071549      0.79443572851078
  H   -2.69804080112294     -0.28388237414756      0.70751976373119
  H   -1.67258803852641     -1.52321001844110      0.31582285427374
  C   1.73166907119298      0.69239249824793     -0.02835110590514
  H   1.58089220783586      1.74242233312341      0.22001146380140
  H   2.69581471183502      0.37227118983617      0.36966141201518
  H   1.75811704263481      0.58883198525956     -1.11286119165061
  C   0.78200513156264     -1.56771996011866      0.18485428463337
  N   0.91670518594286     -2.68617171980142     -0.14750053065347
