16
Coordinates from ORCA-job run
  C   -0.76560583209478      0.35600422642301      0.20290217926600
  C   0.63352841838212     -0.19586759202381      0.53620310665946
  Cl  -0.89373483118991      2.06473635830237      0.66853729739546
  H   0.61947728979260     -0.24165738289894      1.63136788646031
  N   -1.01886497704231      0.35810628522811     -1.33958062947678
  O   -2.19658171047731      0.39291233091330     -1.67263305431271
  O   -0.05204181758240      0.33573985160653     -2.09068886474633
  N   -1.75949945701304     -0.37889401620814      0.88062233053934
  H   -2.68248166452684     -0.03810044151633      0.63980189502709
  H   -1.69487404253202     -1.36686045860188      0.65886783381447
  C   1.86715642408658      0.60287454634065      0.10584312590872
  H   1.79773675979091      1.62574609658284      0.47434062416444
  H   2.74853520729366      0.13937186227868      0.55326668434865
  H   1.98115011903227      0.61386838890583     -0.97381429144052
  C   0.69572870171754     -1.57767728252292      0.05175143327741
  N   0.72037141236292     -2.68930277280928     -0.32678755688501
