16
Coordinates from ORCA-job run
  C   -0.86445849869858      0.33463697331005      0.18616486977578
  C   0.55022358825609     -0.17092025447553      0.58545937763910
  Cl  -1.15188276946626      1.86565980545070      1.01136365288161
  H   0.57384021918842     -0.11055128456424      1.67976862359531
  N   -0.81604491568574      0.56296287924213     -1.33264181845256
  O   -0.90813062285798     -0.47543361131621     -1.98108446141611
  O   -0.62378225669885      1.68571966683532     -1.77126979931571
  N   -1.96740761199684     -0.53256781378851      0.42307372820659
  H   -2.14529295106302     -0.63074496693886      1.41361573961275
  H   -1.81543045003405     -1.43690284845385     -0.00750685453112
  C   1.70086291820455      0.65451340507562      0.00343415933365
  H   2.64410351248968      0.32807860428564      0.44379486832996
  H   1.76676734967773      0.52158244702103     -1.07741663891314
  H   1.55946695425964      1.71311965774891      0.22084691131789
  C   0.69019962716920     -1.58461719295091      0.23168472584946
  N   0.80896590725602     -2.72353546648123     -0.03028708391351
