16
Coordinates from ORCA-job run
  C   -0.74148579593553      0.38138022444811     -0.14271711590758
  C   0.62779737051403     -0.33533739987854     -0.09595378184898
  Cl  -0.52376836861643      2.11857453652760     -0.25389949483890
  H   0.39096231561554     -1.40567733024920     -0.08835959887633
  N   -1.43575423774874     -0.14723363115578     -1.41819689457524
  O   -1.64653723513853      0.59430746127307     -2.36114536519268
  O   -1.70705996036507     -1.34314027931922     -1.34139823185783
  N   -1.64691339942194      0.08378938966426      0.91910945790758
  H   -1.41147078092762      0.58482248672284      1.76343023448285
  H   -1.70396735910649     -0.91334973292061      1.08350934845082
  C   1.44033002169080      0.01558343785443      1.15021643975119
  H   0.87069815389955     -0.21575411446459      2.05155252774424
  H   2.35654676397148     -0.57619022237272      1.16766642308747
  H   1.71140859490608      1.07097346733649      1.15699461901477
  C   1.39187016498563     -0.06569281926579     -1.31415541774721
  N   2.02734375167727      0.15194452579966     -2.27765314959421
