16
Coordinates from ORCA-job run
  C   -0.80332846371798      0.22474320782023      0.36668447136276
  C   0.71941920054746      0.16111766305235      0.53376913619555
  Cl  -1.56356559485516      0.90502173427656      1.81206641695488
  H   1.05090117723372      1.17148512080480      0.78782964725347
  N   -1.04260274458584      1.29214923279943     -0.76235456500805
  O   -1.73112470256395      0.93402587208444     -1.71129674568477
  O   -0.49942440930140      2.37929814790668     -0.62362487080281
  N   -1.37462139926284     -1.02180140832635      0.07305493705339
  H   -1.05277287785369     -1.37433824752108     -0.81924030842491
  H   -2.38543771507715     -0.97611304169239      0.06335178174688
  C   1.42738080227510     -0.30231851354045     -0.74487502370070
  H   1.17802046254645      0.34392492652115     -1.58858852717165
  H   2.50681998511780     -0.25494706719500     -0.59530415464531
  H   1.17468762706323     -1.33594078051428     -0.98745968431568
  C   1.04363173424191     -0.72533772041533      1.65037848388944
  N   1.35201691819233     -1.41896912606074      2.54560900529752
