16
Coordinates from ORCA-job run
  C   -0.71600516333039      0.31717345590514     -0.00926342488223
  C   0.69524160649996     -0.28919720664085     -0.08865914056111
  Cl  -0.68276462468201      2.06697148811330     -0.12540796129411
  H   0.55175478831644     -1.37426946507246     -0.01679478024594
  N   -1.47189453555780     -0.24864935548076     -1.26591129163505
  O   -1.70641899282058     -1.45205921705809     -1.16814364668671
  O   -1.74107410054105      0.47234787523334     -2.21157184412727
  N   -1.35555434100390     -0.08254619701040      1.18985465630585
  H   -2.23127686912420      0.40883681620379      1.32247570185298
  H   -1.52477361623870     -1.08207776832813      1.17037007919006
  C   1.60089139247154      0.18518079281458      1.04915188904242
  H   1.10894796505581      0.00925077798650      2.00476478162234
  H   2.54138278371729     -0.36742225969764      1.01815256095779
  H   1.82076095552238      1.24781499263796      0.95026207847456
  C   1.29686772265053     -0.01495971724764     -1.39400915302620
  N   1.81391502906468      0.20360498764140     -2.42527050498736
