16
Coordinates from ORCA-job run
  C   -0.72799866435161      0.37446533262224     -0.21063357573618
  C   0.61850779271097     -0.36503901046637     -0.03527815716382
  Cl  -0.45653461562714      2.06284536076792     -0.60375631987242
  H   0.34959029011100     -1.41279460806866      0.14242879827957
  N   -1.43485785814415     -0.33510110847499     -1.38707296619686
  O   -1.62732107547054      0.24970089654527     -2.43787220188641
  O   -1.73754402865557     -1.49537734208023     -1.11915830836744
  N   -1.64560616387319      0.28329649083254      0.87826641805381
  H   -1.73423244682671     -0.67084219440589      1.20397668001194
  H   -1.39659362155087      0.90905016013330      1.63064745272303
  C   1.43450555993664      0.15834979463987      1.14653245644842
  H   1.72931332759700      1.19591908063816      0.99073546103910
  H   0.85644932980055      0.08224363730991      2.06893520516998
  H   2.33715180834753     -0.44333975569176      1.26228241246081
  C   1.39591848772481     -0.31724542575024     -1.27383039241493
  N   2.04125187827128     -0.27613130855104     -2.25420296254860
