16
Coordinates from ORCA-job run
  C   -0.81095730855946      0.21787546087176      0.15204028237516
  C   0.65434670490365      0.16718237343321      0.60187452207846
  Cl  -1.81137074155137      0.85389826318841      1.54135556331436
  H   0.89760820638733      1.13990614990178      1.03493525533876
  N   -0.97355961147141      1.30133301485070     -0.91885862382084
  O   -1.83631366367863      1.10930771775840     -1.76544454618688
  O   -0.25999939503241      2.28993747793195     -0.81347778297349
  N   -1.24761635940491     -0.99426049872300     -0.38808231275476
  H   -2.17378619361575     -0.92013094171471     -0.78825407813916
  H   -1.20503156273062     -1.74252610466561      0.29264736406609
  C   1.61014641138474     -0.15780601701165     -0.55137221008654
  H   1.34244478690359     -1.10627410201339     -1.01509480127641
  H   1.58023697113241      0.63243553746888     -1.30121135569203
  H   2.62969072836618     -0.22464840452046     -0.16816627387241
  C   0.75955039859988     -0.85286066207541      1.64631177151754
  N   0.84561062836678     -1.71336926468084      2.44079722611216
