16
Coordinates from ORCA-job run
  C   -0.85186616774369      0.16017023400943      0.28646101532878
  C   0.64139321814416      0.13164673811759      0.63234772599202
  Cl  -1.80850936752040      0.66568428406068      1.68676681617530
  H   0.89218004740569      1.12240440474673      1.02059151147401
  N   -1.00621514864913      1.32794571351182     -0.75487048819049
  O   -1.57009724901057      1.04683857644632     -1.80640600723982
  O   -0.52557863927615      2.41105240475825     -0.45106911068007
  N   -1.32726261209330     -1.06833029001129     -0.19302154671678
  H   -2.32911991165886     -1.05227405321551     -0.33396483158716
  H   -0.87593535185656     -1.32652100715358     -1.06108365654379
  C   1.51827302075232     -0.17498688540108     -0.58735143906060
  H   2.56855792004752     -0.10598438537474     -0.30103670447248
  H   1.34188226676165      0.54497926823230     -1.38872844251572
  H   1.34577255114884     -1.18673725541873     -0.95848121383008
  C   0.87184679896474     -0.85272480920819      1.68855521301768
  N   1.11567862458375     -1.64216293810004      2.52229115884920
