16
Coordinates from ORCA-job run
  C   -0.86771609410769      0.32194778773996      0.19564643452610
  C   0.56580855878775     -0.14186795452935      0.57730645470553
  Cl  -1.17015617912542      1.86995108700747      0.98279951524120
  H   0.61239116036706     -0.04917750843282      1.66858731400655
  N   -0.85776139233684      0.50680166342302     -1.32955004796184
  O   -0.70760810795993      1.62118588701766     -1.80430209016706
  O   -0.94281550569649     -0.55138535771472     -1.94627951191095
  N   -1.94632432637516     -0.56124024180985      0.48231754307693
  H   -2.09373649004694     -0.64050384665876      1.47967696323255
  H   -1.78610166430359     -1.47224676051446      0.06910174264383
  C   1.68519674738456      0.69020947851312     -0.05382575879077
  H   1.52591119194077      1.75141077760819      0.13701604971092
  H   1.72983604446798      0.52783608839195     -1.13172026970847
  H   2.64472421134648      0.39596794121896      0.37385095511097
  C   0.72920375228534     -1.56216361302228      0.26202017246827
  N   0.87714809337214     -2.70572542823806      0.03835453381630
