16
Coordinates from ORCA-job run
  C   -0.87235717647704      0.12552079067614      0.23826499608726
  C   0.59966112448625      0.16109672371725      0.66485189720391
  Cl  -1.92394014572505      0.59871950816325      1.58099907206179
  H   0.78721957752733      1.16327243298369      1.05932331105610
  N   -1.01945696359701      1.28026436887235     -0.81852089557509
  O   -1.52127763584022      0.97186029905888     -1.89349139363609
  O   -0.59656078184381      2.38303218345291     -0.49967834338866
  N   -1.27009882003180     -1.12411421266837     -0.25633149846235
  H   -2.26157252541207     -1.14920385102499     -0.45661629204037
  H   -0.75749847797837     -1.37233235092794     -1.09263419847851
  C   1.55415844782806     -0.11331802969392     -0.50307224092847
  H   2.58344471749890     -0.00159283572424     -0.15962077323368
  H   1.39371443061024      0.59727445625806     -1.31605578041602
  H   1.44361770691139     -1.13203614254852     -0.87877367680174
  C   0.81288672512394     -0.80806861632059      1.73863054171635
  N   1.04805979691925     -1.58037472427391      2.59072527483559
