16
Coordinates from ORCA-job run
  C   -0.72266184928775      0.15904607540292     -0.17577784902582
  C   0.72910490470079     -0.32268110228570     -0.10511691725153
  Cl  -0.76467119977262      1.89458306050872     -0.70661487728191
  H   0.67592157976518     -1.41405594524110     -0.04087727627892
  N   -1.48924621055360     -0.60503066810624     -1.26560872774437
  O   -2.70062989343331     -0.43151901524330     -1.27719532138744
  O   -0.84570898404420     -1.32506809522783     -2.01729410081029
  N   -1.42085263384752     -0.10403334244637      1.01840885443237
  H   -1.06565723393967      0.45435857575944      1.78318480354840
  H   -2.40836116173646      0.08836563168712      0.89081977805014
  C   1.45019410084031      0.22447693498929      1.13202219754829
  H   2.49740203355700     -0.07820397396637      1.10372442480653
  H   1.00979491670975     -0.18343507440888      2.04263983462549
  H   1.41306397106482      1.31480519831918      1.15518521402882
  C   1.48165378534396      0.02147174418610     -1.31184879791126
  N   2.16165387463331      0.30791999607301     -2.22465123934848
