16
Coordinates from ORCA-job run
  C   -0.86895082352384      0.32252052763804      0.18720668504401
  C   0.55526246809174     -0.15814833929817      0.58445697677120
  Cl  -1.17714821424743      1.85464070861789      1.00285618176670
  H   0.58305276985986     -0.08871320958904      1.67807878849936
  N   -0.83060839969031      0.54050494229622     -1.33336861966606
  O   -0.65807337742998      1.66325897757378     -1.77997144824620
  O   -0.90929467329286     -0.50337638888858     -1.97438364430413
  N   -1.95739984867476     -0.55977357563133      0.43547323794294
  H   -1.79327939883852     -1.46559327060128      0.01273040674780
  H   -2.13022821841152     -0.65162477797782      1.42751006884373
  C   1.69100009785870      0.67958027051485     -0.00875229694108
  H   1.75455085916306      0.53986572794859     -1.08882337798320
  H   1.53465543791059      1.73753509002957      0.20133857988831
  H   2.64074184036713      0.37022887523981      0.42998300451802
  C   0.71471573832795     -1.57253595388462      0.24166508277917
  N   0.85100374253015     -2.71036960398790     -0.01599962566056
