14
Coordinates from ORCA-job run
  C   -0.41535093133070     -0.15380171961530     -0.43292657759441
  C   0.86704196529625     -0.15407673846314      0.44812483860445
  Cl  0.04266878120170      0.24278817628626     -2.11259819744133
  H   0.55925388651829     -0.43829121234040      1.46373525453931
  C   -0.98058054410636     -1.50313032955934     -0.40106460938813
  N   -1.45247879608241     -2.57720929036696     -0.32892558041928
  C   -1.42923825763856      0.86442022483061      0.07604485280492
  H   -2.32793272543746      0.82371992325526     -0.53974041176699
  H   -1.69983131010813      0.63741506442506      1.11067982096523
  H   -1.00814839805170      1.86913913527662      0.01931129292088
  C   1.45579910625028      1.18658923154428      0.51004381868496
  N   1.90342255639531      2.26994939755686      0.57868147038730
  C   1.85052646940543     -1.13499176860610     -0.01814768926598
  N   2.63584819768805     -1.93252009422372     -0.37321828303093
