14
Coordinates from ORCA-job run
  C   -0.41983569164216     -0.15470240585686     -0.42725468238058
  C   0.87729154824571     -0.14571861363686      0.43268063631807
  Cl  0.00420263242798      0.27083589118400     -2.10868452636597
  H   0.59085726376587     -0.44708325123724      1.44953434934932
  C   -0.96227057447433     -1.51363057309741     -0.40445483971691
  N   -1.41597952176317     -2.59622989385488     -0.34606068544987
  C   -1.44108917815075      0.84050987584026      0.11136941271218
  H   -2.34903350391268      0.79352148499244     -0.49019855553146
  H   -1.03680532699368      1.85243792999770      0.06065837950386
  H   -1.69093974705595      0.59634770437740      1.14728947504791
  C   1.44565888851386      1.20337369381347      0.50155452140033
  N   1.87552976915700      2.29313107435887      0.58025921313662
  C   1.86652760243568     -1.10606527292295     -0.06321320333233
  N   2.65588583944663     -1.88772764395795     -0.44347949469115
