14
Coordinates from ORCA-job run
  C   -0.44474982917129     -0.12785643500339     -0.58268402750716
  C   1.06345522235663     -0.17813951850827     -0.19303508956519
  Cl  -0.53564314948002      0.58621895362658     -2.22093742921232
  H   1.59354603205726     -0.74275755290210     -0.96933129420028
  C   -0.94062527947354     -1.50276025606854     -0.64878104342791
  N   -1.33877736830640     -2.60829115039394     -0.67782500429897
  C   -1.26670003406662      0.70479526151976      0.39073109762271
  H   -2.30919855452479      0.71587400297988      0.07170539094482
  H   -1.20764386039145      0.27383069044284      1.39308925868724
  H   -0.89203621658265      1.72949139502074      0.40914459266443
  C   1.23142884547664     -0.86322852104768      1.09258373832556
  N   1.34511308461070     -1.41707014373516      2.12212796390309
  C   1.62899394385741      1.17258994141536     -0.12535684523697
  N   2.07383716363811      2.25730333265391     -0.06143130869905
