14
Coordinates from ORCA-job run
  C   -0.45683404712058     -0.10405812305692     -0.57720231110470
  C   1.05250609193435     -0.22406388789756     -0.20677639945101
  Cl  -0.53624596105178      0.62646387744288     -2.20876388518356
  H   1.54667977893304     -0.80852467517527     -0.99196682450283
  C   -1.01317285875032     -1.45543587043336     -0.64784320853626
  N   -1.46019562599803     -2.54200056492142     -0.68234714315591
  C   -1.22919923479924      0.75590950630244      0.41278971474646
  H   -2.27490516294851      0.81233957311233      0.10908527331083
  H   -0.81202806539331      1.76424413664214      0.43150971621366
  H   -1.17367185301436      0.31639572577533      1.41168605586881
  C   1.20369410662344     -0.92080974813370      1.07457607650894
  N   1.29814332173919     -1.48081468847131      2.10271829278680
  C   1.67948211884490      1.09942783312339     -0.14191595047970
  N   2.17574739100120      2.16192690569103     -0.08354940702154
