14
Coordinates from ORCA-job run
  C   -0.42023649725490     -0.14919517801843     -0.42712990662304
  C   0.87618527653922     -0.15592859255598      0.43366892669365
  Cl  0.00858113221145      0.27906399763894     -2.10654945287407
  H   0.58644660032276     -0.45919769966948      1.44895995917419
  C   -0.97748423767269     -1.50212508943486     -0.41031110552538
  N   -1.44875015442370     -2.57740025810384     -0.35388680707511
  C   -1.43242326414653      0.85354707996867      0.11491733858062
  H   -1.68304457915853      0.60916689909073      1.15083780675597
  H   -2.34165364617272      0.81513242850308     -0.48568141918364
  H   -1.01948735153919      1.86220224328007      0.06575078196889
  C   1.45691153367679      1.18761944592258      0.50748216002238
  N   1.90241445853073      2.27132454169480      0.58273013569975
  C   1.85695149859392     -1.12262122057503     -0.06669817568825
  N   2.63658923049338     -1.91058859774124     -0.45409024192597
