14
Coordinates from ORCA-job run
  C   -0.46691296090880     -0.11432279967220     -0.56614307567019
  C   1.05449615545469     -0.18460337559068     -0.23607596892051
  Cl  -0.61376021572839      0.63091338484745     -2.18656618205197
  H   1.54853724557159     -0.74182594641214     -1.04100538747009
  C   -0.97954291782909     -1.48268075774153     -0.63915885205329
  N   -1.39591136737922     -2.58128417177039     -0.67666913630792
  C   -1.24335507894580      0.70704572734910      0.45316282130515
  H   -2.29696734048377      0.73317497789212      0.17418711912590
  H   -0.85852186156892      1.72786012083209      0.47658702051642
  H   -1.15068461419868      0.25646806727276      1.44424203435083
  C   1.26515272533522     -0.89115930189195      1.03136899697099
  N   1.40766822078374     -1.46173140010886      2.04808348512242
  C   1.63535544479650      1.15967270414694     -0.17106092215072
  N   2.09244656510094      2.23947277084729     -0.10995195276704
