14
Coordinates from ORCA-job run
  C   -0.43585354982890      0.14424888794065     -0.41583341639174
  C   0.92715509443514     -0.26131617579207      0.21559709147249
  Cl  -0.25349307517899      1.73912059175095     -1.19762484503317
  H   0.79305412199510     -1.25870904411235      0.65621311297184
  C   -0.76849273943148     -0.84894573816578     -1.43788205467345
  N   -1.05020817631471     -1.67169240781420     -2.22835727672951
  C   -1.53052457188589      0.21423261228697      0.64250856456624
  H   -1.28597637183968      0.97963770676451      1.38036762578465
  H   -2.47909455360084      0.47058167049757      0.17031098196765
  H   -1.63364272728443     -0.75447872886900      1.13860777516570
  C   1.30097101459611      0.66269774093738      1.29006689181727
  N   1.58740797076924      1.38143145048353      2.17338801871947
  C   1.98875562125932     -0.34969417987506     -0.79053862808142
  N   2.83794194231002     -0.44511438603310     -1.59582384155601
