14
Coordinates from ORCA-job run
  C   -0.40846908872606     -0.15753431973223     -0.43891415258993
  C   0.85705357914265     -0.15388646975367      0.46668638270326
  Cl  0.08477426173677      0.20719733008659     -2.11562200661732
  H   0.52740700530697     -0.41983553199652      1.48033930958820
  C   -0.98510417458286     -1.50167332428346     -0.39485227681162
  N   -1.47010209611777     -2.56912511706113     -0.31145452364348
  C   -1.42296077007971      0.87728585781398      0.03381880138656
  H   -0.99266344344509      1.87748766361016     -0.03429939011381
  H   -2.31153363299273      0.83212240017742     -0.59633727555342
  H   -1.71267820335720      0.67180991087985      1.06791987912087
  C   1.45568314735526      1.18279366574762      0.51915716183393
  N   1.91129177880542      2.26312825336242      0.58166198064447
  C   1.84063141679657     -1.15006424918053      0.03413265392711
  N   2.62567022015780     -1.95970606967048     -0.29323654387483
