14
Coordinates from ORCA-job run
  C   -0.44420329069415     -0.12702125900861     -0.58168418075856
  C   1.06162747251976     -0.19959216026200     -0.18560664726790
  Cl  -0.51694481519843      0.57171319525675     -2.22769638972427
  H   1.58377652935023     -0.78630181539745     -0.95084822243530
  C   -0.96363777344331     -1.49374715453514     -0.63714517327129
  N   -1.38039649889324     -2.59248422197152     -0.66028413663200
  C   -1.25505538996603      0.72969047400786      0.37999215791416
  H   -0.86146204210789      1.74736415433021      0.39083414135898
  H   -1.20901606901548      0.30721807853588      1.38657098705443
  H   -2.29558474332126      0.75711425422079      0.05573407598196
  C   1.20949704340061     -0.86755640102483      1.11140011022163
  N   1.30114891949767     -1.40632795051052      2.15103979031260
  C   1.65223362776823      1.14121029563745     -0.13821038301561
  N   2.11901703010330      2.21772051072114     -0.09509612973882
