14
Coordinates from ORCA-job run
  C   -0.42714758187433      0.05420607108213     -0.51727380843414
  C   0.95818381041644      0.38096801126866      0.11007984034423
  Cl  -0.50067143423419      0.92593540023716     -2.07867457262519
  H   1.01700122446252      1.47337543787896      0.19391018847685
  C   -0.52450485858173     -1.38201565702704     -0.77317826623356
  N   -0.61920328812785     -2.54070309861743     -0.94716009212292
  C   -1.56324394244568      0.52704561644372      0.38166378286143
  H   -1.55061862211269     -0.02004790901881      1.32661351948576
  H   -1.45813112555552      1.59688641835555      0.57569002511881
  H   -2.51778786775938      0.35263150644251     -0.11556497042701
  C   2.06299374236170     -0.07926345128421     -0.73539719014466
  N   2.95148890563113     -0.44350279005866     -1.41121656222219
  C   1.06115778605272     -0.19944868583133      1.45238097208864
  N   1.10948325176686     -0.64706686987120      2.53712713383395
