14
Coordinates from ORCA-job run
  C   -0.43427122811006     -0.12354766860412     -0.59058167211532
  C   1.05948233351706     -0.22735326722139     -0.15792917871953
  Cl  -0.45105073292639      0.55323351265370     -2.24699379152411
  H   1.58472655130378     -0.83612186643595     -0.90355534657908
  C   -0.98486082622088     -1.47823532230236     -0.63893916641654
  N   -1.42655251439519     -2.56743703488095     -0.65544669698164
  C   -1.24591437321920      0.76602077930837      0.34006480908848
  H   -2.27793089559311      0.81344537331247     -0.00819295236527
  H   -0.82834058588682      1.77416138036339      0.34564437167059
  H   -1.23248181757171      0.35713117435580      1.35320287151208
  C   1.16191769340343     -0.88247886686451      1.14990279533515
  N   1.21772199099394     -1.41196789669795      2.19681389923836
  C   1.68273501564989      1.09867712445492     -0.11228307212052
  N   2.17581938905528      2.16347257855858     -0.07070687002266
