14
Coordinates from ORCA-job run
  C   -0.41383773193762      0.05199164375512     -0.52841036323385
  C   0.95834192364701      0.37501207740923      0.12907721355978
  Cl  -0.43973534776964      0.89847214340029     -2.10494943366889
  H   1.02420832881362      1.46774596257339      0.20391111317086
  C   -0.51923425018981     -1.38760441720314     -0.76187538273469
  N   -0.62339980598119     -2.54855671990532     -0.91275763353385
  C   -1.56735649156424      0.55016392595903      0.33377315985651
  H   -1.58250858370950      0.02000225335215      1.28775581608743
  H   -1.45814308038774      1.62200133570662      0.51103534862877
  H   -2.51102240740606      0.37462440218803     -0.18293161507886
  C   2.07982801130441     -0.10309726669868     -0.68428569580996
  N   2.98258659053036     -0.48111179844254     -1.33304264665638
  C   1.02434422676206     -0.19583122183617      1.47806901054312
  N   1.04492861788833     -0.64381232025803      2.56363110887000
