14
Coordinates from ORCA-job run
  C   -0.45551485027611     -0.11244967154507     -0.57656073739478
  C   1.05160547691145     -0.23233353638001     -0.19846366464730
  Cl  -0.52569942478297      0.58662854581051     -2.22228839166615
  H   1.54589676452224     -0.83412164071499     -0.97045791574087
  C   -1.01890614056954     -1.46191532720259     -0.62293458333885
  N   -1.47259341567787     -2.54618731393181     -0.63740968591264
  C   -1.22741771189829      0.77012945251381      0.39387122274296
  H   -0.80319387943482      1.77549622543520      0.39758692036683
  H   -1.18072905480847      0.34780532452404      1.40051676251569
  H   -2.27087247290641      0.82840882461198      0.08332678124123
  C   1.19595419585567     -0.90664296044538      1.09560053426566
  N   1.28711112379643     -1.45283945564994      2.13135509256490
  C   1.68552590807584      1.08872399232088     -0.15675934301228
  N   2.18783348119284      2.14929754065336     -0.11838299198439
