14
Coordinates from ORCA-job run
  C   -0.45585199875269      0.05441157232308     -0.49258635075752
  C   0.98689391577680      0.31444770342755      0.02709954054981
  Cl  -0.56882411357747      0.82857179503731     -2.10204229802641
  H   1.12716763625682      1.40261225645283      0.03998933140801
  C   -0.67147851056809     -1.38383287994598     -0.64287688282111
  N   -0.85950234865956     -2.54104752673324     -0.72698808492262
  C   -1.49442195829815      0.66759684086105      0.43883863286789
  H   -2.48983930587524      0.52888382524951      0.01613272157295
  H   -1.30447757813125      1.73778097817880      0.54735321037680
  H   -1.45550151530876      0.18664541780752      1.41849413536206
  C   1.99973747093674     -0.27307395009234     -0.85421154434218
  N   2.81749319756454     -0.73596229540926     -1.55823674800889
  C   1.13808905892394     -0.19629780325590      1.39317189755584
  N   1.23151604971236     -0.58973593390095      2.49586243918537
