14
Coordinates from ORCA-job run
  C   -0.45912666408853     -0.12649933292728     -0.57032390385251
  C   1.05650143629019     -0.18539374030431     -0.21243404036463
  Cl  -0.57981514893594      0.58527609726366     -2.20778970574119
  H   1.56532182520510     -0.75924668195017     -0.99628897111759
  C   -0.96405155324477     -1.49863898638638     -0.62529566241059
  N   -1.36809686990736     -2.60191837861419     -0.65405705761864
  C   -1.25523985952853      0.71286315055255      0.41852576353520
  H   -1.17780567214665      0.28324210115303      1.42006466209600
  H   -0.87373376419047      1.73512937760935      0.42731618262553
  H   -2.30406295193817      0.73024049976604      0.12158250729115
  C   1.24865053809174     -0.86362114124444      1.07322618655308
  N   1.38396829537562     -1.41269345327190      2.10278972350404
  C   1.63471684248252      1.16085345439026     -0.16897078499712
  N   2.09277354653526      2.24140703396376     -0.13134489950273
