14
Coordinates from ORCA-job run
  C   -0.46862846203949     -0.10104470991806     -0.56851012222523
  C   1.05406531119959     -0.16841395537379     -0.24244821174377
  Cl  -0.62500696712183      0.68883427321612     -2.16636671954127
  H   1.55065643214809     -0.70110702056328     -1.06229561404059
  C   -0.96688641695834     -1.47227079040633     -0.67927671183204
  N   -1.36559820661398     -2.57606891282604     -0.74525631526747
  C   -1.24970340732888      0.68372842682365      0.47559759713805
  H   -1.15356396191751      0.20373551993136      1.45234134830551
  H   -0.87113759272079      1.70559936617574      0.52996796807371
  H   -2.30370710188279      0.71218074497341      0.19842325465289
  C   1.27105762191268     -0.90672787563028      1.00579706746130
  N   1.42076356853927     -1.50347136031421      2.00623045556066
  C   1.62671473451164      1.17751479765100     -0.14412203236209
  N   2.07997444827232      2.25751149626070     -0.06108196417968
