14
Coordinates from ORCA-job run
  C   -0.46776334026261      0.13052252943295     -0.46492782894687
  C   0.98073282829669      0.33101816914736      0.06465303025370
  Cl  -0.64025761267827      1.18925129199217     -1.89755616395943
  H   1.09509386976635      1.40232731903788      0.27302901291011
  C   -0.65365549451219     -1.25911072102834     -0.87956534402368
  N   -0.82397717157768     -2.38275958816815     -1.17958717098363
  C   -1.49752451333153      0.52761900746728      0.58583284128685
  H   -2.49923273139822      0.44545103366896      0.16357613973271
  H   -1.42467158464629     -0.12974526237539      1.45444586052024
  H   -1.32922713619315      1.56191161100325      0.89319914896363
  C   1.98482151545673     -0.05722084703994     -0.92965948104663
  N   2.79426790196003     -0.36081214072029     -1.72426170480445
  C   1.17765400462326     -0.41280923277415      1.31290309107356
  N   1.30573946449686     -0.98764316964359      2.32891856902388
