14
Coordinates from ORCA-job run
  C   -0.44671333523922     -0.17197927709018     -0.39110741609144
  C   0.88064383276781     -0.16090462375796      0.42175790584594
  Cl  -0.05855138236978      0.00254194784374     -2.12511217863911
  H   0.61228492452890     -0.30688860245493      1.47704193117845
  C   -1.09020891488259     -1.46866573540673     -0.17721679799648
  N   -1.62334841090145     -2.49373570108536      0.03769663388035
  C   -1.36607971157697      0.96277584808643      0.04531517194695
  H   -1.59264101009613      0.87171053057723      1.11084540332334
  H   -0.88747856943530      1.92394398518527     -0.14676732502188
  H   -2.29808371272560      0.91464136195564     -0.51798100809419
  C   1.55440633851935      1.13462817286030      0.29790399510472
  N   2.06779942701210      2.18741437537665      0.21624955033513
  C   1.77083094375625     -1.25493445582236      0.02489981371598
  N   2.47713958064263     -2.14354782626777     -0.27552567948776
