14
Coordinates from ORCA-job run
  C   -0.46111508200937      0.14449217891284     -0.46766939202356
  C   0.97898974272875      0.33125881390717      0.08952577531702
  Cl  -0.61116824387684      1.23605235947163     -1.87809677706061
  H   1.09099810862056      1.39623554447035      0.32891947299770
  C   -0.63792765707100     -1.23546267254404     -0.91748086933608
  N   -0.79428086264006     -2.35298718177992     -1.24661169225036
  C   -1.50772006637184      0.51765703029818      0.57502953756111
  H   -2.50306575379846      0.43431094846083      0.13815409781576
  H   -1.44155108603795     -0.15181508346670      1.43498748694845
  H   -1.35156067193609      1.54866062906854      0.89949482322966
  C   1.99833224312039     -0.03289921893124     -0.89864507793572
  N   2.81923570231226     -0.32213896946235     -1.68682224439239
  C   1.15601837445565     -0.44931330261862      1.31820450458961
  N   1.26681525250399     -1.06205107578668      2.31401035453942
