14
Coordinates from ORCA-job run
  C   -0.46002952730240      0.14737902573277     -0.46870852777048
  C   0.97997022628095      0.32642243777035      0.09141740286291
  Cl  -0.60371864045159      1.24451368542118     -1.87513648237998
  H   1.09434482951869      1.38993202023581      0.33617141009428
  C   -0.64227164511889     -1.23053726675933     -0.92248466631102
  N   -0.80436241149674     -2.34745892248733     -1.25070477886624
  C   -1.50623604969114      0.52089690327641      0.57445957023632
  H   -1.44851198322821     -0.15717158672072      1.42827709392569
  H   -1.34151223740122      1.54741964956113      0.90897581995768
  H   -2.50103359944745      0.45069562117616      0.13396672683303
  C   1.99968415782027     -0.03470096659684     -0.89723179954357
  N   2.82159394894420     -0.31962959081255     -1.68594574839630
  C   1.15250521917083     -0.46008969117953      1.31685525722086
  N   1.25957771240270     -1.07767131861750      2.31008872213684
