14
Coordinates from ORCA-job run
  C   -0.45775090199082     -0.11598281008963     -0.57391735809334
  C   1.05884153043269     -0.17410739519410     -0.21970481455658
  Cl  -0.58585075343520      0.63309211906698     -2.19397115791508
  H   1.57019583954249     -0.72563759341890     -1.01772723447831
  C   -0.95495163060221     -1.48939769505277     -0.65891450770476
  N   -1.35283551791341     -2.59445046238506     -0.70472979868309
  C   -1.25752380812101      0.69507013151107      0.43560479500787
  H   -0.87882035256395      1.71786094611202      0.47138615712451
  H   -2.30606459541931      0.71710437507957      0.13717162886305
  H   -1.18084666075208      0.23937256578874      1.42583513035596
  C   1.25420748905095     -0.88179488165874      1.04963286894570
  N   1.38576196709094     -1.45385781897520      2.06695377695898
  C   1.62828911653947      1.17445498307750     -0.14293529829013
  N   2.07734827814146      2.25727353613853     -0.07568418753477
