14
Coordinates from ORCA-job run
  C   -0.44590101222868     -0.10670892292598     -0.58547603312199
  C   1.05869071899143     -0.20409700575541     -0.19031611124914
  Cl  -0.51019359198899      0.63672514108045     -2.21170699681041
  H   1.57559602252044     -0.77633117651896     -0.97027656922432
  C   -0.97704410002703     -1.46675472772685     -0.67739676337469
  N   -1.40226467649537     -2.56137698587684     -0.72785941388226
  C   -1.24960929205989      0.73087991439831      0.39860191280542
  H   -2.28948018616314      0.77760808260596      0.07455995666035
  H   -0.84621499763389      1.74381380872981      0.43811375443397
  H   -1.20862554446457      0.28010217572953      1.39281982936927
  C   1.20048790921399     -0.90693096241215      1.08904256332288
  N   1.28903886215875     -1.47352890874727      2.11412363015109
  C   1.66346673930506      1.12889434816548     -0.10756150903306
  N   2.14205314887189      2.19870521925392     -0.03666825004712
