14
Coordinates from ORCA-job run
  C   -0.44256788446187     -0.13139298450510     -0.58243705164971
  C   1.05700399886835     -0.23336147678221     -0.17010944716579
  Cl  -0.48132505514695      0.52150529113579     -2.24833979467374
  H   1.56997325585349     -0.85323658709563     -0.91508119939716
  C   -0.99884692606449     -1.48455865375251     -0.60352578801927
  N   -1.44615927494177     -2.57152930257042     -0.59857006927600
  C   -1.23787983544936      0.77470434330692      0.34655692833012
  H   -2.27532046112627      0.81844359967154      0.01428935149423
  H   -0.81851265074923      1.78204085486956      0.32842825006910
  H   -1.20869875397132      0.38277219062924      1.36612183425462
  C   1.17690623783933     -0.87088327685481      1.14488803854912
  N   1.24657091297457     -1.38283286242670      2.19966251156373
  C   1.68294547998149      1.09190749031973     -0.15159844620885
  N   2.17591095639401      2.15742137405460     -0.13128511787039
