14
Coordinates from ORCA-job run
  C   -0.47359241623546     -0.09202317234003     -0.56537235550093
  C   1.04791399298738     -0.20305961223252     -0.24603318921869
  Cl  -0.61356038574608      0.68929717421826     -2.16918900537142
  H   1.52419925563051     -0.75711533437066     -1.06361462783829
  C   -1.01485699023898     -1.44795516306339     -0.66269192203910
  N   -1.45019599058527     -2.53837919205020     -0.71844825889234
  C   -1.22523433167784      0.72493303312794      0.47571185511042
  H   -0.81523049957827      1.73519076954862      0.52011164570161
  H   -2.27911076253612      0.78344782614629      0.20278385952416
  H   -1.13931471739803      0.25009058703396      1.45598313384882
  C   1.24854872413905     -0.93628233291197      1.00772194743608
  N   1.38342034672547     -1.52727588135829      2.01368043054508
  C   1.66099298777977      1.12569154329508     -0.16150466030081
  N   2.14602078673387      2.19243975495689     -0.08813885300459
