14
Coordinates from ORCA-job run
  C   -0.41656771854404      0.05016593508243     -0.52621971418976
  C   0.94926464123550      0.39444104565941      0.13358651391926
  Cl  -0.46528970754934      0.92075391097905     -2.08911112428743
  H   0.99027274109712      1.48714844328915      0.22475331870067
  C   -0.48870340379865     -1.38728265651421     -0.78368146458714
  N   -0.56324448793011     -2.54696325137516     -0.95963284954760
  C   -1.57936917735573      0.50844093451139      0.34549801892301
  H   -1.57884210007673     -0.03367357205582      1.29322654662111
  H   -2.51993265086851      0.31628355397202     -0.17120004981790
  H   -1.49561591977695      1.58061388083660      0.53573581833359
  C   2.07988822086274     -0.04544578754294     -0.68869001366977
  N   2.99163462701867     -0.39177114692314     -1.34265367886564
  C   1.03124510153670     -0.19458535084256      1.47389915676233
  N   1.06525983414931     -0.65812593907622      2.55248952170529
