14
Coordinates from ORCA-job run
  C   -0.46075097530785     -0.16887000020494     -0.37718887798839
  C   0.89301255697569     -0.16935348135069      0.39085366501559
  Cl  -0.13072437615128      0.01517022492585     -2.12212644336977
  H   0.66004108628454     -0.32817905652212      1.45255891251424
  C   -1.10329351947078     -1.46374827937665     -0.14908544599600
  N   -1.63387926784567     -2.48725496048348      0.07951761957980
  C   -1.35940871825037      0.96754784727353      0.09677165517783
  H   -2.31273390601800      0.92323214492939     -0.43043385460247
  H   -1.54481578440102      0.87529423202240      1.17037875762813
  H   -0.88527983224847      1.92769500061279     -0.11193552467361
  C   1.56438274626779      1.12688070494201      0.26147569586295
  N   2.07783321459743      2.17986040375642      0.18190273472874
  C   1.76827350474243     -1.25829719515277     -0.05066108117945
  N   2.46634327082555     -2.13897758537171     -0.39102781269759
