14
Coordinates from ORCA-job run
  C   -0.46577178258779     -0.10841865389871     -0.56827476923093
  C   1.05202255478741     -0.20243130188648     -0.22665508986821
  Cl  -0.58836083476944      0.62566943520727     -2.19563115717083
  H   1.54235103768531     -0.77044125740393     -1.02635165473656
  C   -0.99924591221280     -1.46918997284226     -0.63365531226785
  N   -1.42619191355115     -2.56374180098844     -0.66778573268393
  C   -1.23470858220421      0.73494014054398      0.43850945380459
  H   -1.15361147609625      0.29344928936614      1.43467109052869
  H   -2.28640892115699      0.77474309306041      0.15401609193370
  H   -0.83429299395773      1.74985343050275      0.45323273890785
  C   1.24188603005740     -0.91061020968699      1.04321695838707
  N   1.36988031401556     -1.49007319548518      2.05683456232652
  C   1.65488650307352      1.13208031468672     -0.16137955267967
  N   2.12956597691714      2.20417068882471     -0.09974762725044
