14
Coordinates from ORCA-job run
  C   -0.45667952151233     -0.12373253840548     -0.39842697869934
  C   0.90446888262276     -0.18385968579482      0.35380990585243
  Cl  -0.15706048837831      0.37357705984248     -2.08688060478127
  H   0.69186487375425     -0.52390995600061      1.37652443206814
  C   -1.02884427871720     -1.47066534764914     -0.39483018559224
  N   -1.50010809972876     -2.54637980242105     -0.34700214562863
  C   -1.40686502200834      0.86526233432003      0.26666291531440
  H   -0.98112698088113      1.86899456278698      0.23538641189090
  H   -1.58338036851584      0.57315017865472      1.30506995737152
  H   -2.35903074585557      0.87021195717777     -0.26406599273583
  C   1.51400941239252      1.14659542601183      0.43310628461193
  N   1.98149968813327      2.22015417664957      0.51877454466519
  C   1.82424505108935     -1.14443646893761     -0.26143145256085
  N   2.55700759760536     -1.92796189623466     -0.73869709177633
