14
Coordinates from ORCA-job run
  C   -0.44432527081398     -0.10984362041624     -0.41599307590271
  C   0.90869416418686     -0.17601086160224      0.35075410337311
  Cl  -0.14868299679589      0.55911975510640     -2.04470355204297
  H   0.70231198684445     -0.63200898569131      1.32868029524514
  C   -0.94908220736204     -1.47695653211321     -0.54894145730832
  N   -1.36971384183457     -2.57271182349719     -0.61260177808812
  C   -1.45077103361941      0.76543917356646      0.32172998537378
  H   -1.62015823422951      0.37430844183666      1.32827777895244
  H   -1.07789017049301      1.78855020713678      0.38423525484709
  H   -2.39733281220222      0.76825432646016     -0.21890031766064
  C   1.44269083628939      1.16961643243347      0.57952613512922
  N   1.84707543281645      2.25195288022939      0.78909104008208
  C   1.88748142866512     -1.01469651463607     -0.34591955090754
  N   2.66970271854835     -1.69601287881309     -0.89623486109256
