14
Coordinates from ORCA-job run
  C   -0.44860137137127      0.06583750520093     -0.49761855668837
  C   0.98430534676945      0.31413485062838      0.05395977492883
  Cl  -0.53490258833531      0.87372270689455     -2.09162364318596
  H   1.11969645253693      1.40169249088678      0.10722372528629
  C   -0.66086131284245     -1.36915560915409     -0.68049104066307
  N   -0.84728656564518     -2.52470322532984     -0.78814092894449
  C   -1.50300284598224      0.65969162953699      0.42864200336492
  H   -2.49161385099916      0.52550207453935     -0.01090763638496
  H   -1.47690909190084      0.16249950699051      1.40035359413629
  H   -1.31815897238532      1.72835665799097      0.55739555556918
  C   2.01580140945347     -0.23673909702716     -0.82968127847114
  N   2.85417000112079     -0.65844556242833     -1.53520991541216
  C   1.11464547383857     -0.24763399705704      1.40208033444668
  N   1.19171791574255     -0.69575993167198      2.48501801201796
