15

C	-0.525944	-0.130877	-1.419749
C	0.0	0.0	0.0
F	-0.00138	0.845011	-2.205587
H	1.090544	0.0	0.0
H	-0.329366	-0.861431	0.584428
N	-0.045956	-1.468968	-1.977399
O	-0.338693	-2.450835	-1.299596
O	0.506122	-1.474673	-3.068018
C	-2.031855	-0.119564	-1.565877
H	-2.47791	-0.916959	-0.971943
H	-2.290797	-0.256854	-2.618164
H	-2.411458	0.845749	-1.229367
C	-0.51512	1.2216	0.604891
N	-0.976452	2.191793	1.078643
Br	3.464092	0.0	0.0
