15

C	-0.382425	-0.055923	-1.467965
C	0.0	0.0	0.0
F	-0.080965	-1.314461	-1.936014
H	1.093315	0.0	0.0
H	-0.375434	-0.888899	0.507762
N	-1.906736	0.012952	-1.610623
O	-2.380277	0.694729	-2.518488
O	-2.553623	-0.682153	-0.827409
C	0.302407	0.978954	-2.311499
H	0.001904	1.981429	-2.002128
H	0.056045	0.838003	-3.363367
H	1.376194	0.85829	-2.149241
C	-0.514711	1.206615	0.635008
N	-0.929468	2.190961	1.124412
Br	3.478026	0.0	0.0
