15

C	-0.451255	-0.141029	-1.444807
C	0.0	0.0	0.0
F	-1.811534	-0.353851	-1.510484
H	1.091132	0.0	0.0
H	-0.378655	0.931909	0.425181
N	-0.248993	1.225239	-2.10094
O	-1.054455	2.097484	-1.777321
O	0.690116	1.356871	-2.882386
C	0.279298	-1.210241	-2.203545
H	1.354344	-1.041375	-2.129752
H	-0.034795	-1.215191	-3.248972
H	0.034828	-2.170902	-1.747688
C	-0.487931	-1.126014	0.786224
N	-0.894826	-2.029684	1.414907
Br	3.461119	0.0	0.0
