15

C	-0.46657	-0.062804	-1.44986
C	0.0	0.0	0.0
F	-1.782384	-0.43402	-1.52593
H	1.090548	0.0	0.0
H	-0.366364	0.901337	0.495809
N	-0.396062	1.340777	-2.040804
O	0.622762	1.975035	-1.794092
O	-1.32257	1.702981	-2.759029
C	0.384893	-0.959709	-2.308329
H	1.427881	-0.649453	-2.230764
H	0.297395	-1.98012	-1.935371
H	0.036682	-0.920696	-3.342362
C	-0.477062	-1.178133	0.715563
N	-0.87956	-2.121822	1.286772
Br	3.493253	0.0	0.0
