19

C	0.0	0.0	0.0
C	-0.422304	0.098459	-1.493144
F	1.388488	0.0	0.0
H	-1.484806	-0.155105	-1.525279
C	-0.444695	1.228477	0.76949
H	-0.205494	1.052482	1.819822
H	0.101429	2.10788	0.425668
H	-1.521118	1.371688	0.66467
N	-0.469424	-1.170233	0.671987
H	-0.371496	-1.975334	0.062226
H	-1.471939	-1.033314	0.810729
N	0.294475	-0.990433	-2.232087
O	-0.13118	-2.140846	-2.092242
O	1.277575	-0.699151	-2.912672
C	-0.135493	1.431723	-2.149655
H	-0.81884	2.176242	-1.74062
H	0.895371	1.742263	-1.978752
H	-0.303389	1.371782	-3.226988
Cl	-3.656792	0.0	0.0
