19

C	0.0	0.0	0.0
C	-0.261475	-0.263147	-1.521981
F	1.403091	0.0	0.0
H	0.598858	0.21246	-1.999863
C	-0.394715	1.371229	0.512357
H	0.040002	2.164236	-0.094496
H	-0.010252	1.452754	1.535366
H	-1.480479	1.459682	0.519501
N	-0.48033	-1.090424	0.791371
H	-0.32767	-0.852483	1.766808
H	-1.498231	-1.089256	0.658178
N	-1.397562	0.471546	-2.198078
O	-2.151743	-0.169356	-2.919173
O	-1.38752	1.696478	-2.102921
C	-0.296061	-1.736803	-1.86722
H	-0.230047	-1.87448	-2.947328
H	-1.219713	-2.191221	-1.512237
H	0.547947	-2.225746	-1.380176
Cl	-3.586983	0.0	0.0
