19

C	0.0	0.0	0.0
C	-0.524391	-0.212366	-1.418887
F	1.413254	0.0	0.0
H	-1.619172	-0.184152	-1.327866
C	-0.483058	1.329687	0.537293
H	-0.078886	2.158894	-0.043764
H	-0.125876	1.435832	1.565655
H	-1.576507	1.338105	0.522708
N	-0.463458	-1.056515	0.832725
H	-0.531606	-0.775878	1.798744
H	0.116191	-1.874479	0.723888
N	-0.222277	-1.589808	-1.948087
O	-0.832737	-1.918018	-2.963285
O	0.622969	-2.294491	-1.393817
C	-0.003539	0.775135	-2.451492
H	-0.395756	0.518678	-3.435403
H	-0.341311	1.78232	-2.207172
H	1.089227	0.76079	-2.475322
Cl	-3.864446	0.0	0.0
