19

C	0.0	0.0	0.0
C	-0.379271	0.033536	-1.493108
F	1.416362	0.0	0.0
H	-0.189577	-0.962254	-1.899983
C	-0.478265	1.179545	0.811975
H	-0.049396	1.106194	1.815724
H	-1.568203	1.164127	0.879838
H	-0.144781	2.110135	0.356357
N	-0.508734	-1.20901	0.527634
H	-0.015274	-2.01287	0.162809
H	-0.517574	-1.221347	1.537272
N	0.60085	0.897244	-2.233522
O	0.594156	2.10519	-2.001354
O	1.347083	0.345412	-3.042839
C	-1.789888	0.496463	-1.779546
H	-2.02496	0.343964	-2.836251
H	-1.898585	1.55565	-1.548718
H	-2.525486	-0.041584	-1.175881
Cl	-4.747479	0.0	0.0
