19

C	0.0	0.0	0.0
C	-0.481278	-0.019082	-1.45742
F	1.405489	0.0	0.0
H	-1.566857	-0.148684	-1.432294
C	-0.428377	1.271765	0.70919
H	0.028701	2.156338	0.261002
H	-0.095323	1.208219	1.749569
H	-1.517664	1.341933	0.683693
N	-0.42786	-1.216826	0.628369
H	-1.438264	-1.28711	0.49853
H	-0.263677	-1.137276	1.626988
N	0.065592	-1.246624	-2.121291
O	-0.659845	-2.236045	-2.178766
O	1.207215	-1.185595	-2.581639
C	-0.073149	1.200871	-2.258591
H	-0.664716	2.05832	-1.935924
H	0.988741	1.410354	-2.131741
H	-0.271275	1.036853	-3.319848
Cl	-3.680267	0.0	0.0
