19

C	0.0	0.0	0.0
C	-0.429698	0.019914	-1.491839
F	1.401603	0.0	0.0
H	-1.475898	-0.297453	-1.508433
C	-0.449056	1.254777	0.717599
H	0.064925	2.128545	0.315239
H	-0.179009	1.13724	1.768456
H	-1.531156	1.365726	0.63096
N	-0.447329	-1.146103	0.729422
H	-1.454017	-1.029754	0.85627
H	-0.320661	-1.976866	0.16146
N	0.354634	-1.047721	-2.193332
O	0.03864	-2.219574	-1.971061
O	1.287001	-0.714584	-2.923762
C	-0.242721	1.343577	-2.201375
H	-0.971626	2.052312	-1.807922
H	0.767806	1.729001	-2.062367
H	-0.422785	1.229278	-3.271833
Cl	-3.647346	0.0	0.0
