19

C	0.0	0.0	0.0
C	-0.253366	-0.006533	-1.536003
F	1.399384	0.0	0.0
H	0.105459	-0.976787	-1.890501
C	-0.519774	1.205978	0.738744
H	-0.12608	2.121013	0.301095
H	-1.61241	1.213942	0.69467
H	-0.201085	1.126247	1.780102
N	-0.481546	-1.188935	0.629223
H	-1.476354	-1.080854	0.816781
H	-0.361603	-1.993804	0.024545
N	0.691419	0.95102	-2.210568
O	0.531476	2.154166	-2.014466
O	1.555559	0.474439	-2.946394
C	-1.646692	0.281724	-2.033341
H	-1.962224	1.286864	-1.759806
H	-2.377014	-0.391431	-1.589276
H	-1.668416	0.180701	-3.122216
Cl	-4.193903	0.0	0.0
