19

C	0.0	0.0	0.0
C	-0.46432	0.100648	-1.461442
F	1.415542	0.0	0.0
H	-1.531772	-0.139221	-1.460117
C	-0.429828	1.213786	0.797921
H	0.061824	2.120297	0.44461
H	-0.134319	1.046863	1.837357
H	-1.517517	1.300078	0.736639
N	-0.437818	-1.204361	0.627879
H	-1.034564	-0.982647	1.413372
H	-0.982198	-1.77819	-0.000607
N	0.212691	-0.986852	-2.241785
O	1.137759	-0.681344	-2.991298
O	-0.192196	-2.137596	-2.074477
C	-0.209323	1.434343	-2.123822
H	-0.445878	1.373891	-3.187936
H	-0.861791	2.180614	-1.672449
H	0.833688	1.735008	-2.014774
Cl	-3.691984	0.0	0.0
