16

C	-0.047477	-0.028214	-0.02151
C	-0.389524	-0.233742	-1.495305
F	1.386185	0.032484	0.019729
H	-0.030834	0.653141	-2.033025
H	-1.481686	-0.243215	-1.561956
N	-0.57237	1.185374	0.511646
H	-0.444222	1.921584	-0.179184
H	-1.611582	1.037318	0.578213
C	-0.475302	-1.178118	0.858508
H	-1.56937	-1.219081	0.846648
H	-0.039128	-2.120589	0.518166
H	-0.138281	-0.97583	1.876552
N	0.173664	-1.421419	-2.146669
H	-0.306923	-2.240114	-1.793374
H	1.139157	-1.498096	-1.845869
H	-3.235409	0.470033	0.361314
