17
Coordinates from ORCA-job run
  C   -0.54016411962496     -0.01813883544301     -0.43991671386159
  C   0.77644616687201      0.07697739468086      0.33116315355222
  F   -0.30846733402849     -0.18993524607796     -1.75785355726634
  H   0.54163115286077      0.27634807679665      1.38252168498397
  N   -1.16408001349326      1.37970993174960     -0.28116344130051
  O   -1.32765271391354      1.75541340876663      0.87644855303092
  O   -1.46036587017901      1.99079078116600     -1.29814883777167
  C   -1.56603917213795     -1.00119792082742      0.06559549150554
  H   -2.48436844693823     -0.86525317647437     -0.50931727316721
  H   -1.20247047333249     -2.01467358509831     -0.08134183593640
  H   -1.77763000914150     -0.82293011753026      1.11975532725674
  N   1.67917754015631      1.00247588818690     -0.29486334517228
  H   1.21966246210023      1.85523216116882     -0.58329681980723
  H   2.43788339101119      1.22686735259271      0.33491318773874
  N   1.52359469864046     -1.24065185199668      0.36298429357901
  O   1.12033100199107     -2.19886049796682     -0.28570391485283
  O   2.53451173915736     -1.21217376369334      1.05822404748892
