17
Coordinates from ORCA-job run
  C   -0.70139852518961     -0.33978150171458     -0.31828406522153
  C   0.82541144862546     -0.48373228098763     -0.21498200851105
  F   -1.17386424520955     -1.55038325777547     -0.72523221543499
  H   1.17638237067024     -0.91240140964383     -1.15465656957772
  N   -0.97834285175448      0.62625424303977     -1.46660811628213
  O   -0.88833725224236      0.16437975102278     -2.59670290210724
  O   -1.22481024379530      1.78944076725308     -1.16211157657411
  C   -1.40906587343355      0.09238783146457      0.93356978718235
  H   -2.47248121094615      0.20980503549918      0.72381983138636
  H   -1.28406611765451     -0.69410243484160      1.67813664264480
  H   -1.01590319902167      1.03391672575696      1.31031221659871
  N   1.17628410734371     -1.28946426349445      0.89434262071846
  H   1.11650509939054     -0.76167805303843      1.75641092376818
  H   2.11119638508865     -1.66119081108052      0.79641960687091
  N   1.43558173335667      0.91996071835344     -0.16569302882787
  O   1.55134843981130      1.43004351497082      0.94690424757897
  O   1.75655993496059      1.42554542521592     -1.23664539421209
