17
Coordinates from ORCA-job run
  C   -0.63705063029951     -0.37024309768662     -0.21641775747021
  C   0.88261761105734     -0.33125884855013     -0.02459221317044
  F   -0.97374550814808     -1.70197252263194     -0.06904119794726
  H   1.34828979892293     -0.81360716456657     -0.89300561038111
  N   -0.97977593472824     -0.07130644611761     -1.67167828296794
  O   -1.91016574876611      0.69151331961117     -1.89759747796291
  O   -0.31792943295214     -0.68058032813749     -2.50621181222380
  C   -1.43493889231307      0.46412986316193      0.73632764821733
  H   -1.10673511815940      0.22227445100380      1.74698398321416
  H   -1.29314728608235      1.52500079713164      0.54018227882219
  H   -2.49182218859846      0.22799562236564      0.62031954856253
  N   1.20385518520126     -0.88272993012478      1.26218233330320
  H   1.03596112060979     -1.88023301240392      1.24646485478817
  H   2.17782335886105     -0.70887995523459      1.47468526848101
  N   1.36911924654546      1.09192865106257     -0.08218381879064
  O   2.30976246069970      1.39988529451423      0.64002718325716
  O   0.81988195814983      1.81908330660267     -0.90544492773144
