17
Coordinates from ORCA-job run
  C   -0.56551174776970      0.03513527448775     -0.35366373915193
  C   0.78130789950111      0.23720234821213      0.34010866606973
  F   -0.33360242904310     -0.20057802424046     -1.67573660195687
  H   0.61517115102026      0.51317301721689      1.38021063719684
  N   -1.26294467577780      1.38796877005368     -0.25112660217727
  O   -1.57670300164289      1.94960953916676     -1.28748462216453
  O   -1.46759266942358      1.77191757161869      0.89530887267634
  C   -1.48763947357601     -1.01625649923774      0.20259655905466
  H   -1.05984948434638     -2.00488159028921      0.04051531456249
  H   -1.64885179064436     -0.86354641848640      1.26813001262964
  H   -2.44087742671805     -0.95571255168289     -0.32605654779603
  N   1.52813628457582      1.21225591949613     -0.35183499701336
  H   2.37701074498253      1.46108429107820      0.13578830813126
  H   1.74531855331795      0.91174468455957     -1.29271976640384
  N   1.44485756837683     -1.14471565469157      0.40881594090961
  O   2.20746983587976     -1.44605866682053     -0.50388340869025
  O   1.14330066128760     -1.84734201044100      1.37103197412351
