17
Coordinates from ORCA-job run
  C   -0.60878323197492     -0.38278118694074     -0.37752328310900
  C   0.79535033087785     -0.43132274431081      0.23559698853769
  F   -0.74268910961517     -1.39057166279831     -1.27976181631774
  H   1.04023517226943     -1.49270426771147      0.33866599847618
  N   -0.79235325499336      0.92714847933724     -1.12619380322850
  O   -0.33285027298186      1.91448840012526     -0.55356242676127
  O   -1.42252973158987      0.91004005554509     -2.16873981059357
  C   -1.71874404253937     -0.47976376882725      0.63939866283959
  H   -1.69877383381805      0.36426447781052      1.32468077511435
  H   -2.66816685836054     -0.51197747113747      0.10118999617009
  H   -1.59778028041516     -1.39914469000756      1.21311514771700
  N   0.89532203133415      0.21624415763756      1.48763709908350
  H   0.79004300078928      1.21648911384422      1.37146629874243
  H   1.79107904095867      0.02747348159553      1.91576077575192
  N   1.83248323341604      0.06733795445551     -0.79924426305143
  O   1.56945815024994     -0.08564954490575     -1.98613648369620
  O   2.86869965639294      0.52942921628844     -0.33634985567505
