17
Coordinates from ORCA-job run
  C   -0.61171675476485     -0.22604474953528     -0.31788143240559
  C   0.84301239827813     -0.46101597003512      0.12396833639031
  F   -0.85795570772481     -1.07174858912762     -1.35659707986908
  H   0.90929326404552     -1.51405886610564      0.40204847582102
  N   -0.80952481929828      1.18929976353454     -0.84418661778792
  O   -0.64576439579427      2.07778892263774     -0.01015589746515
  O   -1.14140142924773      1.33106452619154     -2.00836094853570
  C   -1.60976112552273     -0.45952682996977      0.78653905123452
  H   -1.51336137959748     -1.48648252901192      1.14379722787528
  H   -2.61797226762894     -0.32138245568699      0.39155374646158
  H   -1.44879319761447      0.23527175007552      1.60817538625185
  N   1.39063808249087      0.36484893692139      1.13851644257683
  H   1.03739741722159      1.31034937217389      1.11194358758159
  H   1.31162265818602     -0.04075850212229      2.05716044980610
  N   1.70845706104645     -0.34604549620130     -1.11416251086180
  O   2.28188946583166     -1.35722699707682     -1.50254614629105
  O   1.77494073009333      0.77466771333814     -1.60981207078280
