17
Coordinates from ORCA-job run
  C   -0.62355720659745     -0.38372354230110     -0.18518005267093
  C   0.91910744624959     -0.42967769753550     -0.11645111818709
  F   -1.01978091026431     -1.69238186866685     -0.07924634633852
  H   1.25717728726525     -1.02438188372527     -0.96654087478677
  N   -0.99154761502541      0.05464730644072     -1.59596023206816
  O   -0.82608483360196     -0.77965867515334     -2.47749609100433
  O   -1.37342526009874      1.21240445792944     -1.73842596434375
  C   -1.33541204536939      0.44468539878921      0.84339507924100
  H   -1.04944281634042      1.49147134976526      0.78576864974933
  H   -1.09956847310611      0.05475300006283      1.83413587189849
  H   -2.41130175721854      0.36065005329059      0.68618071523488
  N   1.47957584727520     -0.93342427215280      1.09319602728342
  H   1.24160916951283     -1.90821315867082      1.21555098582056
  H   1.19424140890527     -0.39200792418573      1.89785006709368
  N   1.43171100867909      0.96310552897897     -0.34335481142244
  O   1.67301838260475      1.28412567360841     -1.50343304884291
  O   1.53268036713035      1.67862625352598      0.65001114334354
