16

C	-0.024791	-0.008891	-0.011808
C	-0.295594	0.13495	-1.507379
F	1.354919	-0.262489	0.120907
H	-0.156176	-0.85134	-1.954854
H	0.522744	0.771466	-1.867162
C	-0.422186	1.1636	0.828423
H	-1.51924	1.134335	0.846478
H	-0.034516	2.078607	0.37031
H	-0.013389	1.053624	1.832218
N	-0.616997	-1.291252	0.57118
O	-0.862646	-2.214805	-0.195711
O	-0.646672	-1.368075	1.79433
N	-1.581363	0.684951	-1.89582
H	-2.271176	0.310986	-1.200953
H	-1.55607	1.6817	-1.706957
F	-2.844779	-0.061406	0.256719
