16

C	0.024825	-0.023515	-0.02295
C	-0.831035	-0.501435	-1.185454
F	1.304588	0.252982	-0.447789
H	-0.241153	-1.258438	-1.718596
H	-1.729223	-0.950768	-0.747594
C	-0.559877	1.152718	0.709942
H	-1.655059	1.064858	0.721548
H	-0.11217	1.261569	1.70108
H	-0.328317	2.027784	0.101421
N	0.173805	-1.211506	0.921387
O	1.210566	-1.871265	0.871618
O	-0.785765	-1.461424	1.646073
N	-1.163528	0.640565	-2.02605
H	-2.050376	0.972546	-1.570748
H	-1.403049	0.285803	-2.945072
F	-3.195296	0.93877	-0.421973
