16

C	-0.000622	-0.020893	-0.018445
C	-0.833829	-0.316953	-1.264107
F	1.265103	0.381974	-0.412768
H	-1.76005	-0.779262	-0.921674
H	-0.253683	-1.033346	-1.865335
C	-0.605403	0.991834	0.919718
H	-1.704878	0.962909	0.830356
H	-0.298832	1.976178	0.560947
H	-0.233069	0.855276	1.938195
N	0.208362	-1.340915	0.702317
O	-0.778356	-1.801638	1.272026
O	1.305723	-1.890451	0.632759
N	-1.213555	0.856455	-2.01739
H	-0.437681	1.506801	-2.062528
H	-2.008565	1.24818	-1.461365
F	-3.141627	1.188431	-0.273307
