12

C	-0.541722	0.015414	-1.424677
C	0.0	0.0	0.0
F	-0.130026	1.174473	-2.06776
H	1.092482	0.0	0.0
H	-1.643086	0.091519	-1.412485
H	-0.325345	-0.917632	0.503103
N	-0.034003	-1.100714	-2.163887
H	-0.524107	-1.193244	-3.052369
H	-0.10568	-1.967569	-1.629034
C	-0.522095	1.1368	0.752185
N	-0.974276	2.041155	1.348888
Br	3.525811	0.0	0.0
