12

C	-0.519833	-0.009738	-1.424494
C	0.0	0.0	0.0
F	-1.936386	-0.161191	-1.376907
H	1.091858	0.0	0.0
H	-0.157626	-0.884411	-1.967378
H	-0.335326	0.916042	0.498869
N	-0.144685	1.164728	-2.111254
H	-0.443735	1.993246	-1.615108
H	-0.51601	1.173285	-3.05052
C	-0.506582	-1.142948	0.753796
N	-0.926311	-2.058932	1.354929
Br	3.570682	0.0	0.0
