12

C	-0.519414	0.009575	-1.426078
C	0.0	0.0	0.0
F	-0.079726	-1.159916	-2.060397
H	1.091813	0.0	0.0
H	-0.065047	0.83552	-1.975237
H	-0.326191	0.922361	0.489066
N	-1.937982	0.12101	-1.479981
H	-2.351898	-0.663962	-0.990638
H	-2.245177	0.084847	-2.445807
C	-0.543353	-1.136379	0.736161
N	-1.040853	-2.046403	1.285452
Br	3.585011	0.0	0.0
