12

C	-0.423785	0.051227	-1.476232
C	0.0	0.0	0.0
F	-0.457962	1.40456	-1.822209
H	1.093102	0.0	0.0
H	-1.442459	-0.323094	-1.62281
H	-0.377235	0.861678	0.553699
N	0.458155	-0.641286	-2.348353
H	1.41337	-0.636786	-1.999884
H	0.148288	-1.586205	-2.519549
C	-0.479693	-1.235307	0.606605
N	-0.900975	-2.235882	1.0526
Br	3.537572	0.0	0.0
