12

C	-0.517721	0.010803	-1.427812
C	0.0	0.0	0.0
F	-0.129822	-1.188728	-2.046347
H	1.091856	0.0	0.0
H	-0.024425	0.80937	-1.98606
H	-0.322063	0.925294	0.486321
N	-1.931745	0.186374	-1.484655
H	-2.240822	0.147723	-2.448238
H	-2.384823	-0.566558	-0.97806
C	-0.551682	-1.132315	0.736097
N	-1.056244	-2.039765	1.283891
Br	3.562283	0.0	0.0
