12

C	-0.407632	0.095017	-1.463587
C	0.0	0.0	0.0
F	-1.794028	0.30116	-1.522561
H	1.092982	0.0	0.0
H	-0.227007	-0.852258	-1.977117
H	-0.333346	0.913674	0.504747
N	0.272085	1.15103	-2.140803
H	1.029085	0.777531	-2.696397
H	0.692019	1.792364	-1.48023
C	-0.563677	-1.152338	0.687054
N	-1.023747	-2.076958	1.244737
Br	3.525327	0.0	0.0
