16

C	0.0	0.0	0.0
C	-0.237066	0.03109	-1.566967
Br	1.929406	0.0	0.0
H	0.345509	-0.837954	-1.898545
N	-0.448456	1.211664	0.743996
O	-0.49315	2.270721	0.109605
O	-0.497373	1.112104	1.971911
C	-0.584632	-1.192036	0.574979
N	-0.677581	-2.298701	0.991063
C	0.404214	1.188512	-2.207183
N	0.858821	2.028284	-2.892114
C	-1.630952	-0.120393	-2.186628
H	-2.116073	-1.030398	-1.837966
H	-1.49211	-0.182481	-3.276238
H	-2.266167	0.731823	-1.952351
H	-1.928641	0.0	0.0
