16

C	0.0	0.0	0.0
C	-0.236531	-0.022024	-1.567776
Br	1.92933	0.0	0.0
H	0.345714	-0.901948	-1.868943
N	-0.4497	1.236602	0.701204
O	-0.503746	1.179614	1.931677
O	-0.495178	2.273138	0.030692
C	-0.590009	-1.170946	0.611224
N	-0.679652	-2.266947	1.056284
C	0.405872	1.112358	-2.247418
N	0.85568	1.9347	-2.956795
C	-1.630755	-0.19141	-2.182393
H	-2.118565	-1.086816	-1.801106
H	-2.262705	0.670459	-1.978364
H	-1.491213	-0.292174	-3.269092
H	-1.928782	0.0	0.0
