16

C	0.0	0.0	0.0
C	-0.325177	0.077168	-1.521235
Br	1.940525	0.0	0.0
H	0.44043	0.720442	-1.967337
N	-0.396776	1.256123	0.714198
O	-0.474847	1.210025	1.942324
O	-0.378679	2.287047	0.033715
C	-0.527394	-1.156848	0.686206
N	-0.599059	-2.205965	1.232063
C	-1.625785	0.679772	-1.837284
N	-2.502183	1.1815	-2.452782
C	-0.264954	-1.320112	-2.141482
H	0.688499	-1.801224	-1.918517
H	-1.074184	-1.934109	-1.741265
H	-0.384185	-1.242501	-3.2247
H	-1.94687	0.0	0.0
