20

C	0.0	0.0	0.0
C	-0.530967	-0.105467	-1.431873
F	1.399967	0.0	0.0
H	-1.630869	-0.163953	-1.311653
C	-0.491097	1.293646	0.613547
H	-0.178179	1.332813	1.660825
H	-0.076382	2.163141	0.098436
H	-1.589801	1.283194	0.557381
C	-0.469097	-1.177061	0.829512
H	-0.133197	-1.044036	1.861845
H	-1.566838	-1.18875	0.790259
H	-0.064261	-2.117309	0.449919
N	-0.088715	-1.406501	-2.023792
O	1.023851	-1.450076	-2.557373
O	-0.851	-2.370026	-1.938348
C	-0.085538	1.016419	-2.350952
H	-0.348998	0.786088	-3.385948
H	-0.598442	1.93728	-2.072231
H	0.993553	1.161512	-2.292763
H	-3.289469	0.0	0.0
