20

C	0.0	0.0	0.0
C	-0.353148	-0.04058	-1.510062
F	1.403916	0.0	0.0
H	-0.204547	-1.063032	-1.859452
C	-0.485583	1.247701	0.702419
H	-1.580245	1.236031	0.735321
H	-0.095809	1.25001	1.724884
H	-0.133442	2.142742	0.187247
C	-0.522521	-1.247285	0.671207
H	-0.232092	-1.249836	1.72504
H	-1.617312	-1.247184	0.605065
H	-0.114163	-2.139637	0.192697
N	0.710828	0.717291	-2.264787
O	0.732994	1.941522	-2.15282
O	1.492813	0.070297	-2.963011
C	-1.710124	0.501638	-1.889215
H	-1.690878	1.590018	-1.833773
H	-2.516139	0.166989	-1.204152
H	-1.962101	0.208769	-2.911924
H	-3.851056	0.0	0.0
