14

C	0.0	0.0	0.0
C	-0.494689	-0.010769	-1.449259
F	1.404147	0.0	0.0
H	-1.589202	-0.184193	-1.383152
H	-0.339922	0.938055	0.440557
N	-0.50266	-1.069343	0.747821
H	-0.144358	-1.966523	0.471161
H	-0.483542	-0.908352	1.739266
N	0.138519	-1.135518	-2.222841
O	0.700772	-0.877468	-3.282368
O	0.032996	-2.25806	-1.73526
C	-0.202754	1.251802	-2.117223
N	-0.005631	2.295669	-2.616371
Br	-3.731299	0.0	0.0
