14

C	0.0	0.0	0.0
C	-0.42677	-0.023691	-1.49344
F	1.398306	0.0	0.0
H	-1.517083	-0.181825	-1.493636
H	-0.353303	0.95177	0.400593
N	-0.467617	-1.04907	0.821043
H	-1.466269	-0.894368	0.962137
H	-0.36328	-1.934983	0.340834
N	0.225998	-1.181779	-2.187102
O	1.094625	-0.960753	-3.02539
O	-0.150443	-2.298376	-1.833652
C	-0.071225	1.213076	-2.172395
N	0.182674	2.235761	-2.690874
Br	-3.570271	0.0	0.0
