14

C	0.0	0.0	0.0
C	-0.502302	-0.042817	-1.444991
F	1.403893	0.0	0.0
H	-1.598162	-0.197453	-1.359683
H	-0.334352	0.950567	0.417767
N	-0.505204	-1.04632	0.773539
H	-0.474558	-0.876707	1.762391
H	-0.180562	-1.957277	0.499725
N	0.107155	-1.197951	-2.190877
O	-0.032549	-2.308261	-1.685205
O	0.689878	-0.973395	-3.247086
C	-0.198177	1.1954	-2.149945
N	0.002765	2.220032	-2.685625
Br	-3.726636	0.0	0.0
