14

C	0.0	0.0	0.0
C	-0.196767	0.008775	-1.554491
F	1.387425	0.0	0.0
H	0.210084	-0.94138	-1.91348
H	-0.368145	0.927591	0.436368
N	-0.514956	-1.108827	0.694565
H	-1.516363	-0.943459	0.832142
H	-0.411203	-1.959087	0.151633
N	0.749344	1.053366	-2.118626
O	1.598295	0.672684	-2.91768
O	0.586977	2.203358	-1.727777
C	-1.45955	0.263028	-2.245468
N	-2.215167	0.518182	-3.111158
Br	-3.579778	0.0	0.0
