14

C	0.0	0.0	0.0
C	-0.441112	-0.046339	-1.490713
F	1.377855	0.0	0.0
H	-1.533093	-0.194707	-1.477763
H	-0.360738	0.955853	0.385664
N	-0.470718	-1.036604	0.839441
H	-0.359742	-1.93317	0.381272
H	-1.470878	-0.881217	0.973089
N	0.200437	-1.218064	-2.170666
O	1.047755	-1.013441	-3.035418
O	-0.159567	-2.327928	-1.781074
C	-0.081845	1.17754	-2.193065
N	0.157018	2.193984	-2.730686
Br	-3.584705	0.0	0.0
