17
Coordinates from ORCA-job run
  C   0.78820175604802     -0.22371576602568      0.21250212673441
  C   -0.60406441147157      0.09893744377047     -0.35617337656380
  F   1.01799958952392      0.70547587897526      1.25389678838175
  H   -0.79955815110822     -0.62345395340322     -1.14881181982370
  N   1.76792801442524     -0.08173671933420     -0.77187886773025
  H   2.64852394695122     -0.53705845165842     -0.62081890848700
  H   1.48707794534000      0.04034117545409     -1.72645537020813
  N   0.73388590197002     -1.53678445715998      0.80433421314057
  H   1.62178004395340     -2.00910004859194      0.70828859927290
  H   0.49395406923520     -1.46673045098894      1.78527555844559
  N   -0.54957978012031      1.42972883891325     -1.04674193770156
  O   -0.81162129271741      2.43533958859021     -0.39634320168126
  O   -0.21034663625361      1.41591427600232     -2.23354755030549
  C   -1.69192638617272      0.09405115064776      0.69395033266995
  H   -1.77153400184506     -0.90847642739026      1.11515067020689
  H   -2.65144224581628      0.35572501365324      0.24492375320914
  H   -1.46827836194187      0.81154290854605      1.48044899043999
