17
Coordinates from ORCA-job run
  C   0.73834192439863     -0.27069710894484      0.28349425155558
  C   -0.63084279136451      0.01397860766587     -0.34740101004369
  F   0.90883097668143      0.56476089728428      1.39484789819231
  H   -0.88371202085318     -0.84655457993841     -0.96693115677281
  N   1.78927368269559     -0.11090656732337     -0.65931135931936
  H   2.66543741526767     -0.39835140773074     -0.23995430538097
  H   1.86728151849854      0.85777284923097     -0.94534020989235
  N   0.67665478359908     -1.60653963438883      0.82790679279242
  H   0.99944631335474     -2.27158536038765      0.13681491145930
  H   1.26439565628798     -1.65608394818439      1.65015517625502
  N   -0.58680086021106      1.16475876260765     -1.30322032385657
  O   0.03739333908736      2.16933818965480     -0.95925542218008
  O   -1.22253225108477      1.04620987391617     -2.34742821565271
  C   -1.71098444738707      0.29123355083826      0.68057978098410
  H   -1.48781036647121      1.21020534173981      1.22139907005299
  H   -2.68069049249511      0.38326042342300      0.18819774119177
  H   -1.74368238000412     -0.53979988946259      1.38444638061505
