17
Coordinates from ORCA-job run
  C   0.63073385087025     -0.63010496487469     -0.04033710281347
  C   -0.67184624682787      0.09417313359984     -0.40948683843696
  F   0.31585196641908     -1.99860230614521     -0.15904169286375
  H   -0.96961797123182     -0.25389195112838     -1.40006305098003
  N   0.98678540999367     -0.43763250305384      1.32770713330332
  H   1.78114762076443     -1.01954811673738      1.56492432539970
  H   1.21125634512065      0.53646017993786      1.48603724894343
  N   1.64486984153489     -0.26381949155634     -0.96968997569836
  H   2.52255687198473     -0.71306673233252     -0.73975547049293
  H   1.38546948737303     -0.50543667228077     -1.91920316007963
  N   -0.37447839878004      1.54931601505694     -0.58738012378032
  O   -0.03026844511123      2.17701788085628      0.41287138379125
  O   -0.49829046462183      2.01884507545562     -1.71520089193392
  C   -1.78086658637718     -0.09551455116498      0.60242265905731
  H   -1.95804176465867     -1.16325222101761      0.73171824635693
  H   -1.49460357655021      0.32644025449972      1.56311381797024
  H   -2.69965793990188      0.37761697088545      0.24936349225720
