17
Coordinates from ORCA-job run
  C   0.82899345862145     -0.32802865994756     -0.03332836146100
  C   -0.47918398548561      0.27785584191907     -0.55167874397753
  F   1.85419875572775      0.40505913935769     -0.71015558936973
  H   -0.54169917131467      0.04971722060172     -1.61612428485489
  N   0.88148942463661     -1.69136822829899     -0.44668701270465
  H   1.44102627378801     -2.24546750305741      0.18705623855908
  H   1.25567413397308     -1.75785061669746     -1.38413072872687
  N   0.97059359396614     -0.22811054689766      1.36776819865164
  H   0.78218702522282      0.72075474881368      1.66648115649270
  H   1.91650639478625     -0.47580626446934      1.63340701404166
  N   -0.40862351710843      1.77339465137780     -0.49855421780362
  O   -0.25583595846171      2.29069676400236      0.60930871851721
  O   -0.53387610435313      2.38633434077335     -1.55371894555121
  C   -1.70546265293073     -0.19970117719964      0.19804945985871
  H   -1.73175521645829     -1.28816350224009      0.15696183515790
  H   -1.66460887582510      0.11095973495093      1.24075973646976
  H   -2.61062357878445      0.19972405701155     -0.26441447329917
