17
Coordinates from ORCA-job run
  C   0.84166383369869     -0.22774411380300     -0.06743375766099
  C   -0.53555339236716      0.26416020919357     -0.55332198800875
  F   1.79217298660824      0.51164651689452     -0.80323872592473
  H   -0.63219553733736      0.03638130939986     -1.61719413898666
  N   0.94209302554943     -1.61903457056345     -0.33234812274352
  H   1.88064126268641     -1.93674492471545     -0.11873525565074
  H   0.74839957393054     -1.81713758780313     -1.30628360027317
  N   1.06277080434314      0.04306690726708      1.31754635091597
  H   1.79441655184005      0.72474395687138      1.44760650453647
  H   1.24073012404010     -0.79909758533320      1.84289228371240
  N   -0.54300975622264      1.76374758427477     -0.50823312721920
  O   -0.25268301157834      2.34992232698413     -1.54949749219822
  O   -0.82619475615473      2.30163396044691      0.55965570798477
  C   -1.67151628293969     -0.29549174184371      0.27092433553234
  H   -1.52247236515681     -0.03239309192473      1.31608849518880
  H   -1.69420292327354     -1.38085643193075      0.17001874633615
  H   -2.62606013766632      0.11219727658523     -0.06744621554090
