13

C	-0.560675	-0.012608	-1.422189
C	0.0	0.0	0.0
F	-0.190564	1.118376	-2.117984
H	1.099641	0.0	0.0
H	-1.653647	-0.037097	-1.364118
C	-0.118599	-1.209766	-2.156293
N	0.203404	-2.147109	-2.785558
N	-0.496523	-1.227772	0.651185
H	0.298762	-1.852441	0.733515
H	-0.80605	-1.021847	1.59144
C	-0.495695	1.19428	0.679247
N	-0.951206	2.114378	1.248906
Cl	3.253272	0.0	0.0
