13

C	-0.45422	-0.061933	-1.458881
C	0.0	0.0	0.0
F	0.056063	-1.18771	-2.057859
H	1.09471	0.0	0.0
H	-0.082827	0.813162	-2.001491
C	-1.926612	-0.11371	-1.552327
N	-3.098292	-0.14927	-1.610118
N	-0.466146	-1.171179	0.727585
H	0.27922	-1.490266	1.332122
H	-1.284481	-0.96903	1.285195
C	-0.462449	1.27058	0.575723
N	-0.877812	2.257169	1.061259
Cl	3.271329	0.0	0.0
