13

C	-0.444928	-0.053538	-1.449812
C	0.0	0.0	0.0
F	-1.827527	-0.227081	-1.517454
H	1.095176	0.0	0.0
H	0.024171	-0.928627	-1.903668
C	-0.109663	1.159841	-2.208455
N	0.113116	2.138838	-2.816202
N	-0.423717	-1.238638	0.643221
H	0.198711	-1.424381	1.419708
H	-1.372323	-1.160484	0.987119
C	-0.510241	1.209341	0.664774
N	-0.939489	2.130332	1.255207
Cl	3.254781	0.0	0.0
