13

C	-0.553576	-0.037678	-1.423942
C	0.0	0.0	0.0
F	-0.240572	1.11739	-2.111481
H	1.094051	0.0	0.0
H	-1.646118	-0.113733	-1.379903
C	-0.049466	-1.205581	-2.163406
N	0.308412	-2.131021	-2.789155
N	-0.442129	-1.225238	0.669806
H	-1.176711	-1.040964	1.339547
H	0.352087	-1.622314	1.156691
C	-0.491241	1.2138	0.658891
N	-0.978311	2.140449	1.191845
Cl	3.258631	0.0	0.0
