13

C	-0.480388	-0.01715	-1.456732
C	0.0	0.0	0.0
F	-0.055532	1.101372	-2.137869
H	1.095292	0.0	0.0
H	-1.578243	-0.015518	-1.484627
C	-0.015929	-1.23051	-2.150395
N	0.316186	-2.186393	-2.744494
N	-0.42024	-1.179546	0.739319
H	0.274131	-1.905205	0.61851
H	-1.332371	-1.518387	0.457179
C	-0.522486	1.214981	0.634497
N	-0.989094	2.155783	1.159285
Cl	3.252942	0.0	0.0
