13

C	-0.548377	-0.042617	-1.425725
C	0.0	0.0	0.0
F	-0.124854	1.046339	-2.156605
H	1.099627	0.0	0.0
H	-1.641817	-0.022678	-1.382045
C	-0.140704	-1.281679	-2.108275
N	0.166552	-2.25642	-2.685668
N	-0.527398	-1.199749	0.681728
H	0.20726	-1.900373	0.630282
H	-0.653987	-0.994276	1.665868
C	-0.495698	1.214798	0.642491
N	-0.930317	2.170683	1.168383
Cl	3.291103	0.0	0.0
