10
Coordinates from ORCA-job run
  C   1.06625342927430      0.11372949947659      0.28929814198086
  C   -0.23473891214514     -0.27811506998071     -0.38647864630942
  Cl  2.41820307038878     -0.89000042687247     -0.30722761977915
  H   -0.13800833751998     -0.10020582066996     -1.45978748438487
  H   1.00700328440619     -0.03077242834836      1.36852971695879
  H   1.29811329249062      1.15582022347814      0.07877546810651
  H   -0.40602666530164     -1.35411195904526     -0.24909860712910
  N   -1.29769013683643      0.57769193985386      0.13632865989764
  H   -1.62456406226678      0.22454846620134      1.02665737180960
  H   -2.08754496248992      0.58141557590683     -0.49499700115087
