10
Coordinates from ORCA-job run
  C   1.10513400014307     -0.08102557799214      0.25618315622512
  C   -0.27712822338629     -0.48251624172204     -0.20846098786988
  Cl  1.61816417425338      1.45308526784791     -0.51606588200206
  H   -0.26749578576203     -0.58684145261635     -1.30326908255998
  H   1.84811823695182     -0.83203030919088     -0.01112773315176
  H   1.10092116941406      0.08721289055816      1.33198736023172
  H   -0.48591361658248     -1.47007910648628      0.21647157650548
  N   -1.27493342225812      0.44947496155067      0.30189968582506
  H   -1.16359677551107      1.34760901201360     -0.15207320304963
  H   -2.20426975726234      0.11411055603736      0.08345510984594
