10
Coordinates from ORCA-job run
  C   1.06485775219030      0.05105961009162      0.01865854107701
  C   -0.30351404638244     -0.54209359884918     -0.29177208134030
  Cl  1.23153409890843      0.40547688679174      1.76483153412273
  H   -0.30711527272497     -0.81862919009333     -1.35199785098752
  H   1.21349404244811      0.99250029416882     -0.51257058700674
  H   1.86441896047317     -0.64290641795877     -0.24484296438810
  H   -0.42610763213484     -1.46506558765898      0.28064184336455
  N   -1.45567881530664      0.30425879654806     -0.03697998145376
  H   -1.49233300852577      0.55329140216925      0.94319633956022
  H   -1.38855607894536      1.16310780479077     -0.56916479294809
