12
Coordinates from ORCA-job run
  C   0.80559876802276     -0.35925370623758      0.58019391284296
  C   -0.55667940108637      0.09051850914617      0.05347590530770
  F   1.46680972747527     -1.02958724827205     -0.43076370370915
  H   -1.06432132001457      0.61946724070580      0.86707170084949
  H   0.64050754827680     -1.06335155235308      1.39963844520434
  C   1.61761465138623      0.77573569973831      1.03498508260801
  N   2.24201165612774      1.69020566666715      1.42373138293510
  N   -1.32118262152073     -1.09967227999255     -0.27523709795535
  H   -2.27075327570420     -0.85080300067392     -0.52287947360051
  H   -0.90148629962144     -1.56341226934650     -1.07239928960775
  C   -0.37702471477148      1.03623023547816     -1.06796850089395
  N   -0.28009471857002      1.75492270514009     -1.99184836398090
