12
Coordinates from ORCA-job run
  C   0.78625577243669     -0.30843637403664      0.63222853576436
  C   -0.55990070304834      0.08988333712101      0.02817279430979
  F   1.48515263743737     -1.04671956351683     -0.30316281580200
  H   -1.09762252307810      0.67353461344239      0.78294885957099
  H   0.59786483145405     -0.95089084260415      1.49603409341071
  C   1.57619107401025      0.86368905681099      1.02793959969395
  N   2.18406346154214      1.80765612980643      1.36967757494009
  N   -1.30606390576709     -1.12764183491098     -0.23635534563019
  H   -0.85405884285366     -1.64762669973096     -0.97947692076476
  H   -2.24662001550706     -0.90521896012076     -0.53844090502720
  C   -0.34681785560329      0.95141219788660     -1.15350867391904
  N   -0.21944393102297      1.60035893985290     -2.12405679654670
