15
Coordinates from ORCA-job run
  C   -0.38072680928914      0.18236983479757     -0.37320022476355
  C   0.99732854527512      0.27841346248276      0.27868011725542
  H   -0.28413449903188      0.17535092828587     -1.46080075360710
  H   1.43786308155019      1.25724478663948      0.03960084299770
  H   0.86501898991197      0.23584170060977      1.36187375092970
  N   -1.11576932633216      1.45104706629345     -0.07091466431843
  O   -1.32172768895371      1.70149296062694      1.11583517806767
  O   -1.45103686427263      2.16241815564688     -1.01684522505207
  C   -1.18776552939562     -1.00207707857025      0.11798872906116
  H   -1.35615188974226     -0.91898976088841      1.19289155304029
  H   -2.15376815699534     -1.05660160987677     -0.38855995416446
  H   -0.62336059525027     -1.91156457069282     -0.08551024246772
  N   1.80042399994454     -0.86051167199406     -0.15470548962813
  H   2.55192467422382     -1.02835059350321      0.50064548158930
  H   2.22088206835737     -0.66708360985719     -1.05497909893977
