15
Coordinates from ORCA-job run
  C   -0.48216718406318      0.01098080453974     -0.52776330785278
  C   1.03566346471816     -0.07841232338276     -0.56423930077572
  H   -0.87898520788233     -0.05772054013067     -1.54544147172979
  H   1.42239672094542      0.74422985150119     -1.18068651868250
  H   1.26942994562959     -1.01132735775993     -1.08741091843352
  N   -0.92994062823225      1.37705083536719     -0.06733098492935
  O   -0.08794532283420      2.15643725405438      0.38029987671939
  O   -2.12925311509688      1.61932970521953     -0.16572070651230
  C   -1.14375366676136     -1.02633818193661      0.36400166840715
  H   -2.22859702154254     -0.93546961631513      0.31540283446475
  H   -0.80174007663995     -0.90987450958409      1.39111969764003
  H   -0.85654927840030     -2.02422214712876      0.02575903301468
  N   1.60918018386586     -0.14551242180637      0.77401906130280
  H   1.64995436802341      0.78822185862658      1.16017263998212
  H   2.55230681827054     -0.50737321126427      0.72781839738502
