15
Coordinates from ORCA-job run
  C   -0.48462549529404      0.02562838506448     -0.55924041731376
  C   1.03991995383419     -0.01473150763680     -0.51679778852556
  H   -0.81591792848323      0.01169143327233     -1.60268360933774
  H   1.41647048439935      0.81195117045610     -1.12013539733520
  H   1.36319550193891     -0.94832231713953     -0.99796183136318
  N   -0.90390738591634      1.38595230823376     -0.05929300524582
  O   -0.45672243432483      2.34792071982863     -0.68031776952275
  O   -1.64962035416673      1.45572523282240      0.91186011576317
  C   -1.14116476656568     -1.07214999710970      0.24722711751832
  H   -0.83098857771171     -2.04153409018611     -0.15259625725705
  H   -2.22783882179511     -1.00958897889275      0.19646857687068
  H   -0.84719988547193     -0.99995247639996      1.29359413951016
  N   1.50278333101754      0.13632767393723      0.85736963514095
  H   1.67762688407136     -0.75961674866944      1.29020238946008
  H   2.35798949446825      0.67169919241936      0.89330410163771
