15
Coordinates from ORCA-job run
  C   -0.42094484182359     -0.05376239494043     -0.32054025913918
  C   1.01880712560312     -0.28315742319133      0.10516641782196
  H   -0.48586214213247      0.07825204085681     -1.40275247726293
  H   1.04389235938710     -0.32472779922258      1.19614620431724
  H   1.32895561897972     -1.26870640049498     -0.27410301732326
  N   -0.86025847463525      1.26503345868159      0.24160427111789
  O   -0.80648935610098      1.38896912349486      1.46246760542930
  O   -1.26020647599648      2.11592630408376     -0.54761242827445
  C   -1.37150516019804     -1.13403913438166      0.16325103305554
  H   -1.32853783546004     -1.21379619844326      1.25043855780282
  H   -1.09316436445314     -2.09585109217206     -0.27291362124338
  H   -2.39858622606998     -0.91009972722792     -0.13193878103265
  N   1.84538389360613      0.83168664264799     -0.33677586456712
  H   2.07844064112446      0.73845580549087     -1.31708552591723
  H   2.71007523816942      0.86481679481833      0.18564788521546
