15
Coordinates from ORCA-job run
  C   -0.39321204802670      0.15791886754928     -0.37173705789779
  C   1.00243683583829      0.30357922280772      0.23132413379285
  H   -0.32941476850976      0.09091121666175     -1.45971611546217
  H   0.90306986419585      0.32353804598687      1.31867854336444
  H   1.42587452626226      1.27024387137349     -0.07774681068897
  N   -1.13363339714896      1.43429040072336     -0.11858193393689
  O   -1.50852083459352      2.08541727588732     -1.09257568536310
  O   -1.30466001965379      1.75083613162515      1.05787763004484
  C   -1.17238422095101     -1.00435241967243      0.20912782963507
  H   -2.15362468511185     -1.09344787724361     -0.26205279779970
  H   -0.60675359274623     -1.91967443811614      0.03804097627000
  H   -1.30747076389045     -0.86395074100687      1.28281961956904
  N   1.80419074608664     -0.85199566897509     -0.15903466174691
  H   2.19816382778313     -0.70661623525718     -1.08009461933812
  H   2.57493853046612     -0.97569765234363      0.48367094955740
