15
Coordinates from ORCA-job run
  C   -0.39440177987924      0.16365945081684     -0.43378689270806
  C   1.00859908951627      0.38132517838085      0.13183851009661
  H   -0.33424061990333      0.06570211533452     -1.51759961905003
  H   1.44347672356772      1.25525327219259     -0.36180727144839
  H   0.92163538998294      0.61212554418143      1.20134567878515
  N   -1.17139777721965      1.42070331396297     -0.19508143844108
  O   -1.40823993817827      2.13786578863695     -1.16636644217069
  O   -1.48800473906984      1.67054554367443      0.96758020783149
  C   -1.11368768491877     -1.01215047724265      0.19374149953276
  H   -0.57581029723013     -1.92729041788561     -0.05795789055539
  H   -1.16096181870992     -0.90061689091358      1.27813986510812
  H   -2.13211800459997     -1.09888202297193     -0.19046010789873
  N   1.82412377504270     -0.79350865126239     -0.16454740268264
  H   1.79024304818381     -1.44848143645587      0.60523228237468
  H   2.79078463341570     -0.52725031044855     -0.29127097877382
