15
Coordinates from ORCA-job run
  C   -0.41248424709134      0.14011189105235     -0.42470736691817
  C   1.01285728812769      0.38594511351653      0.06896938930870
  H   -0.39723284327553     -0.01900340326462     -1.50286699059848
  H   1.42612076139337      1.23162659078055     -0.48834275985607
  H   0.97073167864649      0.67395223960645      1.12715650857490
  N   -1.18018976977941      1.40957756479595     -0.22494853205007
  O   -1.46305920666017      2.06898665112400     -1.22434989578486
  O   -1.44441057381423      1.72649502252704      0.93453612230687
  C   -1.10461438266316     -0.99740504378111      0.29697264431470
  H   -2.13669168484625     -1.10631232108985     -0.04254983607256
  H   -0.57446784281949     -1.92552223102295      0.07863409995067
  H   -1.11041205298555     -0.82276295809043      1.37404584092356
  N   1.81586770941212     -0.80479769522814     -0.19724094076193
  H   1.82155794565214     -1.41297134035793      0.61069003761619
  H   2.77442722070332     -0.54692008056784     -0.38699832095346
