19

C	-0.232913	-0.043504	-1.500487
C	0.0	0.0	0.0
F	-0.186554	-1.374062	-1.95793
H	1.100014	0.0	0.0
N	-1.655185	0.33058	-1.953666
O	-1.788809	0.70461	-3.117261
O	-2.577684	0.163225	-1.159295
N	0.659726	0.796129	-2.162982
H	0.617371	0.683882	-3.165785
H	1.603637	0.667647	-1.797811
C	-0.51638	-1.206842	0.765975
H	-1.607607	-1.251831	0.754479
H	-0.116025	-2.133028	0.353496
H	-0.179421	-1.131671	1.803422
C	-0.444194	1.325276	0.614991
H	-1.526846	1.361184	0.758451
H	-0.136911	2.166981	-0.009072
H	0.042677	1.440038	1.586909
Cl	3.450293	0.0	0.0
