19

C	-0.483572	-0.017233	-1.432567
C	0.0	0.0	0.0
F	0.130592	1.012731	-2.143371
H	1.092737	0.0	0.0
N	-0.019699	-1.255145	-2.212533
O	0.944373	-1.878203	-1.79143
O	-0.624988	-1.487065	-3.262174
N	-1.890215	0.026948	-1.57279
H	-2.126907	-0.015213	-2.556623
H	-2.231676	0.890135	-1.171979
C	-0.506057	-1.205973	0.786089
H	-0.098279	-2.136082	0.390428
H	-1.598441	-1.25982	0.775592
H	-0.166898	-1.11931	1.82131
C	-0.447906	1.303603	0.665688
H	-0.176624	2.171599	0.061945
H	0.068748	1.397974	1.6229
H	-1.526366	1.319455	0.866811
Cl	3.507786	0.0	0.0
