19

C	-0.32098	-0.106271	-1.48731
C	0.0	0.0	0.0
F	-1.572469	-0.634903	-1.72885
H	1.097569	0.0	0.0
N	-0.458707	1.332175	-2.084777
O	-1.562917	1.86927	-2.059461
O	0.575987	1.848491	-2.498235
N	0.652412	-0.860279	-2.147181
H	1.584257	-0.658528	-1.78709
H	0.622653	-0.751843	-3.151336
C	-0.46814	-1.275013	0.696956
H	-0.12051	-2.159147	0.160688
H	-0.046716	-1.302555	1.704917
H	-1.559126	-1.312743	0.768626
C	-0.534145	1.24708	0.686714
H	-0.268919	1.203767	1.745875
H	-1.622078	1.323057	0.600826
H	-0.085701	2.15487	0.278077
Cl	3.442776	0.0	0.0
