19

C	-0.332067	-0.090677	-1.481714
C	0.0	0.0	0.0
F	-1.624897	-0.510993	-1.714287
H	1.097326	0.0	0.0
N	-0.343972	1.34731	-2.09963
O	0.713209	1.743095	-2.582278
O	-1.384666	1.996792	-2.031949
N	0.57	-0.934641	-2.138377
H	0.532663	-0.834467	-3.143196
H	1.517573	-0.773263	-1.802
C	-0.481212	-1.274397	0.690129
H	-0.040144	-1.324286	1.68856
H	-1.571195	-1.285749	0.784805
H	-0.168036	-2.159836	0.135899
C	-0.522538	1.246117	0.699439
H	-0.046159	2.151809	0.319381
H	-0.281503	1.17518	1.762946
H	-1.605952	1.34835	0.591052
Cl	3.430432	0.0	0.0
