19

C	-0.485826	-0.064313	-1.430463
C	0.0	0.0	0.0
F	0.0894	0.975371	-2.156065
H	1.09305	0.0	0.0
N	-0.011711	-1.298742	-2.20656
O	0.736218	-2.10081	-1.669949
O	-0.438006	-1.373647	-3.358899
N	-1.894156	-0.073206	-1.566789
H	-2.133874	-0.022344	-2.54905
H	-2.285313	0.715891	-1.07148
C	-0.522067	-1.142954	0.865309
H	-0.144661	-1.008745	1.882388
H	-0.167898	-2.108419	0.508767
H	-1.615937	-1.152964	0.896749
C	-0.411727	1.348745	0.604615
H	-0.134803	2.178549	-0.04689
H	0.126553	1.478442	1.545265
H	-1.484966	1.402157	0.827523
Cl	3.50848	0.0	0.0
