18
Coordinates from ORCA-job run
  C   0.75522371747877     -0.09219520605827     -0.26254705801701
  C   -0.72256540392215      0.33053009580148     -0.26036643608442
  Br  1.16966614326040     -0.71427652814254     -2.17460247099834
  H   -0.84385176352258      1.04800617970377     -1.07798980761537
  N   0.97753761700825     -1.12545582853589      0.68068560677626
  H   1.96442529417198     -1.32179788159042      0.79182589791164
  H   0.50097620650663     -1.98241471830750      0.43142635363399
  C   1.69815983349696      1.06977303255149     -0.01547106458620
  H   1.54408383909457      1.43934813817119      0.99765214379519
  H   2.73502339725933      0.75131301535892     -0.14592320867272
  H   1.49568967755197      1.87827760864021     -0.71789320177141
  N   -0.94661577417635      1.05738357121183      0.99212420346470
  H   -0.86353809582210      0.40181643301289      1.76204446576447
  H   -1.89066000605417      1.42655994731541      0.99965326405141
  C   -1.69648533573169     -0.82947618268178     -0.46911614329674
  H   -1.49036190583894     -1.39087100135211     -1.38191615131884
  H   -1.67216374083694     -1.51073877362456      0.38656634272005
  H   -2.71454369992395     -0.43678190147410     -0.53715273575667
