18
Coordinates from ORCA-job run
  C   0.78948126620989      0.01350687717615     -0.15242085360100
  C   -0.71265125851488     -0.28933110422250     -0.16540160162331
  Br  0.92146797243208      2.12909316857062     -0.52618741447767
  H   -0.74741279369049     -1.36133205025913      0.07568189902529
  N   1.41194520635471     -0.69272971643977     -1.14337929755267
  H   0.90139084507231     -0.82484817395852     -2.00076867813493
  H   2.40762996000043     -0.81589884481723     -1.13064554914161
  C   1.46932159577184     -0.13624729014075      1.19069260379441
  H   1.34077307439967     -1.16789296384510      1.53573443167283
  H   2.53670889013089      0.07307352938510      1.09541463271558
  H   1.06156106237748      0.54988518787108      1.92947134963169
  N   -1.18078056787456     -0.15924251714492     -1.54534149945182
  H   -2.12621112776277     -0.51553205710095     -1.61980523192308
  H   -1.20142123139531      0.82793313818570     -1.78347895524086
  C   -1.54860135211405      0.45702192346674      0.86755680464643
  H   -1.21338286785950      0.26053314440139      1.88892030466185
  H   -1.52299999267571      1.53294332113739      0.69187098114813
  H   -2.58581868086200      0.11806442773469      0.79308607385073
