18
Coordinates from ORCA-job run
  C   0.78905081765285     -0.03127791258238     -0.18114240568092
  C   -0.73561136968027     -0.20502249105103     -0.18376299290332
  Br  1.13882920634102      2.02446265790346     -0.30951908033663
  H   -0.86145318631300     -1.29534534494081     -0.14257961907342
  N   1.31904639798387     -0.70306110403208     -1.28854912371754
  H   0.78748042979604     -0.48096891536708     -2.12236295401857
  H   2.30830824496608     -0.54155663020346     -1.41799925163792
  C   1.47083107282993     -0.45057486877082      1.10423394835964
  H   1.16039905562508      0.16044263660277      1.94941404098962
  H   1.22925616686538     -1.50052790064383      1.29770867451702
  H   2.55404624336099     -0.35905067186764      1.00148289420658
  N   -1.24333277919338      0.21736163235757     -1.48918256679578
  H   -2.17195274138835     -0.15990044517089     -1.63352951720700
  H   -1.31034327884627      1.22947042461507     -1.50880556382349
  C   -1.45994804878243      0.40969966967476      1.00874979087571
  H   -1.32366738410648      1.49238373386602      1.03341906698137
  H   -1.11940463610951     -0.00672688689448      1.95936005165392
  H   -2.52953421100155      0.20019241650485      0.92206460761072
