15

C	-0.580695	0.112458	-1.380425
C	0.0	0.0	0.0
F	-1.886314	0.455084	-1.354728
H	1.088193	0.0	0.0
H	-0.325116	0.905702	0.518814
N	0.107412	1.186113	-2.206806
O	0.054829	2.304122	-1.70878
O	0.604907	0.875065	-3.28141
N	-0.465008	-1.177362	-2.163451
O	-1.405545	-1.467661	-2.892912
O	0.574813	-1.799742	-2.009348
N	-0.557805	-1.210175	0.60806
H	0.208385	-1.850417	0.775037
H	-0.978189	-0.99063	1.499385
Cl	3.384835	0.0	0.0
