15

C	-0.579412	-0.060326	-1.382404
C	0.0	0.0	0.0
F	-1.917959	0.062174	-1.378793
H	1.091239	0.0	0.0
H	-0.334118	0.963392	0.399032
N	-0.02927	1.049945	-2.260518
O	1.005306	0.806119	-2.866901
O	-0.663223	2.101183	-2.248537
N	-0.268915	-1.341227	-2.132809
O	-0.892263	-1.489307	-3.180127
O	0.551625	-2.105613	-1.648007
N	-0.563698	-1.113386	0.767602
H	-0.903118	-0.775136	1.655895
H	0.187051	-1.76668	0.949952
Cl	3.423482	0.0	0.0
