15

C	-0.458753	-0.00975	-1.428031
C	0.0	0.0	0.0
F	-0.008675	1.01463	-2.138598
H	1.094313	0.0	0.0
H	-0.348374	-0.915339	0.478366
N	-0.072653	-1.296839	-2.14831
O	-0.522186	-2.321511	-1.646737
O	0.621833	-1.204433	-3.145172
N	-1.987452	0.016007	-1.540267
O	-2.443106	0.415178	-2.607336
O	-2.630588	-0.394544	-0.581523
N	-0.507394	1.223824	0.611612
H	0.268059	1.718103	1.03115
H	-1.184901	1.00693	1.328711
Cl	3.379605	0.0	0.0
