16

C	0.0	0.0	0.0
C	-0.470142	0.116134	-1.458438
Cl	1.841857	0.0	0.0
H	-1.567775	0.086469	-1.366051
N	-0.44458	1.174523	0.681844
H	0.137194	1.983119	0.513408
H	-0.574771	1.016578	1.669965
N	-0.478744	-1.215964	0.556673
H	-0.253292	-1.243767	1.54549
H	-1.499741	-1.189196	0.457578
N	-0.014948	-0.976063	-2.296739
H	-0.515742	-0.948936	-3.175759
H	0.976175	-0.880021	-2.482991
C	-0.105318	1.446118	-1.986713
N	0.197641	2.467256	-2.48374
Br	-3.797114	0.0	0.0
