16

C	0.0	0.0	0.0
C	-0.302999	-0.196062	-1.517377
Cl	1.89561	0.0	0.0
H	0.37944	0.480499	-2.038355
N	-0.43705	1.307803	0.389287
H	-0.027962	1.566944	1.279031
H	-1.452921	1.260404	0.485055
N	-0.529657	-1.037736	0.767906
H	-0.183729	-1.95735	0.537918
H	-0.538598	-0.863661	1.760227
N	-1.643958	0.086596	-1.953302
H	-2.354514	-0.347335	-1.361701
H	-1.80955	1.082947	-1.892638
C	0.069682	-1.570416	-1.896219
N	0.380667	-2.675098	-2.141552
Br	-4.342708	0.0	0.0
