16

C	0.0	0.0	0.0
C	-0.447808	0.15009	-1.467368
Cl	1.805979	0.0	0.0
H	-1.54489	0.165123	-1.40554
N	-0.451444	1.154445	0.71746
H	-0.232245	1.006367	1.697892
H	-1.471782	1.168324	0.635348
N	-0.433874	-1.23602	0.587096
H	-0.247383	-1.982528	-0.076876
H	-1.449789	-1.156766	0.673675
N	-0.046397	-1.016393	-2.246889
H	0.916685	-0.913446	-2.544563
H	-0.629969	-1.081746	-3.071232
C	0.001682	1.419938	-2.059631
N	0.328337	2.38689	-2.642612
Br	-3.717217	0.0	0.0
