16

C	0.0	0.0	0.0
C	-0.462959	0.18249	-1.469681
Cl	1.788906	0.0	0.0
H	-1.55892	0.241243	-1.41089
N	-0.442642	1.149804	0.743637
H	-0.164245	1.053215	1.714941
H	-1.465457	1.138217	0.705601
N	-0.442803	-1.313822	0.422971
H	-1.466044	-1.256639	0.452767
H	-0.115227	-1.479565	1.369365
N	-0.110998	-0.89711	-2.377801
H	-0.530486	-1.738677	-1.998019
H	0.89437	-1.032083	-2.335055
C	0.032044	1.453831	-2.010287
N	0.430812	2.439412	-2.507606
Br	-3.703119	0.0	0.0
