16

C	0.0	0.0	0.0
C	-0.398728	-0.347742	-1.457156
Cl	1.866075	0.0	0.0
H	-1.497591	-0.334966	-1.408855
N	-0.429529	1.29355	0.424042
H	-1.451653	1.27951	0.451985
H	-0.127488	1.997422	-0.239172
N	-0.453657	-0.990454	0.910923
H	-1.435445	-0.795514	1.102916
H	-0.406213	-1.884942	0.434557
N	0.037459	-1.686904	-1.824777
H	-0.491595	-2.013783	-2.622995
H	1.02095	-1.676454	-2.065551
C	0.035746	0.691452	-2.404791
N	0.397564	1.483716	-3.194052
Br	-3.689987	0.0	0.0
