16

C	0.0	0.0	0.0
C	-0.312198	-0.277513	-1.502451
Cl	1.878197	0.0	0.0
H	0.132793	0.563592	-2.051779
N	-0.499459	1.280744	0.332796
H	-0.634763	1.410022	1.324311
H	0.027733	2.040967	-0.072853
N	-0.493121	-1.059818	0.812819
H	-1.513704	-1.014287	0.776328
H	-0.196174	-0.943599	1.774751
N	-1.704044	-0.381704	-1.855116
H	-2.258425	0.345763	-1.408749
H	-2.10471	-1.250446	-1.522913
C	0.377405	-1.494128	-1.95939
N	0.884514	-2.46849	-2.371911
Br	-4.384197	0.0	0.0
