17
Coordinates from ORCA-job run
  C   0.54600437606676     -0.38820468920249     -0.33118384103307
  C   -0.93857701423878     -0.03542128118383     -0.15454213108337
  Cl  0.50349288104998     -2.22498280688622     -0.71210186416691
  H   -1.46639720930082     -0.27350175873541     -1.08548363170517
  C   1.38801894132768     -0.22963831244380      0.91632232974613
  H   0.97427706917487     -0.79669063806369      1.74645306735969
  H   2.40096448210971     -0.58508840642180      0.71471140051037
  H   1.41799880150887      0.82428272215628      1.19147478963248
  N   1.07134093289437      0.36518045723793     -1.39767263036160
  H   0.55518891104255      0.25446434609242     -2.26113445095594
  H   2.05260471595221      0.17730598735032     -1.55233261183867
  N   -1.04567844462895      1.47903055241392     -0.08792627559721
  O   -1.45596140071584      2.02614746862473     -1.10984321633231
  O   -0.71660990474198      2.03999080272535      0.94915995310600
  N   -1.49139111859055     -0.58994735320194      1.04191602313260
  H   -2.49536023619943     -0.45942787388774      1.06175081026818
  H   -1.29991578271065     -1.58349921657402      1.07143227931879
