17
Coordinates from ORCA-job run
  C   0.64118552964277     -0.41129111730091      0.00173684621803
  C   -0.79462055708981      0.15286865213307     -0.09204176579369
  Cl  0.68770558488549     -1.76288050982681      1.16262223086934
  H   -0.74465629964623      0.94119787072758     -0.85484321712951
  C   1.61449098961177      0.66612478456990      0.44816155590068
  H   1.56190791114469      1.52748030787230     -0.22378897870135
  H   1.40657028805799      1.00820121430296      1.46167642941996
  H   2.62029250731493      0.24875455092145      0.40947807201542
  N   1.07784098574693     -0.94840603089597     -1.27002642118251
  H   0.56082536334136     -1.77846923449868     -1.52933602510906
  H   1.01827377407281     -0.24660888158267     -1.99849019489287
  N   -1.16123583557851      0.93820347948065      1.14942489130165
  O   -1.58989599153915      0.31879010313368      2.11154228310702
  O   -0.91817992400784      2.14097361881585      1.08212295401673
  N   -1.78283858959181     -0.86389186228795     -0.29446911597525
  H   -1.51564675791716     -1.47359457529204     -1.05458569792539
  H   -2.68401897844822     -0.45645237027241     -0.50818384613921
