17
Coordinates from ORCA-job run
  C   0.58238515380866     -0.48827769947256     -0.31091269247443
  C   -0.91691342153390     -0.13085287953422     -0.17610046240157
  Cl  0.57144013386690     -2.29625758016092     -0.55258633804720
  H   -1.42391350646153     -0.43601528269038     -1.09911026445444
  C   1.39086502680009     -0.18279942363374      0.93388542609688
  H   2.41568881929985     -0.51608409212545      0.76830645381304
  H   1.38036308319726      0.89153606390066      1.12877294690231
  H   0.97994446576992     -0.68240361601571      1.80792767024758
  N   1.20836310891902      0.09396054446227     -1.45503956110479
  H   0.60335345272131      0.10989293481526     -2.26611780689610
  H   1.53936132459406      1.02873106114175     -1.25681374182701
  N   -1.01647834218235      1.38579421094243     -0.23268444958614
  O   -1.26240366995813      1.85904348109599     -1.34321359526942
  O   -0.81346469939195      2.02953944584464      0.79021515953441
  N   -1.49180627235351     -0.58969290950970      1.04694668202857
  H   -2.50114589205271     -0.51491433516478      1.02296296710103
  H   -1.24663876504299     -1.56019992389554      1.19356160633728
