16

C	-0.45327	-8.7e-05	-1.474073
C	0.0	0.0	0.0
Br	0.383799	-1.470282	-2.478689
H	1.091902	0.0	0.0
C	-1.966143	-0.09657	-1.653898
H	-2.226086	-0.049167	-2.71251
H	-2.444152	0.732062	-1.124389
H	-2.330176	-1.038958	-1.241999
C	0.044359	1.229704	-2.089801
N	0.383787	2.236288	-2.592644
N	-0.532821	-1.20247	0.700421
O	0.048934	-2.263404	0.500703
O	-1.52393	-1.072285	1.426312
C	-0.51884	1.191068	0.645058
N	-0.922081	2.183638	1.131231
F	2.444241	0.0	0.0
