16

C	-0.239246	0.003267	-1.499744
C	0.0	0.0	0.0
Br	-2.174999	0.007964	-1.956782
H	1.095252	0.0	0.0
C	0.426005	1.256899	-2.0708
H	0.378189	1.247344	-3.16041
H	1.463356	1.22217	-1.719677
H	-0.067465	2.152425	-1.692841
C	0.34648	-1.160196	-2.167382
N	0.786617	-2.001801	-2.859946
N	-0.478802	-1.202774	0.711306
O	-0.656444	-1.100232	1.92494
O	-0.607145	-2.239233	0.063122
C	-0.498371	1.193354	0.644334
N	-0.85461	2.199709	1.137271
F	2.450718	0.0	0.0
