16

C	-0.444983	0.007749	-1.477569
C	0.0	0.0	0.0
Br	0.325537	-1.526206	-2.437493
H	1.091936	0.0	0.0
C	-1.957411	-0.013922	-1.679644
H	-2.399521	0.849983	-1.176644
H	-2.378256	-0.923904	-1.250783
H	-2.197265	0.023873	-2.743401
C	0.128432	1.202712	-2.096568
N	0.543003	2.179259	-2.603403
N	-0.532473	-1.212708	0.688827
O	-1.617861	-1.125919	1.276397
O	0.144743	-2.234177	0.619472
C	-0.533845	1.179738	0.652351
N	-0.925737	2.172696	1.147089
F	2.449833	0.0	0.0
