16

C	-0.237624	-0.003868	-1.501129
C	0.0	0.0	0.0
Br	-2.170903	0.02562	-1.963154
H	1.095207	0.0	0.0
C	0.448967	1.235389	-2.078014
H	-0.036649	2.141081	-1.712152
H	0.410596	1.217103	-3.167878
H	1.481274	1.188244	-1.716506
C	0.332917	-1.181086	-2.157537
N	0.80396	-2.035521	-2.813106
N	-0.483269	-1.193966	0.722131
O	-0.631123	-1.087183	1.938764
O	-0.645912	-2.228605	0.078861
C	-0.494403	1.20045	0.635339
N	-0.859048	2.210316	1.115492
F	2.453158	0.0	0.0
