16

C	-0.016975	-0.019133	-0.021681
C	-0.587571	0.096676	-1.443639
F	1.387422	0.078808	-0.12668
H	-0.34573	-0.774511	-2.050124
H	-1.675757	0.2215	-1.269692
N	-0.48811	0.976885	0.89006
H	-1.519206	0.836404	0.83136
H	-0.303675	1.882955	0.471488
C	-0.390382	-1.385381	0.510099
H	-1.482621	-1.402665	0.525241
H	0.007428	-1.479004	1.522093
H	0.015069	-2.18041	-0.121347
N	-0.028681	1.247097	-2.183593
O	0.53616	1.025756	-3.258643
O	-0.152642	2.375029	-1.701386
F	-2.901966	0.147858	0.053674
