16

C	-0.467535	-0.024386	-1.454224
C	0.0	0.0	0.0
F	-0.151925	1.212256	-2.034886
H	1.096741	0.0	0.0
H	-1.56331	-0.101935	-1.513562
C	0.216323	-1.112726	-2.250269
H	1.295695	-1.015275	-2.113321
H	-0.041602	-1.021293	-3.308486
H	-0.097659	-2.097532	-1.894615
C	-0.476262	-1.211444	0.65226
N	-0.88406	-2.184244	1.173054
C	-0.471897	1.243277	0.751881
H	-0.097155	1.215948	1.777103
H	-1.563811	1.327321	0.773546
H	-0.053296	2.122599	0.262488
H	2.853786	0.0	0.0
