16

C	-0.381682	0.01666	-1.467021
C	0.0	0.0	0.0
F	-1.788084	0.053384	-1.621623
H	1.097099	0.0	0.0
H	-0.056969	-0.924237	-1.921729
C	0.220202	1.183437	-2.213784
H	-0.208598	2.124493	-1.864399
H	1.300278	1.18728	-2.036635
H	0.015227	1.090159	-3.283749
C	-0.492949	-1.218082	0.629821
N	-0.889413	-2.19702	1.146798
C	-0.459236	1.232204	0.778853
H	-0.198933	1.11436	1.83299
H	0.070143	2.114387	0.413671
H	-1.537422	1.391777	0.693806
H	2.817501	0.0	0.0
