16

C	-0.446677	0.082435	-1.452055
C	0.0	0.0	0.0
F	-0.14525	-1.123486	-2.090556
H	1.095924	0.0	0.0
H	0.16875	0.851433	-1.933802
C	-1.923899	0.341286	-1.670959
H	-2.516711	-0.419938	-1.157001
H	-2.211777	1.326897	-1.298584
H	-2.150633	0.295086	-2.739451
C	-0.537483	-1.190349	0.637078
N	-1.006173	-2.136207	1.155865
C	-0.377982	1.257391	0.788366
H	-1.453348	1.357612	0.961977
H	0.13826	1.236757	1.750625
H	-0.015195	2.138238	0.24949
H	2.791479	0.0	0.0
