17
Coordinates from ORCA-job run
  C   -0.69933285958222     -0.02183630912090      0.57494861510589
  C   0.75298899819652     -0.03776846882230      0.08844404497513
  Br  -0.89608257773748     -0.91879927149648      2.29611789327709
  H   1.37289204104135      0.34684694398482      0.90329600648910
  N   -1.57299822422083     -0.57050183872947     -0.37049609179014
  H   -2.54078811317995     -0.42228815339145     -0.11472393099356
  H   -1.37116384170550     -0.12765806954838     -1.26270781240319
  N   -1.05702697941980      1.46610896749151      0.91266680599081
  O   -0.16129965911936      2.18493787252182      1.34311885649393
  O   -2.22023632642560      1.80015822752957      0.72581216040146
  N   0.77467183210514      0.82734124006688     -1.09453107959189
  H   1.47863428851966      0.51101909611106     -1.74880797372355
  H   0.99576239016250      1.77905056276202     -0.82873868171141
  C   1.19760461449331     -1.44256633780986     -0.28404056245072
  H   2.25542881124523     -1.42517095451126     -0.56034510235007
  H   0.61395999955467     -1.81644336648730     -1.12618046637192
  H   1.07598560607238     -2.13243014055025      0.55016731865304
