17
Coordinates from ORCA-job run
  C   -0.69675416964865      0.35826640704682      0.38756857710483
  C   0.41649692003963     -0.50983453756471     -0.21808845774030
  Br  0.10648802104463      2.12631003955582      0.97619312170103
  H   -0.12496275978063     -1.34979804794635     -0.66485432917008
  N   -1.36554863897004     -0.32565882911193      1.39523194517638
  H   -0.69320653934452     -0.78672901298975      1.99703864258633
  H   -2.03624932103630      0.24498824847312      1.89150813441712
  N   -1.76895596063510      0.75687805733637     -0.62329417531151
  O   -2.70244265537227      1.41343513375209     -0.18307941208409
  O   -1.65822509878050      0.33599681800546     -1.77023433667623
  N   1.17766415142107     -1.03796092647561      0.91707514439080
  H   1.62123085340356     -1.90892437601252      0.65476731025961
  H   1.90862189416410     -0.38113668574337      1.16806222541280
  C   1.28202461094509      0.15256307140238     -1.28264202757160
  H   0.68943114729074      0.61213295294388     -2.07171981141101
  H   1.91853072500475     -0.61247503475456     -1.73531161096713
  H   1.92685682025446      0.91194672208287     -0.83822094011694
