17
Coordinates from ORCA-job run
  C   -0.64626782758810      0.43853388295605      0.55905169127696
  C   0.38871114436646     -0.45712508272063     -0.15863524706161
  Br  0.25250616651160      1.92722972094521      1.43023828826570
  H   -0.22414474890934     -1.26611733316162     -0.57482112877690
  N   -1.46132749696064     -0.22476384295969      1.52399138025975
  H   -2.06445882655327     -0.87798483142512      1.03400576668406
  H   -0.83209227047828     -0.74816163228804      2.12487126200026
  N   -1.58327136747993      0.96248984939653     -0.53050904487537
  O   -1.48215841754455      2.10827838406141     -0.93959617992084
  O   -2.34787901657442      0.10358887520423     -0.96949959894756
  N   1.22460849625142     -1.04854517246966      0.87990516147148
  H   1.98272865677866     -0.41750704409405      1.11398672781366
  H   1.63186786807783     -1.91144364305124      0.54197026002503
  C   1.14052254822798      0.22886196058555     -1.29273013716481
  H   1.81764983990018     -0.49118762340069     -1.75898271476186
  H   1.73278920028685      1.06515892378101     -0.91610784434780
  H   0.47021605168756      0.60669460864075     -2.06813864194014
