17
Coordinates from ORCA-job run
  C   -0.72520701721476      0.34004551775588      0.34948076760459
  C   0.49368635785853     -0.47550324238726     -0.10759037561494
  Br  -0.25167412854624      2.31331545303544      0.26928101398633
  H   0.10164919102675     -1.49276146770532     -0.20640358395982
  N   -1.16879793631219     -0.08710597596009      1.59438014270815
  H   -0.37662920878081     -0.21212380053950      2.21372238446420
  H   -1.90454053162298      0.48909063467263      1.97957597400086
  N   -1.92490737162857      0.20961911812207     -0.58470556995142
  O   -1.81512078829199     -0.53212633704959     -1.55567256174096
  O   -2.93671294780280      0.80658744911791     -0.24387307605788
  N   1.42427570048204     -0.47606800566877      1.02400341893873
  H   2.01368940439550     -1.29753771772347      0.98105890347395
  H   2.02413791941158      0.33985048988171      0.96840270288386
  C   1.13017550238623     -0.05280935025686     -1.42573457426318
  H   1.63837307403596      0.90643708086417     -1.31859988195388
  H   1.87391688997520     -0.80345479111157     -1.70625732101029
  H   0.40268589062857      0.02254494495263     -2.23206836350830
