17

C	-0.384358	0.228794	-1.471155
C	0.0	0.0	0.0
Br	-2.360118	0.445786	-1.631966
H	1.108022	0.0	0.0
C	0.312088	1.412939	-2.131419
H	1.385979	1.317536	-1.935907
H	0.12099	1.397819	-3.205812
H	-0.040079	2.352419	-1.710477
C	-0.066822	-0.997743	-2.204207
N	0.187151	-1.92591	-2.87884
N	-0.502978	-1.22057	0.505939
H	-1.455295	-1.11736	0.833434
H	0.086624	-1.543937	1.261327
N	-0.435759	1.21229	0.815309
O	0.147296	2.273119	0.609153
O	-1.355523	1.056098	1.622535
Br	3.41546	0.0	0.0
