17

C	-0.582808	0.021979	-1.429848
C	0.0	0.0	0.0
Br	-0.070561	-1.701519	-2.244106
H	1.100484	0.0	0.0
C	-2.10468	0.105539	-1.423343
H	-2.496954	-0.025399	-2.432453
H	-2.48816	-0.680362	-0.772256
H	-2.412737	1.086714	-1.052939
C	-0.01425	1.040203	-2.310347
N	0.342041	1.83203	-3.102905
N	-0.506769	-1.132674	0.742797
H	0.269668	-1.771738	0.867108
H	-0.770096	-0.803909	1.663385
N	-0.393888	1.277762	0.701403
O	-0.401338	2.307914	0.033523
O	-0.644771	1.227578	1.905652
Br	3.373687	0.0	0.0
