17

C	-0.525627	-0.022947	-1.445931
C	0.0	0.0	0.0
Br	0.36669	1.30981	-2.579046
H	1.093319	0.0	0.0
C	-0.217306	-1.390074	-2.063365
H	-0.766491	-2.163331	-1.528777
H	0.854551	-1.577144	-1.963643
H	-0.494919	-1.386363	-3.1186
C	-1.96497	0.23905	-1.47637
N	-3.1324	0.381146	-1.468758
N	-0.446864	-1.150459	0.716841
H	0.183019	-1.315194	1.491117
H	-1.382208	-1.01953	1.083266
N	-0.408753	1.283091	0.731852
O	-0.686712	2.287455	0.084061
O	-0.403243	1.21722	1.960286
Br	3.417525	0.0	0.0
