17

C	-0.44182	-0.042315	-1.481512
C	0.0	0.0	0.0
Br	-0.081944	1.685227	-2.345319
H	1.090815	0.0	0.0
C	0.379457	-1.11399	-2.198544
H	1.44132	-0.906502	-2.042446
H	0.138446	-2.092747	-1.775927
H	0.143366	-1.123181	-3.263426
C	-1.870784	-0.312857	-1.633897
N	-2.992771	-0.633701	-1.781973
N	-0.444482	-1.115176	0.773568
H	-1.355569	-1.469163	0.517482
H	0.26105	-1.835503	0.803278
N	-0.544486	1.240712	0.650521
O	0.238202	2.084291	1.068109
O	-1.773545	1.296491	0.729389
Br	3.481132	0.0	0.0
