15

C	-0.445045	-0.012574	-1.433985
C	0.0	0.0	0.0
Cl	-2.1593	0.371769	-1.703246
H	1.08758	0.0	0.0
H	0.13946	0.745784	-1.953719
N	-0.090024	-1.322151	-2.116212
O	0.735122	-2.02439	-1.554347
O	-0.595622	-1.533428	-3.210204
N	-0.540263	-1.104318	0.813073
O	-1.388438	-1.843861	0.304411
O	-0.07875	-1.225546	1.944186
N	-0.40487	1.300647	0.586435
O	-0.037189	2.286407	-0.052113
O	-1.046959	1.329514	1.632651
F	2.433386	0.0	0.0
