15

C	-0.419856	-0.02049	-1.444298
C	0.0	0.0	0.0
Cl	0.215081	1.320222	-2.398033
H	1.089705	0.0	0.0
H	-0.042978	-0.938875	-1.888913
N	-1.917838	-0.058984	-1.670763
O	-2.306549	-0.698314	-2.641028
O	-2.622556	0.573476	-0.892692
N	-0.416888	-1.26321	0.646935
O	0.027608	-1.484127	1.768165
O	-1.13474	-2.037274	0.000702
N	-0.507272	1.143624	0.795962
O	-1.231332	0.930793	1.764235
O	-0.129874	2.24889	0.419684
F	2.437047	0.0	0.0
