15

C	-0.569297	0.035218	-1.390957
C	0.0	0.0	0.0
Cl	-2.272118	-0.441558	-1.50352
H	1.089207	0.0	0.0
H	-0.485244	1.04815	-1.768814
N	0.268836	-0.796311	-2.348487
O	1.254491	-0.205303	-2.76905
O	-0.084508	-1.932671	-2.632056
N	-0.445029	-1.219149	0.715446
O	-1.20646	-1.139094	1.674764
O	-0.011657	-2.261188	0.229612
N	-0.395506	1.211154	0.755851
O	-0.997479	2.115265	0.166823
O	-0.016394	1.263157	1.920677
F	2.422713	0.0	0.0
