15

C	-0.443931	-0.006638	-1.432553
C	0.0	0.0	0.0
Cl	0.356608	1.232627	-2.377386
H	1.089489	0.0	0.0
H	-0.169958	-0.9765	-1.84537
N	-1.961871	0.069988	-1.599912
O	-2.584731	-0.615499	-0.795182
O	-2.441734	0.709555	-2.522399
N	-0.403057	-1.25552	0.683111
O	-0.910706	-1.207588	1.795745
O	-0.141398	-2.285137	0.065004
N	-0.484967	1.170953	0.750534
O	-1.313573	1.907312	0.202608
O	0.002977	1.358039	1.861016
F	2.433849	0.0	0.0
