15

C	-0.641947	-0.004329	-1.364617
C	0.0	0.0	0.0
Cl	-0.136694	-1.448227	-2.252546
H	1.086182	0.0	0.0
H	-1.728935	0.012147	-1.328336
N	-0.251041	1.19747	-2.192724
O	0.810468	1.751823	-1.956833
O	-1.055169	1.491773	-3.074921
N	-0.502299	-1.224142	0.709528
O	-1.729878	-1.331941	0.807418
O	0.31528	-2.029809	1.133349
N	-0.528054	1.126091	0.797629
O	-0.317939	1.092699	2.006028
O	-1.118968	2.03302	0.203327
F	2.446463	0.0	0.0
