15

C	0.0	0.0	0.0
C	-0.543594	0.307612	-1.386853
Br	1.957019	0.0	0.0
H	-1.638185	0.265308	-1.250873
H	-0.292431	-1.026257	0.224171
C	-0.494568	0.969768	1.053078
H	-0.150319	0.665659	2.04363
H	-0.130948	1.980696	0.852902
H	-1.588442	0.954771	1.029724
N	-0.15393	-0.713703	-2.350747
H	0.810618	-0.572543	-2.629261
H	-0.73859	-0.633592	-3.173856
C	-0.185798	1.675847	-1.81038
N	0.078332	2.757419	-2.188485
Br	-3.873248	0.0	0.0
