15

C	0.0	0.0	0.0
C	-0.404868	0.286071	-1.476017
Br	1.953291	0.0	0.0
H	0.091828	1.227679	-1.745917
H	-0.293113	-1.015795	0.276871
C	-0.574235	1.014057	0.963546
H	-0.20522	0.838418	1.975
H	-1.66462	0.913913	0.968536
H	-0.302063	2.030008	0.664058
N	-1.808161	0.41829	-1.779287
H	-2.234091	1.184188	-1.272326
H	-2.351631	-0.390901	-1.494182
C	0.158246	-0.7516	-2.360609
N	0.574289	-1.582858	-3.077404
Br	-4.536358	0.0	0.0
