15

C	-0.58016	0.022739	-1.399088
C	0.0	0.0	0.0
F	-0.478833	-1.21146	-1.949464
H	1.106293	0.0	0.0
H	-1.620177	0.348521	-1.415193
N	0.187816	0.996245	-2.266957
O	0.26534	0.720519	-3.456521
O	0.597645	2.005258	-1.709269
N	-0.53146	-1.241337	0.658586
O	-1.748534	-1.249665	0.855495
O	0.254611	-2.137901	0.921426
N	-0.510423	1.123123	0.839455
O	-0.058646	1.165	1.977776
O	-1.347653	1.887032	0.362779
Br	3.330407	0.0	0.0
