15

C	-0.489878	0.001017	-1.418186
C	0.0	0.0	0.0
F	0.066809	1.033043	-2.091819
H	1.090417	0.0	0.0
H	-0.234197	-0.94359	-1.903923
N	-1.998936	0.117524	-1.530412
O	-2.461904	0.91874	-2.325488
O	-2.612026	-0.660406	-0.810064
N	-0.438989	-1.229635	0.717179
O	-0.015834	-2.272539	0.222784
O	-1.075822	-1.115831	1.759904
N	-0.447552	1.18283	0.77707
O	0.276677	1.492066	1.718438
O	-1.437753	1.803296	0.382078
Br	2.7432	0.0	0.0
