15

C	-0.501	0.025069	-1.426808
C	0.0	0.0	0.0
F	-1.781858	0.455357	-1.535863
H	1.087672	0.0	0.0
H	0.152078	0.673843	-2.013343
N	-0.40496	-1.346476	-2.055248
O	-1.19834	-1.587709	-2.955291
O	0.50101	-2.064005	-1.653849
N	-0.55154	-1.117701	0.80282
O	-1.578074	-1.655947	0.38552
O	0.046187	-1.392975	1.835442
N	-0.424429	1.292641	0.633966
O	-0.093159	2.294329	0.01059
O	-1.035638	1.261139	1.694552
Br	3.297789	0.0	0.0
