15

C	-0.454186	-0.02925	-1.44417
C	0.0	0.0	0.0
F	-0.015985	1.053415	-2.129609
H	1.092725	0.0	0.0
H	-0.092083	-0.93729	-1.922993
N	-1.955675	-0.038344	-1.613812
O	-2.377161	-0.602627	-2.618233
O	-2.62495	0.568318	-0.781907
N	-0.424816	-1.249047	0.686901
O	-1.209135	-1.991204	0.083935
O	0.063186	-1.46082	1.788425
N	-0.484747	1.18511	0.773927
O	-1.141104	1.001704	1.78877
O	-0.150009	2.263928	0.30548
Br	3.274004	0.0	0.0
