15

C	-0.637892	0.009974	-1.369481
C	0.0	0.0	0.0
F	-0.283045	-1.131308	-2.022256
H	1.086576	0.0	0.0
H	-1.722774	0.079073	-1.327243
N	-0.17052	1.165823	-2.213888
O	0.751143	1.860969	-1.806158
O	-0.77574	1.282933	-3.278044
N	-0.510776	-1.2331	0.693562
O	0.302442	-2.052265	1.093037
O	-1.737789	-1.307512	0.795828
N	-0.505205	1.13656	0.81914
O	-1.214804	1.972627	0.260869
O	-0.174131	1.139681	1.997698
Br	3.351514	0.0	0.0
