16

C	-0.529041	0.010775	-1.434577
C	0.0	0.0	0.0
Br	0.402093	-1.294647	-2.53253
H	1.11324	0.0	0.0
C	-1.960324	-0.268065	-1.498988
N	-3.10242	-0.549177	-1.473963
N	-0.287165	1.371175	-2.115532
O	0.671849	2.013005	-1.722531
O	-1.062612	1.663534	-3.019326
C	-0.412596	-1.27282	0.749969
H	0.061732	-1.248484	1.732353
H	-1.4951	-1.354301	0.873935
H	-0.033363	-2.148998	0.222829
C	-0.518559	1.173633	0.696022
N	-0.978655	2.085333	1.278815
Cl	3.237651	0.0	0.0
