16

C	-0.417755	0.000452	-1.475495
C	0.0	0.0	0.0
Br	-2.353082	-0.228453	-1.718164
H	1.099679	0.0	0.0
C	-0.054134	1.240355	-2.147268
N	0.200323	2.25279	-2.689126
N	0.266021	-1.170995	-2.21493
O	-0.091714	-2.293797	-1.89369
O	1.109835	-0.87355	-3.046034
C	-0.43392	-1.207725	0.833282
H	-0.083918	-1.038199	1.85301
H	0.0413	-2.111684	0.460363
H	-1.518161	-1.336802	0.842396
C	-0.488888	1.232637	0.606317
N	-0.9096	2.197072	1.129983
Cl	3.181003	0.0	0.0
