17

C	0.0	0.0	0.0
C	-0.48133	0.113629	-1.439902
Cl	1.816861	0.0	0.0
H	-0.15789	-0.787335	-1.984296
H	-1.575703	0.100264	-1.377684
C	-0.465433	1.182175	0.827746
H	-0.11133	2.114269	0.389474
H	-1.559976	1.170946	0.826957
H	-0.102425	1.094063	1.854823
C	-0.469771	-1.313432	0.5968
H	-1.564443	-1.307205	0.602498
H	-0.111709	-2.161223	0.006604
H	-0.103096	-1.423632	1.620457
N	-0.05665	1.360235	-2.074474
H	-0.680044	1.565531	-2.844435
H	0.878644	1.252577	-2.446514
Br	-4.098249	0.0	0.0
