17

C	0.0	0.0	0.0
C	-0.475397	0.009363	-1.446948
Cl	1.81685	0.0	0.0
H	-1.569946	0.007224	-1.390271
H	-0.156475	0.957679	-1.907985
C	-0.472178	1.257436	0.704627
H	-0.109998	1.278389	1.735711
H	-1.566898	1.249629	0.705517
H	-0.112485	2.153582	0.191459
C	-0.470986	-1.24701	0.722025
H	-1.565341	-1.230574	0.727207
H	-0.102779	-1.255018	1.751448
H	-0.126086	-2.139148	0.200568
N	-0.037108	-1.173561	-2.185726
H	-0.612998	-1.27423	-3.013417
H	0.924426	-1.048407	-2.484494
Br	-4.087792	0.0	0.0
