17

C	0.0	0.0	0.0
C	-0.331366	0.004578	-1.514011
Cl	1.808785	0.0	0.0
H	0.181601	0.870495	-1.948629
H	0.143333	-0.883219	-1.948876
C	-0.503554	1.251805	0.689913
H	-0.159235	1.290569	1.726183
H	-0.150953	2.148486	0.173053
H	-1.597983	1.234286	0.686781
C	-0.506217	-1.2502	0.690294
H	-1.600683	-1.238861	0.674607
H	-0.175367	-1.278809	1.731935
H	-0.142138	-2.148728	0.185424
N	-1.713186	0.038814	-1.92085
H	-2.197854	0.848101	-1.553693
H	-2.245346	-0.739256	-1.551031
Br	-4.452026	0.0	0.0
