17

C	0.0	0.0	0.0
C	-0.458641	0.045829	-1.455581
Cl	1.816606	0.0	0.0
H	-1.554235	0.017379	-1.444151
H	-0.099897	-0.869917	-1.951114
C	-0.451469	1.219845	0.784414
H	-1.544854	1.235579	0.842796
H	-0.107176	2.126621	0.287481
H	-0.042269	1.182442	1.797855
C	-0.453661	-1.299755	0.645087
H	-0.102156	-1.356542	1.678407
H	-1.54767	-1.345839	0.632458
H	-0.051911	-2.157594	0.098564
N	-0.033976	1.277077	-2.126667
H	0.928197	1.180541	-2.427372
H	-0.606546	1.414556	-2.950501
Br	-4.267709	0.0	0.0
