17

C	0.0	0.0	0.0
C	-0.48119	-0.1099	-1.440215
Cl	1.81661	0.0	0.0
H	-1.575622	-0.097047	-1.378368
H	-0.157888	0.79264	-1.982168
C	-0.469713	1.31183	0.600349
H	-1.564408	1.305491	0.606304
H	-0.111846	2.161232	0.012374
H	-0.102801	1.419302	1.624226
C	-0.465465	-1.184415	0.824489
H	-0.110792	-2.11532	0.38415
H	-0.103272	-1.098746	1.852048
H	-1.560036	-1.173412	0.822849
N	-0.055943	-1.354672	-2.078126
H	-0.678153	-1.557182	-2.849861
H	0.88001	-1.245955	-2.448331
Br	-4.098046	0.0	0.0
