17

C	0.0	0.0	0.0
C	-0.469929	0.284895	-1.431171
Cl	1.812422	0.0	0.0
H	-0.038248	1.242215	-1.743751
H	-1.557334	0.402121	-1.370229
C	-0.464829	1.115541	0.918363
H	-0.080343	0.970636	1.931686
H	-0.118124	2.085934	0.551619
H	-1.559095	1.102758	0.937123
C	-0.475578	-1.349988	0.498699
H	-0.13763	-1.519231	1.524309
H	-1.570477	-1.347987	0.473458
H	-0.092139	-2.160728	-0.124471
N	-0.170552	-0.717724	-2.444445
H	-0.77793	-1.515421	-2.310092
H	0.78818	-1.030698	-2.344297
Br	-4.031992	0.0	0.0
