13
Coordinates from ORCA-job run
  C   0.49360323752148     -0.75835065558194     -0.11063721234037
  C   -0.53093519813977      0.31086420244182      0.27697802388574
  H   0.37602560733434     -0.95790060715362     -1.18399165825966
  H   -0.41574475442882      0.49655184333944      1.35447948640218
  H   0.23130849479653     -1.67423519232770      0.42891083096392
  N   1.82351772955092     -0.33786770201604      0.31112550498366
  H   2.18796778588815      0.35188114176026     -0.33544980799514
  H   2.45819836719683     -1.12541414032015      0.29965647317086
  N   -1.86828145473815     -0.11454287221216     -0.13311277918284
  H   -2.13531124364645     -0.92258380003698      0.41737020593807
  H   -2.54243536758562      0.61768702134544      0.05531837190283
  C   -0.19027170181658      1.56296975738191     -0.41188737035980
  N   0.11335849806714      2.55094100337972     -0.96776006910943
