17
Coordinates from ORCA-job run
  C   -0.41594125392834      0.14577565751045     -0.45573066029417
  C   0.91528373056177     -0.54893215657483     -0.09424294927587
  Br  -0.23451539574411      0.78829394608640     -2.30290175468810
  H   1.10892301476029     -1.35906807038739     -0.80060848229915
  C   -0.75771212469112      1.32479769131728      0.44107246642545
  H   -0.01895674779816      2.12095097745107      0.37466882444268
  H   -0.81831345672613      0.99288922015665      1.48179721096218
  H   -1.72976663082474      1.72393488848631      0.14612851292129
  C   -1.51716828836818     -0.90865748274158     -0.43113771230024
  H   -1.27620206123970     -1.75480041172685     -1.07821943055506
  H   -1.66477030871073     -1.27072768613130      0.59055136367273
  H   -2.45276119376542     -0.46793682167956     -0.77862591669745
  C   0.86916390818960     -1.06477757141697      1.27129630551193
  N   0.79122561481683     -1.49708972674012      2.36080421567081
  N   2.11139122931930      0.36943537188635     -0.21182619308127
  O   2.86672449613892      0.15664376602300     -1.15292519040318
  O   2.22039546800991      1.24826840848108      0.63689938998744
