17
Coordinates from ORCA-job run
  C   -0.64433055663347     -0.16773512633607      0.13686848498206
  C   0.78089918028362     -0.71138673049639      0.38616441301649
  Br  -1.78393407512838     -1.27594950075555      1.30029302466329
  H   0.80034663423943     -1.78809409252134      0.20938647678546
  C   -1.06213967853113     -0.40621693132630     -1.30629944127338
  H   -0.90929134434104     -1.44476888422376     -1.60498014963804
  H   -0.48559408068543      0.23829631585614     -1.97592313288329
  H   -2.11830711469054     -0.16072369222715     -1.42518805998538
  C   -0.81120493609777      1.28417059840980      0.55145777454886
  H   -0.16862626610457      1.92230843244601     -0.05961157786394
  H   -0.55466385923492      1.43492242210515      1.60087016447611
  H   -1.84934301725750      1.58592527064233      0.40217827705167
  C   1.29066589167169     -0.40158075979501      1.71620657194465
  N   1.69854473042728     -0.15778081032943      2.79020706271326
  N   1.72386133489314     -0.12649234839067     -0.64707209645670
  O   1.97679375370795     -0.84677619315104     -1.60791501485896
  O   2.11832340348164      1.02088203009326     -0.46664277722215
