17
Coordinates from ORCA-job run
  C   -0.62766117778630     -0.22803080026697      0.12847685030125
  C   0.83707592841039     -0.70061858007479      0.27154161530114
  Br  -1.65626995462821     -1.55419329071861      1.15943695994592
  H   0.92091281443864     -1.74166002687743     -0.04498287361863
  C   -1.07328895992844     -0.30343716505874     -1.32424423247952
  H   -0.56218378524023      0.46318545982717     -1.91359622390886
  H   -0.86024585078907     -1.28005889885169     -1.76240325636557
  H   -2.14688886416933     -0.12001306974502     -1.38635806546502
  C   -0.87534807609508      1.14240238573268      0.73519783389657
  H   -0.59958233831812      1.17125396488623      1.79011648754373
  H   -1.93437588575910      1.39105865562252      0.64747272188689
  H   -0.29227609588137      1.89654573234149      0.20162048457839
  C   1.36744136255066     -0.53105582150439      1.61872249188417
  N   1.79248597975451     -0.40308392955450      2.70603845073574
  N   1.70636904848783      0.07612692954808     -0.69788819447327
  O   2.02983705943736      1.21538097449532     -0.37854006352480
  O   1.97399879551587     -0.49480251980134     -1.75061098623814
