16

C	-0.333852	-0.045839	-1.483048
C	0.0	0.0	0.0
Cl	-0.260416	1.696761	-2.190328
H	1.095063	0.0	0.0
H	-0.312024	-0.977921	0.390761
N	0.629506	-0.881644	-2.101304
H	1.564973	-0.681466	-1.726948
H	0.622767	-0.784284	-3.108839
N	-1.713121	-0.433777	-1.74841
H	-1.900068	-0.329433	-2.741026
H	-1.750766	-1.428281	-1.538445
C	-0.626152	1.120986	0.804402
H	-0.484212	0.932794	1.872888
H	-0.151631	2.074333	0.570569
H	-1.697579	1.205452	0.601488
H	3.031802	0.0	0.0
