16

C	-0.358972	-0.041284	-1.475289
C	0.0	0.0	0.0
Cl	-0.20154	1.704245	-2.146316
H	1.095268	0.0	0.0
H	-0.389186	0.911321	0.455367
N	0.555746	-0.917337	-2.116348
H	0.52191	-0.825526	-3.124845
H	1.507006	-0.73917	-1.771276
N	-1.75571	-0.362353	-1.730138
H	-1.842541	-1.36125	-1.572038
H	-1.95823	-0.193232	-2.709735
C	-0.491202	-1.237803	0.742115
H	-1.582761	-1.271359	0.822285
H	-0.07251	-1.239377	1.752269
H	-0.138779	-2.145107	0.24484
H	3.028363	0.0	0.0
