16

C	-0.185771	-0.018947	-1.501715
C	0.0	0.0	0.0
Cl	-1.981947	0.038336	-1.963134
H	1.099233	0.0	0.0
H	-0.352746	0.959137	0.39298
N	0.416204	1.138026	-2.14796
H	-0.00526	1.980627	-1.767353
H	1.389728	1.123364	-1.826075
N	0.375561	-1.231336	-2.023095
H	1.302722	-1.312325	-1.596596
H	0.504113	-1.098016	-3.020622
C	-0.572744	-1.176009	0.767121
H	-1.665646	-1.195424	0.720212
H	-0.268429	-1.120051	1.816695
H	-0.19992	-2.115358	0.357107
H	2.953617	0.0	0.0
