16

C	-0.613807	-0.049899	-1.386213
C	0.0	0.0	0.0
Cl	-0.029798	-1.592652	-2.26242
H	1.090965	0.0	0.0
H	-0.316415	0.967113	0.416907
N	-2.058458	-0.099114	-1.30855
H	-2.429293	-0.228083	-2.245389
H	-2.336998	-0.912311	-0.770562
N	-0.150605	1.036173	-2.195304
H	-0.172834	1.889762	-1.651631
H	-0.728749	1.144416	-3.020098
C	-0.45686	-1.111654	0.937362
H	-1.504585	-1.023305	1.248064
H	-0.299996	-2.091564	0.479786
H	0.166999	-1.076791	1.833624
H	3.085786	0.0	0.0
