17

C	-0.372381	-0.038912	-1.489125
C	0.0	0.0	0.0
F	-0.065688	1.276747	-1.967781
H	1.103257	0.0	0.0
N	0.440961	-1.012932	-2.107947
H	0.324558	-0.998695	-3.113381
H	1.42073	-0.866792	-1.867689
C	-1.844073	-0.235175	-1.773515
H	-2.156108	-1.232572	-1.463206
H	-2.027422	-0.117452	-2.845444
H	-2.41844	0.514775	-1.229066
C	-0.480487	-1.211422	0.663431
N	-0.857074	-2.179464	1.21101
N	-0.583397	1.182808	0.645968
H	-0.233309	1.205865	1.598462
H	-0.168398	1.979422	0.173881
Br	3.538206	0.0	0.0
