17

C	-0.489903	-0.068329	-1.446979
C	0.0	0.0	0.0
F	-1.919985	-0.245672	-1.372078
H	1.096326	0.0	0.0
N	-0.178435	1.145488	-2.090947
H	-0.648863	1.207714	-2.983489
H	-0.431142	1.91514	-1.482703
C	0.063318	-1.262296	-2.184934
H	1.153103	-1.21959	-2.15
H	-0.272615	-1.24141	-3.225768
H	-0.284338	-2.188975	-1.726393
C	-0.449746	-1.191528	0.736307
N	-0.800971	-2.122469	1.361141
N	-0.445604	1.244488	0.630403
H	0.238262	1.510679	1.327599
H	-1.342823	1.116221	1.080298
Br	3.499676	0.0	0.0
