17

C	-0.491502	-0.030805	-1.447541
C	0.0	0.0	0.0
F	-1.928033	-0.165594	-1.368538
H	1.09368	0.0	0.0
N	-0.144519	1.182991	-2.072163
H	-0.619038	1.279215	-2.959568
H	-0.359626	1.951901	-1.449062
C	0.019299	-1.228942	-2.209309
H	1.110195	-1.225617	-2.173967
H	-0.36284	-2.15186	-1.770551
H	-0.314342	-1.173314	-3.249452
C	-0.452987	-1.210496	0.704297
N	-0.803806	-2.169845	1.284874
N	-0.451595	1.229276	0.653654
H	-1.381555	1.104714	1.033613
H	0.187892	1.446672	1.407742
Br	3.503881	0.0	0.0
