17

C	-0.347995	0.019242	-1.495845
C	0.0	0.0	0.0
F	-1.750614	0.114676	-1.586951
H	1.094954	0.0	0.0
N	0.20034	1.180269	-2.135282
H	0.068599	1.953589	-1.488114
H	1.205078	1.03969	-2.210536
C	0.09767	-1.242877	-2.194462
H	-0.099616	-1.139539	-3.263037
H	1.167187	-1.39579	-2.027296
H	-0.450588	-2.10328	-1.807904
C	-0.508044	-1.201409	0.673502
N	-0.921497	-2.141474	1.245744
N	-0.444381	1.241211	0.62831
H	0.134599	1.424459	1.437764
H	-1.409332	1.164208	0.922748
Br	3.472708	0.0	0.0
