17

C	-0.37021	-0.01928	-1.489921
C	0.0	0.0	0.0
F	-0.064164	1.303968	-1.948732
H	1.105179	0.0	0.0
N	0.445318	-0.983448	-2.12052
H	1.423607	-0.840611	-1.874446
H	0.333034	-0.95333	-3.12557
C	-1.840938	-0.21334	-1.77854
H	-2.152742	-1.214941	-1.481146
H	-2.022416	-0.082191	-2.849054
H	-2.417039	0.52898	-1.22582
C	-0.482786	-1.219159	0.647212
N	-0.893277	-2.17246	1.196483
N	-0.585185	1.173742	0.659692
H	-0.239233	1.184076	1.614064
H	-0.168425	1.976665	0.199813
Br	3.536741	0.0	0.0
