17

C	-0.38669	-0.032015	-1.493689
C	0.0	0.0	0.0
F	-0.076822	1.255319	-1.958646
H	1.10498	0.0	0.0
N	0.423922	-0.944367	-2.2463
H	0.13346	-1.89679	-2.063506
H	1.395623	-0.845687	-1.952871
C	-1.861419	-0.251223	-1.743717
H	-2.056479	-0.10855	-2.807734
H	-2.162007	-1.260562	-1.453666
H	-2.435837	0.467062	-1.157521
C	-0.455666	-1.242404	0.625606
N	-0.837828	-2.243766	1.106416
N	-0.595462	1.154133	0.683459
H	-0.209395	1.182091	1.622227
H	-0.223931	1.968352	0.205089
Br	3.520812	0.0	0.0
