16
Coordinates from ORCA-job run
  C   -0.89900372892606      0.24171157681600     -0.29678183126168
  C   0.54141208410112     -0.26774602905451     -0.27453361855245
  Br  -1.63811642590387     -0.12030645938465     -2.07112895526669
  H   0.55737363281352     -1.34320796238751     -0.46034901910125
  H   -0.89631458919669      1.32870448312969     -0.19777557127331
  C   -1.78122537034336     -0.40080948662919      0.75866585635070
  H   -1.43458147000822     -0.12141225501853      1.75687813672993
  H   -2.81141402144779     -0.05995589974345      0.65222277157220
  H   -1.76461154629913     -1.48916967921369      0.67129658655283
  N   1.01752298645811     -0.11485730001740      1.14292046924454
  O   1.29284224011322     -1.13666084632075      1.76734535929872
  O   1.07660773418945      1.03258219238917      1.58184396155687
  C   1.50393582923903      0.47707720586259     -1.18076931567332
  H   1.23619520848906      0.31336138131329     -2.22392556814841
  H   1.47457114506450      1.54607328440191     -0.96568388048809
  H   2.52280629165711      0.11561579385701     -1.02522538154059
