16
Coordinates from ORCA-job run
  C   -0.88902642570480     -0.34413688374791     -0.54837940796115
  C   0.63501361089460     -0.36296146241146     -0.41487967243403
  Br  -1.61435828821928     -2.11966973310420     -0.93803457062551
  H   1.04638439573477     -1.09715298082426     -1.11432860651934
  H   -1.09378894383590      0.20956239048572     -1.46684859628255
  C   -1.64249848909498      0.29407536108151      0.60719500818364
  H   -1.22421017244877      1.27946869924269      0.83274474025719
  H   -2.69076761821665      0.42615799548703      0.33686647233425
  H   -1.59179048436611     -0.32646460000840      1.49990583869113
  N   1.08631927411285     -0.86262618243220      0.94164996212027
  O   0.38287606630694     -1.69397783107333      1.50704875882056
  O   2.16024884654356     -0.44053021281751      1.36406517297838
  C   1.24492657335570      1.00418908068774     -0.68738742749971
  H   0.94282638547880      1.34172379504703     -1.68082722340420
  H   2.33097444737760      0.95240460667575     -0.65307636771661
  H   0.91887082208168      1.73993795771180      0.04928591905768
