16
Coordinates from ORCA-job run
  C   -0.91173423347806     -0.35985002229119     -0.51133454005764
  C   0.61533266667725     -0.39732824702205     -0.45606647403247
  Br  -1.60660540437090     -2.18929998534807     -0.44046863753699
  H   0.97617230680922     -1.06406651991743     -1.24015044522975
  H   -1.16220617941533     -0.01639956442749     -1.51872477287938
  C   -1.62402798853078      0.49720308053342      0.51959086803745
  H   -2.69645466942274      0.48720979455826      0.32067139978961
  H   -1.27598595161957      1.53128863953781      0.45865418875666
  H   -1.45080480685162      0.13146690062552      1.52982670518165
  N   1.09943158916564     -1.03307281191679      0.81421049868547
  O   1.67266539851860     -2.11531691568002      0.71958487487985
  O   0.89981092225770     -0.41724201265827      1.86065041366685
  C   1.24430888177545      0.98165507362802     -0.57827286276266
  H   0.88662249717234      1.47445094315265     -1.48520261285207
  H   2.33044678991005      0.89037638618525     -0.64588762788017
  H   1.00302818140274      1.59992526104037      0.28491902423358
