16
Coordinates from ORCA-job run
  C   -0.84695772102347     -0.34326189790555      0.41475978794254
  C   0.51708118611452     -0.26533529540365     -0.27516505046680
  Br  -0.86309051257143      0.43742174996195      2.20412673924504
  H   0.34270457988687     -0.54083869301670     -1.31821519087969
  H   -1.09940312534749     -1.39637566802843      0.56408525528528
  C   -1.92213928621312      0.32191141143731     -0.43212136072727
  H   -2.00192358009870     -0.19292556115151     -1.39423656866452
  H   -1.69391432643824      1.37349276194521     -0.61344404003455
  H   -2.88899876591770      0.27192435751494      0.06880964133572
  N   1.42096994772310     -1.35527007294669      0.22669708569526
  O   1.67948088988613     -2.26662629904276     -0.55913558002328
  O   1.81605770635368     -1.27098310775679      1.38541076183361
  C   1.24987928521268      1.06013070303228     -0.17682524252160
  H   1.57299066954996      1.23293967300118      0.84862615295940
  H   0.59483608555128      1.88025282439570     -0.47424355878172
  H   2.12142696733192      1.05354311396350     -0.83412883219742
