16
Coordinates from ORCA-job run
  C   -0.90319881389129      0.21562277955647     -0.30295214435777
  C   0.55420886171850     -0.24235310858396     -0.27328399426625
  Br  -1.60660855127553     -0.13092475820188     -2.09511519488757
  H   0.61134092336823     -1.31216666052775     -0.48218727559839
  H   -0.94107155899427      1.29944739423615     -0.17951075380797
  C   -1.77508386548719     -0.48256558819782      0.72527610393785
  H   -1.45061528947674     -0.21578905007841      1.73434178761546
  H   -1.71917855705098     -1.56722291798412      0.61206727042203
  H   -2.81524149201014     -0.17528399383770      0.61373409830893
  N   1.00686522652111     -0.10457802572940      1.15356482696926
  O   1.30993378290444     -1.12994914803004      1.75886101199626
  O   1.01952876803253      1.03408116509791      1.61819246428028
  C   1.50029115767414      0.55690392998976     -1.14990671266399
  H   2.52971081942153      0.22943923291680     -0.98866364768507
  H   1.42900472030575      1.61895393072494     -0.91142330510817
  H   1.25211386823990      0.40738481864905     -2.19999453515489
