19

C	-0.521245	-0.05304	-1.541279
C	0.166677	0.040268	-0.166762
Cl	-2.262832	-0.369982	-1.352987
H	1.232917	0.175472	-0.377582
N	-0.34393	1.298021	-2.226653
O	0.814238	1.542991	-2.559699
O	-1.29354	2.05952	-2.365068
C	0.082372	-1.124914	-2.421954
H	-0.421759	-1.161148	-3.390493
H	-0.029529	-2.071819	-1.897933
H	1.142923	-0.91799	-2.564018
N	0.032661	-1.250314	0.488705
H	-0.798578	-1.238447	1.0704
H	0.838771	-1.32625	1.114751
C	-0.297591	1.227216	0.668672
H	-0.131172	2.186414	0.169781
H	-1.36078	1.142377	0.912957
H	0.292586	1.213127	1.586561
Br	2.828468	-0.446322	2.258207
