19

C	-0.381098	-0.042294	-1.474235
C	-0.011426	-0.12562	0.012513
Cl	0.231077	-1.512436	-2.289215
H	1.078275	-0.290124	0.005877
N	-1.907755	-0.048786	-1.594643
O	-2.502259	-1.078172	-1.880937
O	-2.445738	1.028513	-1.340601
C	0.189671	1.168502	-2.176114
H	1.260224	1.215268	-1.956957
H	-0.288785	2.071703	-1.802368
H	0.025074	1.091538	-3.25311
N	-0.786054	-1.207288	0.630593
H	-0.497364	-2.094353	0.232141
H	-0.540067	-1.234349	1.613505
C	-0.248837	1.165761	0.778328
H	0.396385	1.956063	0.398623
H	0.054362	1.000187	1.816562
H	-1.298595	1.462028	0.757174
Br	3.393486	1.214695	-0.150525
