19

C	-0.541143	-0.084254	-1.535834
C	0.168478	0.013247	-0.172797
Cl	-2.288733	-0.344653	-1.317863
H	1.23767	0.11309	-0.400708
N	-0.333117	1.248005	-2.249062
O	-1.261469	2.034955	-2.38946
O	0.827084	1.451796	-2.602113
C	0.017292	-1.18987	-2.404358
H	1.081294	-1.017762	-2.565774
H	-0.115237	-2.123149	-1.861039
H	-0.502031	-1.228857	-3.36476
N	0.005183	-1.260465	0.508411
H	-0.813104	-1.210805	1.106181
H	0.821289	-1.352851	1.119151
C	-0.24816	1.228608	0.646553
H	-0.061105	2.173003	0.127189
H	0.354424	1.214152	1.556361
H	-1.30969	1.180195	0.907589
Br	2.861583	-0.516649	2.203174
