14

C	-0.189897	-0.31179	-1.492434
C	0.0	0.0	0.0
F	-1.390507	-1.037576	-1.706588
H	1.104719	0.0	0.0
H	-0.347868	0.607597	-2.07166
N	0.917947	-1.105019	-1.907216
H	1.754861	-0.814718	-1.372282
H	1.080297	-1.018825	-2.901178
N	-0.418929	-1.088989	0.884808
H	0.402843	-1.663073	1.031476
H	-1.107598	-1.65403	0.39908
C	-0.614795	1.264104	0.376294
N	-1.103849	2.289034	0.681104
F	2.656993	0.0	0.0
