14

C	-0.172972	0.066727	-1.524052
C	0.0	0.0	0.0
F	-0.061098	-1.287496	-1.998327
H	1.10354	0.0	0.0
H	-1.16302	0.373356	-1.878016
N	0.86085	0.889547	-1.999323
H	0.949098	0.854648	-3.004838
H	1.738706	0.646675	-1.507554
N	-0.653151	-1.180066	0.588139
H	-0.326908	-1.960627	0.029356
H	-0.235571	-1.305531	1.505396
C	-0.519966	1.2203	0.600869
N	-0.926051	2.196701	1.114015
F	2.684312	0.0	0.0
