14

C	-0.179384	-0.097628	-1.520574
C	0.0	0.0	0.0
F	-1.417244	-0.706561	-1.843039
H	1.097647	0.0	0.0
H	-0.260095	0.90126	-1.971802
N	0.8896	-0.897354	-2.021624
H	1.06889	-0.696133	-2.995921
H	1.73234	-0.685804	-1.457523
N	-0.428175	-1.197587	0.720978
H	-1.187483	-1.631618	0.210341
H	0.360297	-1.834122	0.702367
C	-0.612541	1.201935	0.542877
N	-1.111649	2.181268	0.957811
F	2.653777	0.0	0.0
