14

C	-0.480027	0.044447	-1.443375
C	0.0	0.0	0.0
F	-0.463253	1.359819	-1.899084
H	1.098849	0.0	0.0
H	0.263243	-0.483119	-2.05562
N	-1.820159	-0.463427	-1.570455
H	-1.99731	-0.729813	-2.532073
H	-1.845004	-1.302767	-0.999343
N	-0.323011	-1.331196	0.57949
H	-0.930046	-1.239023	1.384874
H	0.56729	-1.691827	0.904229
C	-0.560096	1.084575	0.787059
N	-0.991727	1.933389	1.477527
F	2.579862	0.0	0.0
