14

C	-0.208894	-0.018932	-1.530288
C	0.0	0.0	0.0
F	-0.087126	-1.34062	-1.939831
H	1.093335	0.0	0.0
H	-1.203712	0.319128	-1.8504
N	0.820174	0.748915	-2.170188
H	1.676535	0.625199	-1.609729
H	0.566479	1.727967	-2.184046
N	-0.576231	-1.128402	0.731945
H	-1.22971	-0.808031	1.434143
H	0.189867	-1.58925	1.206717
C	-0.450639	1.290659	0.500144
N	-0.860328	2.318622	0.901436
F	2.640424	0.0	0.0
