14

C	-0.184991	0.31125	-1.489458
C	0.0	0.0	0.0
F	-1.426652	-0.187995	-1.958227
H	1.097984	0.0	0.0
H	-0.266008	1.392393	-1.659837
N	0.877786	-0.333648	-2.18871
H	1.044894	0.108459	-3.081193
H	1.726253	-0.276962	-1.599373
N	-0.424169	-1.349381	0.372039
H	0.370832	-1.950974	0.194466
H	-1.171612	-1.637046	-0.249339
C	-0.6128	1.009165	0.849325
N	-1.105372	1.844102	1.514177
F	2.648523	0.0	0.0
