14

C	-0.201372	-0.060044	-1.530829
C	0.0	0.0	0.0
F	-0.250298	-1.426629	-1.876939
H	1.100567	0.0	0.0
H	-1.153648	0.360064	-1.873463
N	0.903255	0.544993	-2.193395
H	1.736725	0.465309	-1.586621
H	0.711244	1.509863	-2.416814
N	-0.67	-1.077635	0.742444
H	-0.143084	-1.19898	1.601416
H	-0.503416	-1.915153	0.197351
C	-0.470196	1.306011	0.450311
N	-0.832687	2.368745	0.799067
F	2.674788	0.0	0.0
