14

C	-0.563694	0.00091	-1.402038
C	0.0	0.0	0.0
F	-1.996451	0.155187	-1.323586
H	1.093289	0.0	0.0
H	-0.231581	0.877917	-1.962573
N	-0.232281	-1.197234	-2.068659
H	-0.375163	-1.95631	-1.41163
H	-0.81423	-1.31572	-2.886356
N	-0.358286	-1.255421	0.683955
H	0.438436	-1.498194	1.261791
H	-1.172922	-1.145278	1.273612
C	-0.462232	1.177742	0.728327
N	-0.825848	2.109685	1.347341
F	2.569205	0.0	0.0
