14

C	-0.55257	0.095222	-1.403228
C	0.0	0.0	0.0
F	-1.981531	0.280424	-1.330597
H	1.101128	0.0	0.0
H	-0.191639	0.993762	-1.908717
N	-0.24318	-1.070323	-2.135548
H	-0.814358	-1.123996	-2.967817
H	-0.414778	-1.862533	-1.52616
N	-0.368256	-1.292451	0.603202
H	-1.182765	-1.214222	1.198361
H	0.425993	-1.580572	1.161889
C	-0.458458	1.131262	0.800042
N	-0.819519	2.018782	1.482393
F	2.565963	0.0	0.0
