17

C	0.0	0.0	0.0
C	-0.221647	-0.161185	-1.544144
F	1.418137	0.0	0.0
H	0.074979	-1.173046	-1.833156
N	-0.363345	1.199149	0.633599
H	-0.24316	2.052523	0.088916
H	-1.210054	1.174922	1.19338
C	-0.561683	-1.17817	0.743798
H	-0.303181	-1.082127	1.7946
H	-1.631425	-1.182263	0.622803
H	-0.140136	-2.111771	0.363799
N	0.80923	0.734356	-2.253242
O	1.624878	0.161274	-2.961413
O	0.750644	1.942705	-2.048864
C	-1.478074	0.177206	-2.15853
N	-2.277085	0.470678	-2.973291
Cl	-3.814502	0.0	0.0
