17

C	0.0	0.0	0.0
C	-0.255092	0.03511	-1.558218
F	1.418144	0.0	0.0
H	-0.025019	-0.957675	-1.968561
N	-0.400201	1.110998	0.719611
H	-1.149898	1.037735	1.378653
H	-0.26461	2.004536	0.275513
C	-0.519672	-1.29211	0.592459
H	-0.281396	-1.315415	1.671793
H	-1.593537	-1.275492	0.469301
H	-0.089278	-2.152179	0.081211
N	0.847254	0.941353	-2.154143
O	0.838031	2.127332	-1.834002
O	1.640768	0.394063	-2.931611
C	-1.497763	0.491566	-2.191309
N	-2.345926	0.937129	-2.885392
Cl	-3.780951	0.0	0.0
