17

C	0.0	0.0	0.0
C	-0.13672	0.033139	-1.577016
F	1.415856	0.0	0.0
H	0.530438	0.842382	-1.878671
N	-0.529699	1.131545	0.644217
H	-1.512573	0.936326	0.852956
H	-0.519102	1.946813	0.043789
C	-0.472812	-1.279731	0.636211
H	-0.227908	-1.23348	1.700108
H	-1.5548	-1.368377	0.51407
H	0.037404	-2.13539	0.194017
N	-1.462482	0.428512	-2.162363
O	-1.694399	1.632893	-2.114119
O	-2.15398	-0.43736	-2.676131
C	0.323237	-1.203739	-2.195918
N	0.744952	-2.184918	-2.683718
Cl	-3.723956	0.0	0.0
