17

C	0.0	0.0	0.0
C	-0.13445	0.006717	-1.583307
F	1.415563	0.0	0.0
H	0.552321	0.797451	-1.893814
N	-0.514513	1.145662	0.633442
H	-0.429514	1.963741	0.042226
H	-1.514933	0.988011	0.78639
C	-0.481206	-1.266943	0.653351
H	-0.247794	-1.202272	1.717752
H	-1.562777	-1.348748	0.524003
H	0.025072	-2.132292	0.225376
N	-1.442151	0.427668	-2.19928
O	-2.112162	-0.412066	-2.781101
O	-1.670904	1.630751	-2.121274
C	0.309608	-1.249501	-2.174053
N	0.721565	-2.250675	-2.628575
Cl	-3.665173	0.0	0.0
