17

C	0.0	0.0	0.0
C	-0.249922	0.050747	-1.549921
F	1.416593	0.0	0.0
H	-0.117045	-0.948206	-1.968584
N	-0.502399	1.141832	0.617269
H	-0.057145	2.006401	0.363097
H	-0.760789	1.053981	1.583
C	-0.555817	-1.261127	0.595612
H	-0.130532	-2.135946	0.101398
H	-1.64651	-1.234205	0.486875
H	-0.295677	-1.301369	1.656997
N	0.866861	0.867604	-2.174947
O	0.928586	2.052539	-1.864894
O	1.628458	0.286259	-2.940074
C	-1.478487	0.65141	-2.05981
N	-2.309825	1.141985	-2.730766
Cl	-3.906836	0.0	0.0
