17

C	0.0	0.0	0.0
C	-0.310957	0.057754	-1.561391
F	1.39379	0.0	0.0
H	-0.388247	-0.950571	-1.97055
N	-0.460467	1.115189	0.742361
H	-1.479469	1.046336	0.793334
H	-0.2152	1.972394	0.258744
C	-0.466122	-1.305781	0.590264
H	-0.183589	-1.312539	1.64383
H	-1.549724	-1.379548	0.501048
H	0.025804	-2.135058	0.077751
N	0.899743	0.671372	-2.233577
O	1.096702	1.863807	-2.029901
O	1.609753	-0.068529	-2.907733
C	-1.42973	0.879331	-2.020048
N	-2.117417	1.606372	-2.639658
Cl	-3.558895	0.0	0.0
