16
Coordinates from ORCA-job run
  C   -0.62629119454719      0.32179982110926     -0.20162882379917
  C   0.90474784637767      0.43098248892422     -0.12309455443856
  F   -1.06212685498079      1.04876918607255     -1.26569257553715
  H   1.17265542875824      1.48349145289938     -0.25705261773982
  C   -1.19212412622336     -1.06577743834952     -0.21788966207374
  H   -2.27944322862424     -1.00793589566630     -0.18793451311482
  H   -0.88610144084852     -1.55729153448365     -1.14028444091534
  H   -0.85096400568456     -1.63727427016357      0.64504731818126
  N   -1.11355471938670      1.10841560556882      1.02893332367882
  O   -0.72117092372483      2.27006984493754      1.08314766983284
  O   -1.84686464958891      0.54112221275733      1.82847665286823
  N   1.61529971231906     -0.31350852753599     -1.24718174510398
  O   2.77299955636394     -0.63629964496387     -1.02063765984332
  O   0.99889234697817     -0.45981283908896     -2.29350354003504
  C   1.39023540510105     -0.06256435008685      1.15770150608891
  N   1.72281084771098     -0.46318611193039      2.21059366195088
