16
Coordinates from ORCA-job run
  C   -0.44952074446703      0.32154182061796      0.17968914867876
  C   0.85666290282068     -0.36929898378685     -0.22829117973383
  F   -0.17193536168823      1.59352190903526      0.55497008182218
  H   0.70780236726774     -1.45212621144142     -0.20129953013941
  C   -1.51255506862020      0.30797793515228     -0.88923030316900
  H   -1.18240457964736      0.90627083569422     -1.73861995472950
  H   -2.42051690820741      0.75161607700142     -0.47617593608907
  H   -1.72401589887548     -0.71078807468852     -1.21420302842662
  N   -1.01864467233167     -0.41469487081565      1.39313284523254
  O   -1.13625931010220     -1.62591967690658      1.24785153299963
  O   -1.36229303181257      0.25922775059006      2.34803715913820
  N   1.92594027884462     -0.07123726156185      0.81259551689547
  O   1.59798093585596     -0.32276010740333      1.96444435884759
  O   2.99982753525467      0.36156206245576      0.42291354825469
  C   1.29884294176161      0.06522040006643     -1.54444646737521
  N   1.59208861394687      0.39988639599082     -2.63136779220646
