16
Coordinates from ORCA-job run
  C   -0.51827881056769      0.19612310166674      0.17488966281072
  C   0.92957705082111     -0.16027403388403     -0.18062477739018
  F   -0.53134085911935      1.40060036936868      0.79505458600961
  H   0.99583014628546     -1.23674175528149     -0.35999641254096
  C   -1.45799710999233      0.20026018217623     -1.00405704585591
  H   -2.46895102304333      0.38728278405116     -0.63693206034629
  H   -1.17812927241180      0.99986813816291     -1.69008978973428
  H   -1.43395543969685     -0.75781317851220     -1.52335270450245
  N   -1.03725938040142     -0.84899085499223      1.16284917164284
  O   -0.90156644996757     -2.01088426208575      0.79741856450126
  O   -1.59033692117055     -0.44322552865588      2.16978549198758
  N   1.82100134343441      0.11563938306116      1.02158047133703
  O   1.45025946566476     -0.41328313332816      2.06096849829667
  O   2.81566578047635      0.80417072799933      0.85148274794208
  C   1.39330095250731      0.59292697183556     -1.33574884588964
  N   1.71118052718152      1.17634108841788     -2.30422755826807
