16
Coordinates from ORCA-job run
  C   -0.50810937153440      0.24269176692920      0.14240057284763
  C   0.92117013217963     -0.23123019155730     -0.14480175582885
  F   -0.45979497302649      1.50826606996143      0.62345212632140
  H   0.92789783199820     -1.32305247313781     -0.20026979526363
  C   -1.43251752136177      0.16569289754164     -1.04609269750087
  H   -2.43486728004775      0.45030330105333     -0.72039579215698
  H   -1.45852302054013     -0.84514342702738     -1.45310616845175
  H   -1.09904103285434      0.86488042406033     -1.81306526957111
  N   -1.09710713080700     -0.65403138993738      1.23190181052881
  O   -1.02273437953631     -1.85550967728255      1.00173522591602
  O   -1.63879031043859     -0.10730398247983      2.17637096637169
  N   1.81263098595793      0.12964440063136      1.03469131083565
  O   2.84693328543370      0.73824519043589      0.80642964970677
  O   1.39974530985057     -0.25631760418202      2.12009758122199
  C   1.44067023677765      0.35922192535859     -1.36871566011590
  N   1.80343723794910      0.81264276963249     -2.38963210486085
