16
Coordinates from ORCA-job run
  C   -0.58403281767989      0.35364232414418     -0.14444516721863
  C   0.95298873086033      0.36372059473648     -0.12779357385786
  F   -0.97409518994107      1.04334537081474     -1.25320730019892
  H   1.28558663392184      1.40071349910249     -0.20299540820077
  C   -1.25400515895318     -0.98549430782358     -0.09043064668501
  H   -2.33275022243519     -0.83677020864944     -0.04725400251193
  H   -1.00329083791853     -1.54499044109493     -0.99115033063065
  H   -0.93912990087493     -1.55118953695498      0.78458591687554
  N   -0.98090910073723      1.23043503694235      1.05225934569076
  O   -1.61567918704871      0.70676148997743      1.96000165348775
  O   -0.60990101519257      2.39739726694767      0.98655455743997
  N   1.45486755968981     -0.33381283448049     -1.37299224866867
  O   1.49409091123002     -1.55873894352745     -1.34550958962903
  O   1.74791872141208      0.40018474027186     -2.30847246050009
  C   1.47626023788043     -0.28721888862588      1.06208684285269
  N   1.88208063578677     -0.79798516178045      2.03876241175487
