16
Coordinates from ORCA-job run
  C   -0.59126918556536      0.40380143894606     -0.18580112443181
  C   0.91460374024314      0.22925992167540     -0.47085195993273
  F   -0.93198336176797      1.57291321853084     -0.79113821690433
  H   1.02590622697317      0.22489501362174     -1.55861846035517
  C   -1.50690210339598     -0.69896195675398     -0.64179021389611
  H   -1.36785017556986     -0.87333314250363     -1.70890928870993
  H   -1.31983690703907     -1.62166713979451     -0.09908956703217
  H   -2.53266932520649     -0.36831849953894     -0.46479348743249
  N   -0.76362984941676      0.59850743093048      1.31375425179787
  O   -1.24369801164069      1.64835004478185      1.70895532635555
  O   -0.39603269388776     -0.36207060282060      1.98321186469082
  N   1.45595473998473     -1.11087781958295     -0.01158313155353
  O   2.22297938724192     -1.12825178621303      0.93890056749240
  O   1.07355324026330     -2.06636373269497     -0.67748568452870
  C   1.68254498242729      1.32160239650609      0.11022770242800
  N   2.27932929635639      2.22951521491017      0.55601142201227
