16
Coordinates from ORCA-job run
  C   -0.56361026503344      0.39002699571399     -0.12762268312915
  C   0.97068913235546      0.33190377433512     -0.05666921690350
  F   -0.88144683217297      1.20300451859739     -1.17411274048502
  H   1.34635725429395      1.35585238687989     -0.01086566916606
  C   -1.28928067374408     -0.91674760525514     -0.23243255741742
  H   -1.02906359235068     -1.58172376995344      0.58907137196249
  H   -1.02937857673381     -1.39234632029765     -1.17760964398913
  H   -2.36191721096972     -0.72561805433164     -0.20787745208776
  N   -0.97106912567442      1.15978580158056      1.13745316035861
  O   -1.65227178786265      0.57302028548014      1.96989713685107
  O   -0.55989432525515      2.31348742172460      1.19861608651340
  N   1.49370419880593     -0.25326064420564     -1.35012854323030
  O   1.86439799046503      0.55978839923902     -2.18754598332720
  O   1.47327303648831     -1.47455893386298     -1.45448371702449
  C   1.42210651066433     -0.46086449816488      1.07520291130954
  N   1.76840426672390     -1.08174975747928      2.01010753976493
