13

C	0.0	0.0	0.0
C	-0.559203	-0.091007	-1.417094
Br	1.944744	0.0	0.0
H	-1.652533	-0.045386	-1.247069
H	-0.333649	-0.887102	0.53834
C	-0.40552	1.217484	0.699593
N	-0.611025	2.202442	1.306031
N	-0.220905	-1.382138	-1.997361
H	0.68021	-1.344655	-2.457607
H	-0.924915	-1.628405	-2.680773
C	-0.147405	1.054466	-2.241805
N	0.170194	1.922148	-2.968738
Cl	-3.447015	0.0	0.0
