13

C	0.0	0.0	0.0
C	-0.447837	0.059123	-1.514106
Br	1.946141	0.0	0.0
H	0.309436	0.677742	-2.008355
H	-0.357167	-0.896929	0.50628
C	-0.423925	1.208847	0.692214
N	-0.654691	2.252754	1.179848
N	-1.733023	0.597254	-1.832785
H	-1.747863	1.587388	-1.614905
H	-2.512479	0.179754	-1.30435
C	-0.299908	-1.300683	-2.061036
N	-0.200173	-2.37779	-2.516473
Cl	-4.180832	0.0	0.0
