13

C	0.0	0.0	0.0
C	-0.453372	0.068921	-1.499035
Br	1.94288	0.0	0.0
H	0.460245	0.078962	-2.099058
H	-0.340907	-0.915098	0.480847
C	-0.405591	1.15583	0.792591
N	-0.582709	2.084126	1.490422
N	-1.144778	1.304256	-1.797183
H	-2.056578	1.248401	-1.333255
H	-1.297926	1.352834	-2.798661
C	-1.119724	-1.197905	-1.885181
N	-1.483207	-2.217069	-2.346101
Cl	-3.241452	0.0	0.0
