13

C	0.0	0.0	0.0
C	-0.418199	-0.275061	-1.504322
Br	1.946658	0.0	0.0
H	0.373261	0.188528	-2.103424
H	-0.365181	-0.765186	0.68614
C	-0.430698	1.331033	0.401494
N	-0.699575	2.440973	0.676748
N	-1.667358	0.226223	-1.98604
H	-1.620442	1.235669	-2.043621
H	-2.464992	0.004196	-1.373867
C	-0.308411	-1.72663	-1.716721
N	-0.193402	-2.887769	-1.841399
Cl	-4.033096	0.0	0.0
