13

C	0.0	0.0	0.0
C	-0.466518	-0.280322	-1.478019
Br	1.946872	0.0	0.0
H	0.235477	0.276759	-2.109651
H	-0.353907	-0.763571	0.69403
C	-0.432651	1.325747	0.420754
N	-0.727521	2.419366	0.733113
N	-1.795055	0.093309	-1.850027
H	-1.885242	1.102431	-1.849923
H	-2.539199	-0.247974	-1.226813
C	-0.229892	-1.71141	-1.737466
N	-0.026611	-2.855632	-1.904285
Cl	-4.304803	0.0	0.0
