13

C	0.0	0.0	0.0
C	-0.45175	0.033946	-1.500173
Br	1.953661	0.0	0.0
H	0.46191	0.015512	-2.100313
H	-0.339273	-0.901733	0.505184
C	-0.393616	1.178222	0.765266
N	-0.582812	2.134998	1.419555
N	-1.133769	1.266365	-1.829766
H	-2.044034	1.222836	-1.363193
H	-1.287954	1.287743	-2.832048
C	-1.12827	-1.237881	-1.850507
N	-1.478042	-2.27254	-2.285499
Cl	-3.231642	0.0	0.0
