13

C	0.0	0.0	0.0
C	-0.445956	0.056862	-1.501457
Br	1.957055	0.0	0.0
H	0.470051	0.059202	-2.097587
H	-0.337309	-0.911079	0.490252
C	-0.398507	1.165711	0.781067
N	-0.565796	2.105293	1.466142
N	-1.137482	1.288588	-1.812619
H	-1.284479	1.32896	-2.815355
H	-2.051006	1.229194	-1.354125
C	-1.108079	-1.215157	-1.876267
N	-1.454217	-2.246755	-2.32099
Cl	-3.230514	0.0	0.0
