18

C	-0.460513	-0.019318	-1.463137
C	0.0	0.0	0.0
Br	-0.167533	1.91475	-2.193271
H	1.093041	0.0	0.0
N	0.334767	-0.941493	-2.145216
H	0.219986	-0.893241	-3.147418
H	1.313991	-0.853512	-1.869837
C	-1.947425	-0.236148	-1.673196
H	-2.221333	-1.229054	-1.30935
H	-2.522704	0.51919	-1.136476
H	-2.199218	-0.163372	-2.734122
N	-0.411849	-1.369982	0.552871
O	-1.441989	-1.421181	1.243032
O	0.294773	-2.340595	0.302249
N	-0.529614	1.047644	0.795198
H	0.043025	1.128178	1.627451
H	-1.481287	0.843571	1.072311
H	2.745262	0.0	0.0
