18

C	-0.538867	0.121109	-1.42584
C	0.0	0.0	0.0
Br	-0.068351	-1.616883	-2.407275
H	1.090928	0.0	0.0
N	-1.938651	0.346047	-1.465286
H	-2.442586	-0.395587	-0.995417
H	-2.259173	0.42794	-2.419047
C	0.239389	1.207709	-2.139437
H	-0.025732	1.237109	-3.199936
H	1.3093	1.018696	-2.021182
H	-0.009504	2.157977	-1.664694
N	-0.522958	-1.272822	0.642468
O	0.240643	-2.210619	0.831293
O	-1.722835	-1.275341	0.967599
N	-0.394712	1.154464	0.74433
H	0.225056	1.256003	1.53935
H	-1.363922	1.11053	1.026666
H	2.823069	0.0	0.0
