18

C	-0.530057	0.059287	-1.430462
C	0.0	0.0	0.0
Br	-0.021146	-1.73019	-2.30346
H	1.090052	0.0	0.0
N	-1.928196	0.271289	-1.508215
H	-2.226881	0.306121	-2.474926
H	-2.432043	-0.455273	-1.014562
C	0.253478	1.113968	-2.184653
H	1.323053	0.935918	-2.046591
H	-0.001059	1.093767	-3.247999
H	-0.005812	2.084411	-1.757641
N	-0.509657	-1.248326	0.700338
O	-1.740003	-1.333595	0.855773
O	0.291788	-2.071918	1.121444
N	-0.401636	1.17615	0.706742
H	0.223255	1.315818	1.491466
H	-1.369679	1.140837	0.994112
H	2.834373	0.0	0.0
