18

C	-0.491129	0.015179	-1.44762
C	0.0	0.0	0.0
Br	0.163743	1.907877	-2.169786
H	1.100757	0.0	0.0
N	0.057173	-0.970483	-2.258501
H	-0.624381	-1.487104	-2.791444
H	0.704701	-1.569739	-1.769287
C	-1.996586	0.130068	-1.556033
H	-2.29384	0.284807	-2.596667
H	-2.34731	0.960291	-0.946604
H	-2.437062	-0.805151	-1.189267
N	-0.329239	-1.229768	0.666641
O	0.007894	-2.305101	0.115407
O	-0.75581	-1.194079	1.84649
N	-0.490774	1.142667	0.745261
H	0.269765	1.815817	0.744935
H	-0.628863	0.82402	1.697776
H	2.41612	0.0	0.0
