18

C	-0.347126	-0.066471	-1.459451
C	0.0	0.0	0.0
Br	-2.611871	-0.188216	-1.473187
H	1.094247	0.0	0.0
N	0.034507	1.094729	-2.065528
H	0.574507	1.010932	-2.908513
H	0.273781	1.841008	-1.429745
C	0.050849	-1.29021	-2.236993
H	1.128411	-1.421669	-2.075368
H	-0.160014	-1.123903	-3.297222
H	-0.470693	-2.179835	-1.905402
N	-0.428003	-1.183499	0.792077
O	-0.997732	-0.984601	1.870655
O	-0.098077	-2.297812	0.381543
N	-0.391823	1.243194	0.574542
H	0.160035	1.398957	1.409064
H	-1.375652	1.225225	0.816175
H	2.589991	0.0	0.0
