18

C	-0.301569	-0.043227	-1.495081
C	0.0	0.0	0.0
Br	-2.309796	0.072735	-1.754152
H	1.092864	0.0	0.0
N	0.278908	1.122126	-2.113651
H	0.053702	1.906133	-1.505636
H	1.289868	0.983586	-2.012255
C	0.19439	-1.277729	-2.211414
H	0.100442	-1.105682	-3.285216
H	1.248535	-1.405899	-1.939024
H	-0.349483	-2.173865	-1.926496
N	-0.457796	-1.205953	0.748189
O	0.005918	-2.298423	0.411102
O	-1.229847	-1.05019	1.704789
N	-0.43014	1.220352	0.60274
H	0.198693	1.42775	1.372492
H	-1.370612	1.121694	0.967142
H	2.658844	0.0	0.0
