18

C	-0.579796	0.030402	-1.430824
C	0.0	0.0	0.0
Br	-0.368659	-1.736469	-2.282742
H	1.090128	0.0	0.0
N	-1.989679	0.360411	-1.515519
H	-2.51375	-0.280307	-0.926065
H	-2.077265	1.286187	-1.104258
C	0.245444	1.02762	-2.221946
H	1.305097	0.774352	-2.139858
H	-0.083035	1.033869	-3.262432
H	0.09875	2.017685	-1.782819
N	-0.511232	-1.195696	0.75022
O	0.194223	-2.194019	0.830634
O	-1.650512	-1.107525	1.241015
N	-0.399027	1.220876	0.662221
H	-1.226472	1.059308	1.221739
H	0.373274	1.498163	1.260974
H	2.792562	0.0	0.0
