18

C	-0.244778	0.014623	-1.501478
C	0.0	0.0	0.0
Br	-2.237836	0.380716	-1.896748
H	1.102278	0.0	0.0
N	0.495303	1.14884	-1.972554
H	1.443637	1.05808	-1.571822
H	0.564847	1.105835	-2.984953
C	0.080208	-1.279249	-2.222032
H	1.120154	-1.523608	-1.974805
H	-0.561589	-2.108744	-1.927966
H	-0.016532	-1.120289	-3.3002
N	-0.527541	-1.241529	0.634428
O	0.084495	-2.289804	0.402175
O	-1.526008	-1.164947	1.347823
N	-0.412189	1.15303	0.727779
H	-1.201524	1.603908	0.285456
H	0.371878	1.793651	0.740158
H	2.658673	0.0	0.0
