18

C	0.0	0.0	0.0
C	-0.620456	0.025897	-1.399396
F	1.391109	0.0	0.0
H	-1.732308	0.028639	-1.139384
C	-0.461437	1.225474	0.7676
H	-0.100375	1.147173	1.796307
H	-1.554417	1.214676	0.734981
H	-0.056747	2.14124	0.329845
C	-0.474475	-1.271284	0.681161
H	-0.101768	-2.155523	0.156612
H	-1.568266	-1.227825	0.675869
H	-0.088665	-1.286157	1.704414
C	-0.202117	-1.096571	-2.222356
N	0.104214	-2.026185	-2.870369
N	-0.252097	1.2918	-2.109923
O	0.852581	1.345781	-2.650531
O	-1.062029	2.21421	-2.07196
F	-2.938671	0.0	0.0
