18

C	0.0	0.0	0.0
C	-0.609681	0.026688	-1.405005
F	1.391119	0.0	0.0
H	-1.722259	0.021781	-1.156838
C	-0.461973	1.225312	0.766894
H	-0.113308	1.140361	1.799773
H	-1.554782	1.222121	0.723068
H	-0.04263	2.138255	0.336958
C	-0.474098	-1.273117	0.676468
H	-1.567729	-1.230131	0.670498
H	-0.099111	-2.154728	0.149456
H	-0.087539	-1.29068	1.699286
C	-0.162335	-1.08642	-2.228279
N	0.170361	-2.006488	-2.879007
N	-0.242515	1.299856	-2.106214
O	0.87244	1.36506	-2.62687
O	-1.063105	2.214433	-2.079692
F	-2.93154	0.0	0.0
