18

C	0.0	0.0	0.0
C	-0.628256	0.029774	-1.395692
F	1.391303	0.0	0.0
H	-1.741606	0.047901	-1.123093
C	-0.456119	1.221028	0.779406
H	-0.085822	1.133506	1.804353
H	-0.053021	2.138949	0.345173
H	-1.549268	1.213278	0.75584
C	-0.468747	-1.275452	0.678707
H	-1.562211	-1.243378	0.670637
H	-0.086507	-1.286889	1.7031
H	-0.084988	-2.155068	0.155481
C	-0.241156	-1.105702	-2.218038
N	0.029347	-2.053188	-2.85657
N	-0.242751	1.284452	-2.117138
O	0.842854	1.300535	-2.700889
O	-1.018437	2.235361	-2.046308
F	-2.936339	0.0	0.0
