18

C	0.0	0.0	0.0
C	-0.616876	0.032988	-1.401676
F	1.391301	0.0	0.0
H	-1.729221	0.032722	-1.145329
C	-0.460758	1.220901	0.775097
H	-1.553664	1.214299	0.739111
H	-0.049695	2.137611	0.345463
H	-0.103269	1.133567	1.804705
C	-0.473312	-1.276071	0.672133
H	-0.098531	-2.155633	0.141603
H	-0.086657	-1.297509	1.694832
H	-1.566878	-1.234312	0.66692
C	-0.188379	-1.082668	-2.230729
N	0.124586	-2.004252	-2.889027
N	-0.247979	1.304477	-2.103558
O	0.860599	1.362463	-2.638674
O	-1.060914	2.225692	-2.064025
F	-2.935024	0.0	0.0
