16

C	0.0	0.0	0.0
C	-0.531715	0.377106	-1.406773
Br	1.947701	0.0	0.0
H	0.325334	0.501844	-2.083438
C	-0.336281	1.065488	1.069385
H	0.112245	0.753797	2.014398
H	-1.422635	1.0908	1.124811
H	0.089243	2.029264	0.78248
C	-0.423525	-1.302426	0.510701
N	-0.553898	-2.317894	1.090157
C	-1.280927	1.628463	-1.41026
N	-1.670974	2.731209	-1.522958
N	-1.331867	-0.697385	-2.102025
O	-2.220106	-0.335177	-2.858029
O	-0.905992	-1.839886	-1.984268
F	-2.44042	0.0	0.0
