16

C	0.0	0.0	0.0
C	-0.334251	0.105253	-1.515438
Br	1.957178	0.0	0.0
H	0.399421	-0.509683	-2.048779
C	-0.370592	1.214678	0.859793
H	-0.02848	1.027675	1.880746
H	-1.455882	1.287416	0.810588
H	0.142264	2.100525	0.480013
C	-0.441223	-1.266891	0.573102
N	-0.554044	-2.309087	1.107849
C	-0.175347	1.473915	-1.999681
N	0.08268	2.531041	-2.440053
N	-1.638354	-0.490017	-2.023874
O	-1.686794	-1.708063	-1.9481
O	-2.37648	0.231287	-2.676238
F	-2.447782	0.0	0.0
