14
Coordinates from ORCA-job run
  C   -0.53788358411688      0.39184589674722     -0.10088166523578
  C   0.98217569682754      0.46682378449665     -0.02124959696532
  Br  -1.15997823428679      2.22343168564826     -0.73854339862164
  H   1.24497393215194      1.29539225352770      0.63676098187785
  H   1.37819896062620      0.68434876556419     -1.02293606728012
  N   -0.91313954798089     -0.61328917727384     -1.04853712896415
  H   -0.63580706182315     -0.35098990745346     -1.98778804559200
  H   -1.91584310182370     -0.75813278848839     -1.04633406978379
  N   -1.07115040317192      0.20825900110611      1.20391725419025
  H   -2.06444320374928      0.01637728953362      1.19028699262187
  H   -0.55708253298420     -0.55387183476293      1.63398104529855
  N   1.45601716791576     -0.78248400011709      0.56901445514482
  H   1.36844192229921     -1.53086277690430     -0.10603814262224
  H   2.42751999011617     -0.69784819162375      0.83734738593170
