14
Coordinates from ORCA-job run
  C   -0.53161887986063      0.36690018034496     -0.18988332231662
  C   0.98707279169625      0.44716517946302     -0.09157113184185
  Br  -1.16434806177910      2.23916559660080     -0.68243348194258
  H   1.36703670442820      0.82492763071959     -1.04103936847606
  H   1.25270830766553      1.16637714305204      0.69563620303934
  N   -0.89110176993253     -0.48534269737306     -1.26924549533908
  H   -1.88372073479745     -0.67982662999778     -1.29200892956050
  H   -0.35296265182841     -1.34001064053387     -1.16918246205207
  N   -1.06851649677222     -0.01616120558902      1.08061713708572
  H   -2.06655078624680     -0.17898842838337      1.01887552105741
  H   -0.91032866122514      0.70456145057715      1.77591525138084
  N   1.48857712264927     -0.90839827687651      0.11977995630615
  H   2.48982447031795     -0.93822306536914     -0.02020791116029
  H   1.28292864568509     -1.20214623663482      1.06574803381958
