14
Coordinates from ORCA-job run
  C   -0.49079960036392      0.20788126385303     -0.03590570094384
  C   0.91668274394391      0.06615544651381      0.53113460112179
  Br  -0.61457878561875      1.98805665169985     -0.96502804191098
  H   0.90224467508883     -0.89960736650835      1.06361833513231
  H   1.08624266349266      0.85324937054397      1.27275253833612
  N   -0.70023476535970     -0.78713525444936     -1.06863274619312
  H   -1.01224928277778     -1.63865548982471     -0.61193617713466
  H   -1.40733874885378     -0.49041287151194     -1.72791347086179
  N   -1.44467381597570      0.09416171753910      1.01804485064184
  H   -1.26941193954323      0.77154416407688      1.75104179118995
  H   -2.38420034427081      0.23746435819790      0.66715813796008
  N   1.91413812890668      0.16699253859718     -0.51541859333541
  H   2.82645125537402     -0.06320021951265     -0.14374474125559
  H   1.67772781595756     -0.50449430921471     -1.23617078274670
