14
Coordinates from ORCA-job run
  C   -0.60724796173126     -0.15032268015749      0.18038469864108
  C   0.83429807140528     -0.15096667496797      0.61738196700591
  Br  -0.17901143211378      2.28733006821982     -1.11624768791915
  H   0.93967848195036     -0.98309522194227      1.32445583706447
  H   1.03301294660611      0.78758975480522      1.14061133124865
  N   -0.89909168330581     -0.95548869681784     -0.82183608038422
  H   -1.78695891147075     -0.88249208939412     -1.29208841308404
  H   -0.08067478719231     -1.18928995207950     -1.37754580460459
  N   -1.53975029899564      0.31383653215824      1.02096559846213
  H   -1.24102983322475      1.12760629340631      1.53836530780265
  H   -2.47158074848360      0.42316246185384      0.64771748789358
  N   1.66987101886758     -0.39928852881440     -0.54296727374339
  H   1.73910315076535      0.47542537231727     -1.05805499469006
  H   2.59138198692322     -0.70400663858710     -0.26114197369303
