14
Coordinates from ORCA-job run
  C   -0.54380674751993      0.38426360764397     -0.09884062249217
  C   0.97463875337157      0.48395344051030     -0.01397220096346
  Br  -1.19532957581793      2.20939436818842     -0.72415747451847
  H   1.36962066431192      0.71784474380026     -1.01245054263713
  H   1.22127378298956      1.31059685793748      0.65273340274746
  N   -0.89925474429365     -0.61993235104701     -1.05523946734482
  H   -1.89937258823170     -0.78171344169939     -1.05763085678735
  H   -0.62328022863144     -0.34586486694173     -1.99154955191348
  N   -1.07759863969428      0.18150416320486      1.20310110507278
  H   -0.55256804237682     -0.57583997349952      1.62837129528146
  H   -2.06773926795683     -0.02572431278179      1.18509076813462
  N   1.46737604878265     -0.76254102426301      0.56604736529487
  H   1.38800341252674     -1.50728493503985     -0.11402240284283
  H   2.43803717254015     -0.66665627601298      0.83351918296851
