14
Coordinates from ORCA-job run
  C   -0.51599676819173      0.33899426932524     -0.11564768314822
  C   0.89078169385045     -0.20413318496313     -0.35079541133831
  Br  -0.49281215833210      2.29308752473484     -0.30491036088540
  H   1.18698927980681      0.03620779884575     -1.37580750573993
  H   0.78022464112839     -1.30551440316175     -0.29401666211126
  N   -1.50043931869261     -0.13081030163457     -1.07722254441906
  H   -1.48497919427813     -1.14708219323782     -1.08916545809490
  H   -1.27910013221140      0.20164108182463     -2.00927518313735
  N   -0.89969088627627      0.03415346812284      1.24102984385870
  H   -1.83868685252035      0.38219430807904      1.40113024512247
  H   -0.91668345061178     -0.97611364103991      1.35422047474563
  N   1.85369881085609      0.35192779732997      0.57876849359103
  H   1.48625178609495      0.27287232285571      1.51855457091348
  H   2.73044254937769     -0.14942484708084      0.52313718064312
