14
Coordinates from ORCA-job run
  C   -0.52574956733456      0.23261220034330      0.02213035482693
  C   0.88699586754042     -0.02386333781578      0.52869612187814
  Br  -0.38245734213339      1.95328423413135     -1.11267292701226
  H   0.79895761286688     -0.84790053996081      1.24494225162506
  H   1.21228797066817      0.86768774447284      1.07336300150702
  N   -0.96800621235404     -0.86702065949800     -0.72523587762607
  H   -1.83371744708905     -0.69547235981143     -1.21796810950814
  H   -0.23385856057144     -1.18876639309580     -1.34643103286454
  N   -1.39637317515357      0.60104062371792      1.11508593082856
  H   -1.82988370387655     -0.25229930056716      1.45261836925743
  H   -2.12228808424097      1.23539315764595      0.81094637882421
  N   1.75332654152840     -0.44835517562980     -0.56480941169267
  H   2.56516816585930     -0.93060194616715     -0.20296768079178
  H   2.07459793429041      0.36426175223457     -1.07669736925188
