14
Coordinates from ORCA-job run
  C   -0.58711336148351      0.19997306764640     -0.12150838042528
  C   0.84071040379709     -0.30330531097991     -0.32075058483943
  Br  -0.36329482657717      2.28328550798413     -0.09772910276933
  H   0.75500487585793     -1.38737885460785     -0.45698959153841
  H   1.23518759490231      0.13165261493012     -1.24771983717862
  N   -1.50958276821688     -0.01994711734474     -1.19165670726434
  H   -1.68900720092959     -1.01502961544235     -1.26700000572949
  H   -1.15981924358514      0.34695702195901     -2.06681245743796
  N   -1.11359938169798     -0.31070718357789      1.05847585944559
  H   -2.01410861691940      0.08626194510927      1.28616486754481
  H   -0.44404745985475     -0.24323806128078      1.81425306963494
  N   1.64308985081453     -0.05133630755538      0.86876107915338
  H   2.46884414436235     -0.63541447451405      0.86742177065353
  H   1.93873598953020      0.91722676767401      0.87609002075061
