14
Coordinates from ORCA-job run
  C   -0.54249016355304     -0.26752680124030     -0.16921559431948
  C   0.96089088786674     -0.30551962797632     -0.27566927088664
  Br  -0.59861978496376      2.38875336917696     -0.31487055728699
  H   1.25783461506805      0.19541765941114     -1.20115515117186
  H   1.22592121833981     -1.36804903993001     -0.34480895779740
  N   -1.26466620676691     -0.53555851202464     -1.27462159335465
  H   -2.25648010700046     -0.35648876846737     -1.20627612190038
  H   -0.87500618614449     -0.11669140136036     -2.10634338091877
  N   -1.02603445837244     -0.51716273684698      1.04221454184870
  H   -2.00104885720526     -0.34140764185069      1.22718625851201
  H   -0.36879141895659     -0.26093081341514      1.77213080690753
  N   1.53231018425962      0.24051682062054      0.94233498274989
  H   1.44575231074999      1.25211795201352      0.89266398574124
  H   2.50942796667875     -0.00847045811036      1.01643005187679
