14
Coordinates from ORCA-job run
  C   -0.50430694796534      0.11021449548156     -0.25551156164275
  C   0.97216540388002     -0.26044615164162     -0.22982228792574
  Br  -0.53835096205496      2.16120036971247     -0.49143271070672
  H   1.42465431020541      0.10971627347994     -1.15475301049664
  H   1.00314003376794     -1.35520633159896     -0.24950741501064
  N   -1.13093304503354     -0.39312808112975     -1.45625406961676
  H   -1.89716078382782      0.19878597782996     -1.74734899262566
  H   -1.49696886649539     -1.31431626481687     -1.23766382461110
  N   -1.11711887291398     -0.30165077149395      0.93603607663602
  H   -0.52971128838051     -0.07309347890062      1.73049945045705
  H   -2.05758026702493      0.05224966227964      1.04572795314575
  N   1.59347336916600      0.20070688099796      1.00636783190650
  H   2.44433179215676     -0.31545535496988      1.18570468663950
  H   1.83436612452034      1.18042277477013      0.91895787385121
