14
Coordinates from ORCA-job run
  C   -0.52966367242731      0.20745789804769      0.09115169317016
  C   0.92182201301201     -0.06678598621952      0.45991234790898
  Br  -0.51788083887017      2.08144894150014     -0.77576772006480
  H   0.90862723713362     -0.99117211521848      1.04743355375083
  H   1.25936089499216      0.74552198089441      1.11067409856510
  N   -0.99163047613348     -0.78454362343699     -0.78488916324862
  H   -1.89477193624633     -0.57440170817467     -1.18728225540455
  H   -0.29446072412618     -0.97823390029563     -1.49544845995615
  N   -1.33069695505754      0.37502526517483      1.28197656829803
  H   -2.10606572001447      1.00296501550700      1.11860594236203
  H   -1.69870684819817     -0.53930577784142      1.52469580855798
  N   1.72074878293681     -0.28900865119959     -0.73974559969396
  H   1.98431202165885      0.60278234871712     -1.14069012255938
  H   2.56800622134020     -0.79074968745488     -0.50962669168565
