14
Coordinates from ORCA-job run
  C   -0.51287253252705      0.10400523392782     -0.23925804489611
  C   0.98406229238888     -0.17439019903265     -0.26108210546169
  Br  -0.67363823434004      2.16333929173946     -0.25652091869681
  H   1.08091416578227     -1.25690915117035     -0.39730273659722
  H   1.40142010159813      0.31886502974344     -1.14410159128173
  N   -1.12276004475181     -0.30937686487882     -1.48236834340874
  H   -1.91320476922943      0.27469126919738     -1.71860519744561
  H   -1.44775698304617     -1.26214056412273     -1.35348524204343
  N   -1.08462062286373     -0.46868736126396      0.90477474864762
  H   -2.04360107858719     -0.18782150255217      1.05692382194979
  H   -0.50198807676787     -0.29142424834019      1.71564677348359
  N   1.59086161288619      0.19071781205048      1.01378679865067
  H   2.47262819799984     -0.28971281082834      1.13316726550547
  H   1.77255597145799      1.18684406553063      1.02942477159422
