14
Coordinates from ORCA-job run
  C   -0.59099458321474      0.11323281977763     -0.18450727378002
  C   0.89893711114179     -0.22430121431766     -0.23248782868471
  Br  -0.63009086368207      2.18523996159656     -0.34219418910088
  H   1.31696460485739      0.11013800963884     -1.19253014804251
  H   0.94754954770020     -1.31821702665177     -0.20182393473511
  N   -1.28497553348930     -0.49906737903501     -1.24257924679548
  H   -2.26453224770545     -0.24427454738891     -1.21771005270967
  H   -0.89284424786224     -0.26349482390972     -2.14417630820946
  N   -1.25406718032419     -0.18320732905903      1.04038671268878
  H   -0.65079863454248      0.09558565781187      1.80635034925454
  H   -1.39878676340343     -1.18710936008396      1.07695683696108
  N   1.57762936640923      0.30170975798316      0.94203161401751
  H   2.45964149279548     -0.17443309274732      1.07585230680836
  H   1.76636793131982      1.28819856638533      0.81643116232756
