14
Coordinates from ORCA-job run
  C   -0.50595283809129      0.50562887323698     -0.18458721633829
  C   1.01576672999769      0.43524142183176     -0.11117410375073
  Br  -1.01168077194365      2.35029045239070     -0.63191583696174
  H   1.41043637321841      0.63199350708623     -1.10912397755168
  H   1.36394134677449      1.21400706204068      0.57203884885300
  N   -0.94929726806316     -0.33869227594084     -1.26629489256172
  H   -1.95999677876100     -0.41076678871858     -1.27185616584622
  H   -0.54957013370343     -1.25798835796160     -1.09965239895684
  N   -1.03777098359299      0.25071751399837      1.14646863376252
  H   -0.90987712322456     -0.74079380566670      1.32779200997403
  H   -2.03200273282852      0.44786742702235      1.16933342969083
  N   1.37815558908405     -0.92056468872243      0.31810552342792
  H   2.20531926760938     -1.24070151828718     -0.16589589893170
  H   1.58152932352457     -0.92723882230976      1.30876204519063
