14
Coordinates from ORCA-job run
  C   -0.59662893835354      0.19895251854026      0.02889355311209
  C   0.84202017551978     -0.12142713561840      0.43503607027470
  Br  -0.47640127145260      2.12815102076136     -0.72917991265549
  H   0.79756773099271     -1.11886680495810      0.88564886571162
  H   1.16750402601630      0.58907585373808      1.20819547029188
  N   -1.13013791343339     -0.59012152563128     -1.03011732800688
  H   -1.35619098768038     -1.50328908464095     -0.64910596192724
  H   -0.41603367756632     -0.69284970457851     -1.74285019073059
  N   -1.46333937464936      0.13026818711506      1.13408183274933
  H   -1.16563212613738      0.73033274907888      1.89138141139458
  H   -2.40722226411974      0.37106396686477      0.85779155295842
  N   1.70023090281081     -0.18113561883804     -0.73724884966736
  H   1.95840590273533      0.75422775416594     -1.02470781657328
  H   2.54585781531779     -0.69338217599907     -0.52581869693180
