14
Coordinates from ORCA-job run
  C   -0.58703689625091      0.46279198730781     -0.25746629520897
  C   0.93350794331331      0.43795084211245     -0.06838712947280
  Br  -1.05182265804970      2.33019318084204     -0.73418213291334
  H   1.39702409205632      0.71064892625662     -1.01848373863867
  H   1.20889534376602      1.19396874259004      0.67393243356182
  N   -0.92486986447433     -0.39851681318463     -1.34262965553300
  H   -0.43388603463478     -1.27548676421741     -1.19934302407260
  H   -1.92412009525520     -0.56532160178350     -1.33727294794791
  N   -1.35917984932406      0.15805103255366      0.93038141691803
  H   -1.09850759586432     -0.77488699514389      1.23559103578244
  H   -1.17374641813373      0.82134595456151      1.67438164924385
  N   1.32576540783556     -0.92128707719642      0.31813896811767
  H   2.15626398642626     -1.20910232669471     -0.17983618862527
  H   1.53171263858957     -0.97134908800356      1.30617560878875
