14
Coordinates from ORCA-job run
  C   -0.60689244737251      0.32383303423135     -0.10683290898361
  C   0.91853439322767      0.44503201934072     -0.12221316412321
  Br  -1.29179195162794      2.15025902772987     -0.69480273696520
  H   1.22679266297252      1.20977653119241      0.60634358123022
  H   1.23106930603812      0.78482773108340     -1.11123818927340
  N   -1.16345039347111     -0.62483730923891     -1.03526515987079
  H   -0.60896814681139     -1.47122379104468     -0.92843067494432
  H   -1.04359564878612     -0.28752984074173     -1.98223555752735
  N   -1.04070411448916     -0.03353665717807      1.18818478423615
  H   -0.82036321728963      0.67128733943933      1.87951932217042
  H   -2.03366109609374     -0.22809006635682      1.18284295579129
  N   1.46459105565876     -0.88759257844108      0.11429849294083
  H   1.30895014367850     -1.15245863430518      1.07810349996050
  H   2.45948945436602     -0.89874680571062     -0.06827424464153
