14
Coordinates from ORCA-job run
  C   -0.60311190897096      0.30911415011170     -0.15897768070570
  C   0.90984729015929      0.47829647841267     -0.00336999544783
  Br  -1.29148713871036      2.14865822390337     -0.69989816733780
  H   1.09902935154729      1.29233258365359      0.69867472169490
  H   1.34200675027279      0.76666173850755     -0.97328804338548
  N   -0.87182446086214     -0.68315164816772     -1.12665212912932
  H   -1.86315104938236     -0.88406482991181     -1.15513150865564
  H   -0.53436295943311     -0.42998636086111     -2.04608309210162
  N   -1.31508685283204     -0.04210956395313      1.04161144572477
  H   -0.78403497369142     -0.80039423229507      1.46375051381799
  H   -1.31030950417872      0.74067086433414      1.68358054986363
  N   1.43203971890722     -0.76270166162901      0.55985617163235
  H   1.39707497962934     -1.49385832160098     -0.13834533805411
  H   2.39237075754517     -0.64046742050419      0.85327255208386
