14
Coordinates from ORCA-job run
  C   -0.45796152720960      0.29160018376697     -0.13976520475695
  C   1.04141059745266      0.58868681409792     -0.02167124330248
  Br  -1.29326957094315      2.06100589781522     -0.79091340230178
  H   1.37485525546443      1.00107742927284     -0.97427539968614
  H   1.20643932741775      1.35115272793728      0.74667564177714
  N   -0.71205066961341     -0.70484695724565     -1.15222795639119
  H   -1.31127963599056     -0.36828567624740     -1.88973575321185
  H   -1.11232836689543     -1.53155763023524     -0.72900567009288
  N   -0.98983419457533     -0.11513596573282      1.10494638453970
  H   -1.99313984984052     -0.24394195461697      1.06269850169668
  H   -0.76832806185959      0.53986240300593      1.84399908927122
  N   1.82994725982073     -0.59050278766197      0.27866679260405
  H   1.69604180473143     -1.25866228197189     -0.47120528852173
  H   1.49149763204058     -1.02045220218422      1.13081350837620
