14
Coordinates from ORCA-job run
  C   -0.49989778460903     -0.00208189590723      0.16249373382812
  C   0.99276321198843      0.08893627499396      0.48182663412038
  Br  -0.82862261070545      1.91406110881127     -0.94886024495284
  H   1.19554601301305     -0.76871447642511      1.13201413297922
  H   1.15866396612347      0.99962292223927      1.06156573759199
  N   -0.81690000487564     -1.04087932524183     -0.70250881186427
  H   -0.29188994588048     -0.96973941124597     -1.56217664243979
  H   -1.80380932619994     -1.10102162048789     -0.91534226069186
  N   -1.29074865378556      0.03388756459074      1.30317262389597
  H   -2.28323239877572      0.00667459349452      1.10998530603311
  H   -1.08063814065178      0.83847529753383      1.87711532707816
  N   1.91570451965785      0.05991521994347     -0.62539322071303
  H   1.93548511724298     -0.84272371308697     -1.07863047705437
  H   1.69557603745783      0.78458746078795     -1.29626183781078
