14
Coordinates from ORCA-job run
  C   -0.47543811450984      0.23826769929844      0.05325042920939
  C   1.02195146683484      0.26860463167916      0.37280641819680
  Br  -0.76571647259616      1.56568766842832     -1.46743903910910
  H   1.28675650754515      1.30613843348973      0.57840739471399
  H   1.13976654485891     -0.29284690867478      1.30684202300735
  N   -0.89078008411428     -1.06680678132076     -0.31717488733516
  H   -0.37696277450572     -1.40667036508608     -1.12033314711457
  H   -1.88056026123257     -1.09477872732464     -0.52866672197526
  N   -1.21247325935027      0.78648757564640      1.16288417309761
  H   -1.26232423002252      0.07172547228912      1.88268698556041
  H   -2.15451450665878      1.03675276510495      0.88862205697410
  N   1.93188272392249     -0.28452426974849     -0.60636149118629
  H   1.82799842531319     -1.28535677339038     -0.69748100499180
  H   1.80941403451556      0.15731957960901     -1.50804318904747
