14
Coordinates from ORCA-job run
  C   -0.50950634039013      0.09844432794916     -0.25976612755145
  C   0.98701152258741     -0.26210244943481     -0.22736685746952
  Br  -0.55218027792377      2.14489913778329     -0.51881369536083
  H   1.43417370525264      0.00973288569923     -1.18837007554054
  H   1.01661654928156     -1.35505806001068     -0.14750522088444
  N   -1.15276079205686     -0.59458948759572     -1.29725140140878
  H   -2.13432142718934     -0.35275620161590     -1.34107216152916
  H   -0.71098636337956     -0.45274746444429     -2.19531884738442
  N   -1.26184414077904     -0.12104660341942      0.94181864279638
  H   -1.26708933907790     -1.11477665769476      1.14659717628623
  H   -0.87754937947880      0.39798914260071      1.71926355651585
  N   1.79478293429872      0.29896877761361      0.83084112616712
  H   1.76479727294245      1.30995308267474      0.79994285314470
  H   1.46985607591262     -0.00791043010516      1.73800103221885
