12

C	0.0	0.0	0.0
C	-0.558723	0.251685	-1.411561
Br	1.951721	0.0	0.0
H	0.222569	0.701673	-2.028164
H	-0.325325	-0.974092	0.361508
H	-1.392552	0.950153	-1.311044
C	-0.370434	1.045862	0.954179
N	-0.552848	1.910688	1.727289
N	-0.967326	-1.029878	-1.978119
H	-1.884451	-1.205692	-1.566736
H	-1.120877	-0.90419	-2.972069
Cl	-3.430106	0.0	0.0
