12

C	0.0	0.0	0.0
C	-0.55898	0.143782	-1.408075
Br	1.958832	0.0	0.0
H	-1.640884	0.234184	-1.257403
H	-0.316432	-0.95516	0.417001
H	-0.178653	1.072421	-1.850209
C	-0.389577	1.102733	0.875281
N	-0.604205	2.028374	1.565533
N	-0.248509	-1.049309	-2.187761
H	0.458581	-0.856886	-2.882497
H	-1.08675	-1.364042	-2.656509
Cl	-3.642295	0.0	0.0
