14

C	-0.254555	0.244125	-1.474923
C	0.0	0.0	0.0
Br	-0.927023	-1.755445	-2.370555
H	1.095687	0.0	0.0
H	-1.188522	0.707358	-1.786427
H	-0.39484	-0.957384	0.333062
N	0.850793	0.73026	-2.070555
H	0.832877	0.93264	-3.055869
H	1.75696	0.461306	-1.651416
C	-0.525092	1.163919	0.833485
H	-1.618311	1.242286	0.801623
H	-0.220332	1.041523	1.877077
H	-0.097408	2.105287	0.476788
H	3.016139	0.0	0.0
