14

C	-0.319064	0.32116	-1.449919
C	0.0	0.0	0.0
Br	-0.498956	-1.491267	-2.590167
H	1.093178	0.0	0.0
H	-1.331794	0.672295	-1.659334
H	-0.309161	0.896938	0.554495
N	0.666256	1.154778	-1.949026
H	1.603225	0.874142	-1.639722
H	0.61266	1.342942	-2.938897
C	-0.605165	-1.239722	0.625675
H	-0.185658	-2.139298	0.178292
H	-1.694975	-1.279891	0.512889
H	-0.368645	-1.25277	1.693843
H	3.038276	0.0	0.0
