14

C	-0.814244	0.030924	-1.44052
C	0.165088	-0.025327	-0.263911
Cl	-0.70312	-1.410673	-2.504871
H	1.179557	-0.116475	-0.662326
H	-1.838044	0.036176	-1.052584
C	-0.627662	1.226626	-2.262013
N	-0.521085	2.145904	-2.984707
N	-0.073637	-1.208318	0.54409
H	-0.939827	-1.053736	1.057956
H	0.674468	-1.13593	1.253157
N	0.096866	1.262526	0.412055
H	-0.766286	1.275823	0.953628
H	0.853079	1.170739	1.121263
H	1.964895	0.072013	2.102396
