14

C	-0.827871	0.031598	-1.455269
C	0.169117	-0.025653	-0.287597
Cl	-0.562803	-1.281791	-2.647532
H	1.184864	-0.087572	-0.702946
H	-1.83084	-0.104454	-1.046369
C	-0.775545	1.31091	-2.160236
N	-0.718288	2.337414	-2.72812
N	-0.054525	-1.231128	0.475306
H	-0.902782	-1.057988	1.013067
H	0.69643	-1.196486	1.184148
N	-0.059109	1.157854	0.533988
H	0.347205	1.972314	0.077839
H	0.54474	0.966971	1.360514
H	1.799711	-0.015682	2.26507
