14

C	-0.659725	-0.14343	-1.568442
C	0.148928	-0.036444	-0.271184
Cl	-2.423251	0.071975	-1.309179
H	1.207893	-0.111347	-0.58886
H	-0.347546	0.679361	-2.213538
C	-0.439908	-1.417336	-2.249167
N	-0.222974	-2.444125	-2.777066
N	-0.215937	-1.06287	0.68807
H	0.064761	-1.974716	0.331493
H	0.427805	-0.851411	1.46997
N	-0.000822	1.289116	0.279741
H	-0.883495	1.283915	0.786037
H	0.733003	1.301371	1.011192
H	1.881022	0.261895	2.087956
