14

C	-0.712519	0.098905	-1.575643
C	0.13848	0.042709	-0.303629
Cl	-2.474152	0.031515	-1.232466
H	1.182703	0.002101	-0.652181
H	-0.55094	1.053542	-2.084669
C	-0.373539	-0.981553	-2.499302
N	-0.089047	-1.798392	-3.293191
N	-0.088676	-1.188611	0.410212
H	-0.961221	-1.06621	0.918166
H	0.651534	-1.173118	1.127043
N	-0.118392	1.206196	0.530644
H	0.228044	2.03823	0.053995
H	0.545865	1.041462	1.314919
H	1.905542	0.079733	2.05911
