14

C	-0.670578	-0.046535	-1.554764
C	0.141081	-0.015171	-0.255334
Cl	-2.43696	0.113291	-1.27618
H	1.194941	-0.044426	-0.577815
H	-0.378291	0.825865	-2.141369
C	-0.427419	-1.263475	-2.325955
N	-0.1892	-2.23763	-2.937746
N	-0.199062	-1.115228	0.628972
H	0.099503	-1.992993	0.207224
H	0.443729	-0.946672	1.422028
N	-0.035325	1.264244	0.389369
H	0.701172	1.240529	1.117628
H	-0.915442	1.203317	0.89643
H	1.875973	0.145413	2.113257
