14

C	-0.667599	-0.018646	-1.557562
C	0.134838	-0.007131	-0.252126
Cl	-2.436847	0.124767	-1.288423
H	1.191152	-0.024409	-0.567487
H	-0.376733	0.866822	-2.124994
C	-0.411463	-1.218966	-2.350243
N	-0.16471	-2.180543	-2.978325
N	-0.204882	-1.125561	0.608982
H	0.101108	-1.993623	0.172649
H	0.431929	-0.968701	1.40927
N	-0.053356	1.258844	0.415259
H	0.678568	1.225556	1.147768
H	-0.936313	1.183292	0.915381
H	1.853949	0.120269	2.129324
