13

C	0.0	0.0	0.0
C	-0.505299	-0.218716	-1.42389
Cl	1.789245	0.0	0.0
H	-0.201937	-1.201248	-1.779991
H	-1.604153	-0.12276	-1.380179
C	-0.428782	1.250667	0.640298
N	-0.567199	2.249164	1.244191
C	-0.411791	-1.149275	0.81677
N	-0.606309	-2.09474	1.486807
N	0.033688	0.770443	-2.384755
O	0.189417	1.926051	-2.000475
O	0.241411	0.363548	-3.52698
Cl	-3.275831	0.0	0.0
