13

C	0.0	0.0	0.0
C	-0.511816	0.180855	-1.427899
Cl	1.788543	0.0	0.0
H	-1.608798	0.081106	-1.375839
H	-0.215009	1.155611	-1.810507
C	-0.406432	1.174683	0.789192
N	-0.600287	2.131773	1.443815
C	-0.438613	-1.230257	0.674941
N	-0.580844	-2.202276	1.319471
N	0.028808	-0.831706	-2.361737
O	0.250235	-0.45335	-3.511127
O	0.173392	-1.979398	-1.950235
Cl	-3.290969	0.0	0.0
