13

C	0.0	0.0	0.0
C	-0.536095	-0.240046	-1.40705
Cl	1.788986	0.0	0.0
H	-0.271717	-1.239997	-1.744824
H	-1.635253	-0.116519	-1.339319
C	-0.418453	1.262724	0.622153
N	-0.66306	2.288148	1.140202
C	-0.398025	-1.131683	0.84914
N	-0.652438	-2.01916	1.575824
N	0.011465	0.709369	-2.401171
O	0.201614	0.265824	-3.532591
O	0.193885	1.872202	-2.051844
Cl	-3.339373	0.0	0.0
