13

C	0.0	0.0	0.0
C	-0.504547	-0.211271	-1.425943
Cl	1.78898	0.0	0.0
H	-1.603811	-0.112159	-1.383619
H	-0.207605	-1.194719	-1.78621
C	-0.423976	1.251389	0.645558
N	-0.555603	2.248362	1.253047
C	-0.421748	-1.14664	0.814907
N	-0.608118	-2.096545	1.480572
N	0.034806	0.77931	-2.384704
O	0.196999	1.932826	-1.995518
O	0.234102	0.378183	-3.53026
Cl	-3.269491	0.0	0.0
