14
Coordinates from ORCA-job run
  C   0.63038611305069      0.22114086436285      0.12771792695058
  C   -0.53146176005963     -0.72186092046613      0.37217828888622
  H   0.87153016587343      0.77169088676813      1.03682232719448
  H   -0.70030622416283     -1.30926726902009     -0.54072256637593
  H   -0.21105834697463     -1.40910474210326      1.16047008512927
  N   0.16445472045636      1.30783947533056     -0.83041450139749
  O   -0.57064327856742      0.95914143474345     -1.75411786338971
  O   0.59916052559183      2.43924353491162     -0.65064585456820
  N   1.78707120709134     -0.38402196645866     -0.45457343406032
  H   1.60127234148624     -1.29689388224986     -0.84209001353729
  H   2.57848517989486     -0.40658381841355      0.16680743688702
  N   -1.69516688936583      0.02681406113903      0.82716501594541
  H   -2.20863804814175      0.37228801815666      0.02653445145743
  H   -2.31508570617266     -0.57042567670076      1.35686870087854
