14
Coordinates from ORCA-job run
  C   0.68769835032944      0.21286446537067      0.30303903680595
  C   -0.66777851452536     -0.34779428619790      0.72910725763047
  H   1.32522134285863      0.39551435132799      1.17032677644088
  H   -1.22693750942001      0.42650978993273      1.27055070971950
  H   -0.45449654464363     -1.15802171671444      1.43272719554238
  N   0.48834276835543      1.61347675400942     -0.27070692658741
  O   1.38749380113408      2.42529864885488     -0.07917109662857
  O   -0.53133501125823      1.82090250592072     -0.92854274342985
  N   1.34109905693355     -0.56560748883296     -0.69313588314718
  H   0.69857354474954     -1.25177385433857     -1.06895768046781
  H   2.20816771680046     -0.96882327463575     -0.37988733361266
  N   -1.37138440266931     -0.91647705993965     -0.41394464952515
  H   -1.76315372359177     -0.16855275961152     -0.97074464457428
  H   -2.12151087505281     -1.51751607514563     -0.10166001816627
