14
Coordinates from ORCA-job run
  C   0.75634515719796      0.08911742122501      0.32119434529409
  C   -0.59757679804300     -0.35516023092184      0.85781560632305
  H   1.42364945139516      0.38510656597998      1.13491844118415
  H   -0.42255880998966     -1.27418685513540      1.42022609010474
  H   -0.98321455806095      0.40610819097908      1.54167684025318
  N   0.50061891458199      1.42446475527012     -0.42094446623613
  O   -0.00233899799219      2.32774470037778      0.24442932081273
  O   0.80855613499335      1.49812180969913     -1.60610559245585
  N   1.32878829648163     -0.90871434641624     -0.49456962359645
  H   2.15978649229854     -0.58244266807967     -0.96765917306978
  H   0.64116907597344     -1.19834458170293     -1.17992413175786
  N   -1.47524983565746     -0.64468026675918     -0.27501391234387
  H   -2.15159509190961     -1.35445283502672     -0.03109483389564
  H   -1.98737943126920      0.18531834051087     -0.54594891061639
