17

C	-0.287145	-0.013544	-1.518614
C	0.0	0.0	0.0
Cl	0.119304	1.610475	-2.180517
H	1.092156	0.0	0.0
N	0.47743	-1.062912	-2.066676
H	1.433828	-0.991985	-1.711451
H	0.493915	-1.013528	-3.078413
N	-1.773367	-0.283866	-1.863458
O	-2.201564	-1.361667	-1.457335
O	-2.417179	0.53156	-2.506104
N	-0.431671	-1.120787	0.770797
H	-1.24612	-1.568198	0.375664
H	0.331368	-1.778306	0.845616
N	-0.607447	1.224457	0.604787
O	0.096615	1.980872	1.25946
O	-1.823617	1.339039	0.43211
Cl	3.270536	0.0	0.0
