17

C	-0.654511	-0.007925	-1.383067
C	0.0	0.0	0.0
Cl	-0.035703	-1.510881	-2.233193
H	1.094732	0.0	0.0
N	-2.042731	0.047152	-1.24674
H	-2.513851	0.034478	-2.139728
H	-2.326293	-0.715416	-0.642891
N	-0.191083	1.105456	-2.316947
O	-1.047135	1.556072	-3.07535
O	0.988073	1.402653	-2.288761
N	-0.523466	-1.143351	0.734225
H	-0.671591	-0.834399	1.688913
H	0.216559	-1.836662	0.755235
N	-0.429461	1.266378	0.698487
O	-0.743598	1.197313	1.886096
O	-0.399849	2.30064	0.043461
Cl	3.269252	0.0	0.0
