17

C	-0.396034	0.161756	-1.476415
C	0.0	0.0	0.0
Cl	-2.074098	0.787034	-1.675132
H	1.090612	0.0	0.0
N	0.524956	0.960064	-2.138664
H	1.471326	0.817585	-1.787665
H	0.476188	0.875753	-3.143562
N	-0.453294	-1.311202	-2.061861
O	0.605464	-1.695596	-2.544172
O	-1.48759	-1.954591	-1.982783
N	-0.497619	-1.176061	0.595178
H	-1.475614	-1.08829	0.838247
H	0.044709	-1.391266	1.41998
N	-0.415546	1.282466	0.732149
O	-1.263154	1.165446	1.61907
O	0.123257	2.330372	0.40079
Cl	3.251371	0.0	0.0
