17

C	-0.449937	-0.054271	-1.45801
C	0.0	0.0	0.0
Cl	-2.290706	-0.411462	-1.530344
H	1.09716	0.0	0.0
N	-0.043768	1.026714	-2.209391
H	-0.36563	1.898454	-1.82028
H	-0.222875	0.911066	-3.194751
N	0.119532	-1.311789	-2.164207
O	0.26261	-2.335268	-1.512167
O	0.325817	-1.201163	-3.364936
N	-0.560935	-1.018798	0.858835
H	0.125379	-1.181992	1.586979
H	-0.633435	-1.873578	0.326521
N	-0.379381	1.316074	0.665826
O	-0.898342	2.240746	0.035814
O	-0.115587	1.360433	1.858346
Cl	3.242089	0.0	0.0
