17

C	-0.675123	-0.017417	-1.372003
C	0.0	0.0	0.0
Cl	-0.018419	-1.487089	-2.248057
H	1.094727	0.0	0.0
N	-2.062996	-0.015261	-1.209307
H	-2.301986	-0.797004	-0.610376
H	-2.549053	-0.041943	-2.094306
N	-0.270655	1.122472	-2.30072
O	-1.158671	1.558781	-3.030547
O	0.900617	1.454502	-2.297093
N	-0.490371	-1.157979	0.7365
H	-0.681673	-0.843689	1.682262
H	0.285865	-1.811015	0.792314
N	-0.434761	1.257259	0.71499
O	-0.708096	1.178443	1.911818
O	-0.450266	2.29347	0.063081
Cl	3.251639	0.0	0.0
