12

C	-0.450598	-0.171997	-1.420857
C	0.0	0.0	0.0
F	-1.758494	-0.578427	-1.533645
H	1.091772	0.0	0.0
H	0.190966	-0.885963	-1.93734
H	-0.278898	-0.918002	0.529198
N	-0.332562	1.113634	-2.202442
O	-1.26819	1.904296	-2.119388
O	0.69793	1.266642	-2.850315
C	-0.573729	1.138612	0.690715
N	-0.99098	2.050206	1.303924
H	2.69552	0.0	0.0
