12

C	-0.390074	0.042796	-1.44989
C	0.0	0.0	0.0
F	-0.181054	-1.14398	-2.069304
H	1.093028	0.0	0.0
H	0.158778	0.830739	-1.970471
H	-0.304821	0.934131	0.479393
N	-1.856711	0.38946	-1.611426
O	-2.641225	-0.493749	-1.936912
O	-2.143894	1.560858	-1.36767
C	-0.571102	-1.135828	0.696216
N	-1.004935	-2.054951	1.286782
H	2.685705	0.0	0.0
