12

C	-0.455207	-0.092099	-1.425191
C	0.0	0.0	0.0
F	-1.772735	-0.465692	-1.550027
H	1.091523	0.0	0.0
H	0.170911	-0.792549	-1.979176
H	-0.277578	-0.946773	0.476922
N	-0.317846	1.225128	-2.151189
O	-1.203047	2.055714	-1.969337
O	0.666566	1.355726	-2.872512
C	-0.573456	1.094642	0.759704
N	-0.993929	1.967269	1.427187
H	2.698698	0.0	0.0
