13
Coordinates from ORCA-job run
  C   -0.69738742145596     -0.39388830882462      0.32895506770315
  C   0.41505733932924      0.36642934237426     -0.43311425484664
  F   -0.86387381188134      0.19408134502327      1.55513046240464
  H   0.59161225181009     -0.11080247998258     -1.40030206549675
  C   -0.34078777116932     -1.80937065823209      0.51192017184093
  N   -0.07440214185061     -2.94450446129039      0.65757261977279
  C   -1.94472989385199     -0.29262203770274     -0.44507347646131
  N   -2.92544922795641     -0.20728869174507     -1.08719525166525
  N   1.70861244477788      0.22464897571771      0.35329078350955
  O   1.94504684891126      1.07636093095593      1.19792864042378
  O   2.37641835223548     -0.76266133264605      0.06752046088095
  C   0.05893110811101      1.76900508155368     -0.58075417900260
  N   -0.25004807700934      2.89261229479870     -0.72687897906325
