13
Coordinates from ORCA-job run
  C   -0.91170165776431     -0.28237209407507      0.14008199053004
  C   0.17084344392700      0.71028711991439     -0.35053304504232
  F   -2.07960585620464      0.44578466702827      0.19438321825957
  H   -0.19549018655216      1.17308829774401     -1.26987110997092
  C   -0.63459797203540     -0.82546089040876      1.47468772325988
  N   -0.48275149554874     -1.24021761999530      2.56384466421555
  C   -1.06163467714758     -1.36550627603442     -0.84356466180068
  N   -1.17388689259936     -2.20730964206052     -1.65592444283289
  N   1.43576407607649     -0.03735951479277     -0.71506488645919
  O   1.84603263492845     -0.83468556960843      0.11950398356943
  O   1.92340506488861      0.23063304125877     -1.80441450101980
  C   0.46549268013709      1.71107711243331      0.66340550117446
  N   0.69713083789456      2.52004136859652      1.48346556611688
