13
Coordinates from ORCA-job run
  C   -0.89673481561888     -0.31650857762749      0.16504568628718
  C   0.15977629867057      0.66511836100272     -0.39127870202538
  F   -2.04853444767697      0.43063065287627      0.30102927665848
  H   -0.18978382396997      1.03296039605162     -1.36115447723003
  C   -0.51881774327291     -0.84535925579394      1.48111240937038
  N   -0.26676111600023     -1.23649732340609      2.56028205428582
  C   -1.15403277823855     -1.40059291495688     -0.79284844727777
  N   -1.39972800869118     -2.23603323698315     -1.58153894865797
  N   1.48866803079553     -0.02224079224544     -0.65744355662733
  O   2.34085022954057      0.68341196076064     -1.17296388310028
  O   1.57690786118337     -1.20383004940552     -0.34476241244902
  C   0.37316702128243      1.77756332750977      0.52301424122188
  N   0.53502329199622      2.66937745221750      1.27050675954403
