13
Coordinates from ORCA-job run
  C   -0.75257573558793     -0.37602321200645      0.32798034483953
  C   0.37604316292596      0.39185310748416     -0.40450128327689
  F   -1.08175868693551      0.25147145012542      1.49437951254343
  H   0.49461010975035     -0.00696497736293     -1.41514615738133
  C   -0.31511731369683     -1.75412442646679      0.60306392051631
  N   0.05138327164482     -2.85495334929235      0.78936114020567
  C   -1.92973269493556     -0.39319852411474     -0.55776332623694
  N   -2.85597505875379     -0.39324434208612     -1.28111790732031
  N   1.70966973001057      0.16549460452379      0.28830565447881
  O   1.71257900819556      0.26177655456431      1.50744962588354
  O   2.65250789274454     -0.07999917904896     -0.45255590889533
  C   0.08749336352817      1.81836816686409     -0.43390385621362
  N   -0.14912704889035      2.96854412681658     -0.46455175914288
