13
Coordinates from ORCA-job run
  C   -0.70172535301259     -0.44653652673037      0.24477623522251
  C   0.42786978053926      0.41682176545738     -0.37224015345193
  F   -1.00066622032197      0.04882943097639      1.48536213146081
  H   0.69964079773572      0.01694393920732     -1.35236877157137
  C   -0.28184055661774     -1.85134200688322      0.36724694802180
  N   0.03099729862684     -2.97952986703337      0.46890729989212
  C   -1.88424568638429     -0.35544165766244     -0.62606814268953
  N   -2.81368174081642     -0.27351111462143     -1.34070418006408
  N   1.65997806695575      0.27679685515535      0.50378295516345
  O   2.40565863050935     -0.64622585086417      0.19636014822399
  O   1.77099091333708      1.05766203065485      1.43761662605093
  C   0.01523013382039      1.80900256356257     -0.45535922875055
  N   -0.32820606437138      2.92753043878113     -0.55831186750815
