16

C	0.0	0.0	0.0
C	-0.115147	-0.261109	-1.53003
Br	2.057515	0.0	0.0
H	0.530878	0.439091	-2.055523
H	0.177573	-1.284495	-1.758776
N	-0.524355	1.221137	0.459118
H	-0.505297	1.927254	-0.266828
H	-1.506659	1.065668	0.706919
C	-0.473079	-1.157305	0.844179
H	-1.561725	-1.221784	0.727399
H	-0.00548	-2.091157	0.530442
H	-0.234976	-0.967114	1.892206
N	-1.443214	-0.040611	-2.180618
O	-2.04381	-1.024805	-2.59862
O	-1.770805	1.133319	-2.341438
Br	-3.908143	0.0	0.0
