16

C	0.0	0.0	0.0
C	-0.454637	0.025952	-1.452224
Br	2.022359	0.0	0.0
H	-0.054623	-0.82652	-1.996077
H	-1.552875	0.027528	-1.433896
N	-0.47313	1.117848	0.731467
H	-0.726618	0.834937	1.668529
H	-1.299928	1.511059	0.293528
C	-0.406099	-1.340424	0.595349
H	-0.06339	-1.396961	1.63198
H	-1.49958	-1.381727	0.56976
H	0.026662	-2.178882	0.045043
N	-0.016329	1.23539	-2.197551
O	0.80335	1.081685	-3.10479
O	-0.514485	2.311984	-1.87191
Br	-3.799932	0.0	0.0
