16

C	0.0	0.0	0.0
C	-0.264658	0.177085	-1.519027
Br	1.990353	0.0	0.0
H	-0.322261	1.242484	-1.733204
H	0.546599	-0.274084	-2.087707
N	-0.513733	1.14567	0.690162
H	-0.423908	0.992545	1.689932
H	-1.523851	1.15332	0.492166
C	-0.415953	-1.340399	0.582809
H	-0.01229	-2.181266	0.019817
H	-1.508251	-1.377265	0.56922
H	-0.062267	-1.396911	1.616398
N	-1.463418	-0.458348	-2.1606
O	-1.587725	-1.671496	-2.029092
O	-2.117509	0.253235	-2.914276
Br	-3.841298	0.0	0.0
