14

C	0.0	0.0	0.0
C	-0.56031	-0.117399	-1.424538
Br	1.949251	0.0	0.0
H	-1.638091	0.098559	-1.298524
H	-0.348027	-0.846713	0.592399
C	-0.387563	1.250026	0.653422
N	-0.582168	2.268699	1.205494
C	-0.426607	-1.536893	-1.970099
H	-1.038072	-2.19757	-1.352488
H	0.61156	-1.876924	-1.968163
H	-0.809363	-1.581451	-2.991315
C	0.028489	0.870774	-2.322003
N	0.497374	1.6328	-3.08388
Br	-3.5861	0.0	0.0
