14

C	0.0	0.0	0.0
C	-0.40964	0.148633	-1.512302
Br	1.952184	0.0	0.0
H	0.517649	0.040904	-2.082312
H	-0.340265	-0.946021	0.417206
C	-0.423461	1.100743	0.852792
N	-0.634946	1.994509	1.585013
C	-0.978966	1.520163	-1.876829
H	-1.910614	1.694053	-1.341618
H	-0.245381	2.292008	-1.625923
H	-1.16326	1.555921	-2.953378
C	-1.211394	-0.98763	-1.976603
N	-1.635325	-1.941261	-2.51762
Br	-3.368282	0.0	0.0
