14

C	0.0	0.0	0.0
C	-0.473482	-0.007206	-1.477136
Br	1.94933	0.0	0.0
H	0.210672	0.644557	-2.028985
H	-0.339023	-0.887687	0.535601
C	-0.419202	1.210324	0.69571
N	-0.671529	2.224821	1.232442
C	-1.907846	0.492546	-1.654152
H	-2.273266	0.254198	-2.652873
H	-1.935092	1.575499	-1.519118
H	-2.618478	0.062176	-0.945311
C	-0.282736	-1.357785	-2.014481
N	-0.135453	-2.418362	-2.497189
Br	-4.975992	0.0	0.0
