14

C	0.0	0.0	0.0
C	-0.421555	0.08466	-1.510989
Br	1.952149	0.0	0.0
H	0.503244	-0.035435	-2.083372
H	-0.34008	-0.924799	0.462646
C	-0.408914	1.141981	0.808356
N	-0.598304	2.079836	1.490729
C	-1.004907	1.435425	-1.926215
H	-0.265753	2.218965	-1.732461
H	-1.92292	1.632838	-1.376155
H	-1.223317	1.417675	-2.997856
C	-1.210111	-1.082378	-1.923032
N	-1.588134	-2.082656	-2.411456
Br	-3.389035	0.0	0.0
