15

C	0.0	0.0	0.0
C	-0.424427	0.13499	-1.541366
Cl	1.783462	0.0	0.0
H	-1.495613	-0.033764	-1.669646
C	-0.46449	1.04874	0.899054
N	-0.592581	1.962513	1.628828
C	-0.380425	-1.346563	0.441771
N	-0.605234	-2.411168	0.894155
N	0.25663	-0.754836	-2.427439
H	-0.248091	-1.628297	-2.498038
H	1.217508	-0.916342	-2.172652
N	-0.21011	1.55896	-2.032617
O	-0.886022	1.860584	-3.009391
O	0.608492	2.291534	-1.473167
Br	-3.292199	0.0	0.0
