16
Coordinates from ORCA-job run
  C   -0.35545822161162      0.79574793233960     -0.42871166465601
  C   0.65541718823935     -0.24244553766644      0.05519607368257
  F   0.36720449456628      2.00437139459652     -0.59538973600816
  H   1.34641637014667     -0.38373353403339     -0.79591310424706
  C   -1.37808130305074      1.07130338712891      0.59745284312372
  N   -2.22110843981199      1.28454135428063      1.38517258585568
  N   -0.98381323738349      0.39439016033036     -1.62987608699316
  H   -0.29366896101860      0.23491882276968     -2.35351291421407
  H   -1.65574912671449      1.08222971551920     -1.94546875666506
  C   -0.01633426853658     -1.56429598873266      0.38671591449257
  H   -0.57206584176458     -1.95032062896298     -0.46706532600340
  H   0.73837707529677     -2.30186247752001      0.67304485110421
  H   -0.69896888022537     -1.43231560778060      1.22885280884210
  N   1.30088642952902      0.29350992295320      1.24208151016996
  H   1.84640570589887      1.11290610800500      1.00745366480174
  H   1.92154101644047     -0.39994502322702      1.63996733671438
