16
Coordinates from ORCA-job run
  C   -0.64805276001564      0.71741881457284     -0.15659882679283
  C   0.41028808324823     -0.39900938384859     -0.10661862907900
  F   -0.78164127482250      1.19249186345251      1.17234947938155
  H   0.38821825036335     -0.87290251692954     -1.09465457353418
  C   -1.96800938505970      0.16181247071909     -0.51303049990344
  N   -3.00088604628810     -0.29741852414316     -0.82993032499430
  N   -0.28000054045151      1.75520146162970     -1.01735933699181
  H   -0.95352639592327      2.07179892039263     -1.69095361338302
  H   0.68167242508002      1.70751685541478     -1.31596329637613
  C   0.10398988448572     -1.43750072671557      0.96608220439952
  H   0.85405555031004     -2.23181019464882      0.93438046590362
  H   -0.87783781053867     -1.89515772143471      0.81936521237865
  H   0.12489592945178     -0.97817501833819      1.95536401515424
  N   1.70718351121784      0.26193708816624      0.02052134946195
  H   2.45055448699223     -0.41611315925052     -0.09242714622398
  H   1.78909609195018      0.65890977096130      0.95047352059917
