16
Coordinates from ORCA-job run
  C   -0.60664021509171      0.74502284967398     -0.19492680141455
  C   0.37689940981917     -0.43358125973606     -0.08472307279985
  F   -0.63857952451712      1.35190834576053      1.08395421598827
  H   0.27245377581330     -0.99637147561344     -1.01943130459701
  C   -1.97641460807268      0.25095367494897     -0.43640180750820
  N   -3.05084981871326     -0.16477047576858     -0.66212089131888
  N   -0.21709656809829      1.67138944187265     -1.16904519508373
  H   -0.90247937721864      1.94873809486379     -1.84842678631050
  H   0.72040462037650      1.51948132439663     -1.50767980993231
  C   0.05961584381610     -1.34201397781882      1.09733501820521
  H   0.75253072845149     -2.18708615616492      1.10844274390337
  H   -0.95675515476152     -1.74043900910067      1.04180377967906
  H   0.16362670863907     -0.79432857195443      2.03503001956400
  N   1.71948878552533      0.14308121659512     -0.08281098175265
  H   1.87530171347809      0.62190584854587      0.79779846507064
  H   2.40949368055418     -0.59388987050060     -0.15979759169289
