16
Coordinates from ORCA-job run
  C   -0.18870516647147      0.63391493252595     -0.78128125350357
  C   0.61775923036599     -0.25278842446681      0.17997753248291
  F   0.21554972486725      0.35894955564987     -2.07971502467046
  H   1.67486994354728     -0.01643100765939     -0.00942814242893
  C   0.17074014897563      2.05778200749243     -0.53592394775982
  N   0.43231019573225      3.17041410982975     -0.26337967484905
  N   -1.57641366034870      0.36145576594445     -0.65388831796841
  H   -2.14573092414979      1.07855766093772     -1.08426420060612
  H   -1.79384257077472      0.28572522801968      0.33385343613601
  C   0.37758514090786     -1.72450873828808     -0.11493940269779
  H   1.05896555162846     -2.33478359468456      0.48437926223811
  H   0.56106481360552     -1.93873278678273     -1.16717264562852
  H   -0.64957063220986     -2.00212015016189      0.12212763901367
  N   0.18099836674434      0.07142786396260      1.53633198825355
  H   0.44239845854727     -0.67263839988630      2.17100255850735
  H   0.62202137903269      0.92377597756731      1.86332019348106
