16
Coordinates from ORCA-job run
  C   -0.53823186500352      0.71067472866490     -0.15113019240263
  C   0.46193877411381     -0.43483360978470      0.03061335642357
  F   -0.75394169694018      1.35512186531073      1.04610153960327
  H   0.54699446917866     -0.90615681377770     -0.96661582341531
  C   -1.85522143686356      0.17164874721190     -0.58710231116575
  N   -2.87282978925094     -0.24281643918711     -1.00244351586217
  N   -0.00774473293683      1.69654649588780     -1.05860294189577
  H   0.08347810885494      1.30290322244317     -1.98821788746226
  H   -0.63758873531805      2.48978140247861     -1.10668180628353
  C   -0.05023416955547     -1.46897434949974      1.02123929732785
  H   -0.96545729430149     -1.95221994438681      0.67259862881778
  H   -0.23109166419430     -0.98878410851274      1.98322552135966
  H   0.70540101064501     -2.24502386964701      1.16485484609037
  N   1.70532870310682      0.13849629287499      0.51954783993699
  H   2.43941356092943     -0.55707274881099      0.47723426258851
  H   1.96878675753568      0.92970912873469     -0.05462081366058
