16
Coordinates from ORCA-job run
  C   -0.40693121899259      0.58560914635716     -0.73455391675717
  C   0.66657638731190     -0.17420079237323      0.05983526235844
  F   -0.22631920489799      0.32312861703694     -2.08446876341788
  H   1.63342017357164      0.17701416447356     -0.32897460100433
  C   -0.18042229046512      2.04802241967518     -0.57010989559773
  N   -0.00640332291627      3.19064972283234     -0.35850767330690
  N   -1.70292431058007      0.15715143459201     -0.34250807561587
  H   -2.42473718820926      0.79029519424043     -0.66145879699433
  H   -1.71910534124478      0.08735280070733      0.66927994303913
  C   0.55151939045268     -1.67159509114324     -0.17518596273224
  H   0.55722786129069     -1.89322883924512     -1.24181746814040
  H   1.40146554785387     -2.18154529848499      0.28672359326563
  H   -0.37204984790406     -2.05907217133230      0.25512136229706
  N   0.45885018278272      0.13627737542385      1.47274161233301
  H   0.85339915244012      1.04084843134591      1.70527114417853
  H   0.91743402950651     -0.55670711410583      2.05061223609502
