16

C	-0.49187	-0.001449	-1.442679
C	0.0	0.0	0.0
F	-0.060439	1.196939	-1.979803
H	1.09027	0.0	0.0
N	0.247043	-1.063466	-2.261676
O	0.610171	-2.058795	-1.649593
O	0.339939	-0.859181	-3.466419
N	-1.847641	-0.247253	-1.62956
H	-2.175365	0.012195	-2.549445
H	-2.437117	0.089015	-0.884307
N	-0.444297	-1.194074	0.814035
O	-1.65467	-1.331252	0.992133
O	0.436247	-1.910989	1.266752
C	-0.528729	1.183867	0.643125
N	-0.985365	2.150878	1.14103
Br	2.749699	0.0	0.0
