16

C	-0.387749	-0.035848	-1.491442
C	0.0	0.0	0.0
Br	0.357389	1.441388	-2.485505
H	1.090422	0.0	0.0
C	0.105479	-1.278423	-2.069051
N	0.484997	-2.282673	-2.547138
N	-1.923217	-0.041412	-1.653739
O	-2.451804	-1.129126	-1.424797
O	-2.502512	1.004029	-1.89793
N	-0.412289	-1.131366	0.754629
H	0.353576	-1.790009	0.785065
H	-1.278865	-1.562924	0.466773
N	-0.609723	1.23723	0.588511
O	-1.788513	1.153368	0.948594
O	0.082985	2.248258	0.677756
F	2.503813	0.0	0.0
