16

C	-0.434137	-0.004065	-1.471296
C	0.0	0.0	0.0
Br	0.324081	1.509974	-2.395829
H	1.092282	0.0	0.0
C	0.04481	-1.227515	-2.102384
N	0.391963	-2.215176	-2.6372
N	-1.97901	-0.014068	-1.674425
O	-2.517303	-1.025853	-1.226759
O	-2.539177	0.911462	-2.227413
N	-0.465651	-1.073196	0.807761
H	-1.325283	-1.501532	0.49925
H	0.275946	-1.740116	0.944049
N	-0.498673	1.280039	0.621864
O	-1.66234	1.619968	0.377768
O	0.255124	1.874027	1.380113
F	2.510286	0.0	0.0
