16

C	-0.41151	-0.014723	-1.448969
C	0.0	0.0	0.0
Br	-2.327461	-0.359718	-1.811108
H	1.094705	0.0	0.0
C	-0.026937	1.216116	-2.12499
N	0.289051	2.213563	-2.664912
N	0.301927	-1.172999	-2.186095
O	0.213469	-1.160308	-3.407993
O	0.872622	-2.014443	-1.493895
N	-0.62921	-1.057512	0.788095
H	-0.197066	-1.9142	0.44419
H	-0.235561	-0.951776	1.724495
N	-0.450179	1.304479	0.609208
O	-1.614257	1.685354	0.399815
O	0.390671	1.945879	1.246878
F	2.521746	0.0	0.0
