16

C	-0.598517	-0.103218	-1.402103
C	0.0	0.0	0.0
Br	0.07469	-1.715494	-2.257377
H	1.115693	0.0	0.0
C	-2.054578	-0.179329	-1.364922
N	-3.217541	-0.289709	-1.226032
N	-0.181604	1.035604	-2.343645
O	0.994507	1.344392	-2.32939
O	-1.061239	1.493704	-3.064427
N	-0.366886	-1.137968	0.780236
H	-1.186179	-0.969783	1.349871
H	0.415763	-1.366025	1.378656
N	-0.464647	1.274058	0.613958
O	-0.762591	2.210673	-0.135723
O	-0.4869	1.338197	1.843256
F	2.467949	0.0	0.0
