16

C	-0.437919	0.010421	-1.462477
C	0.0	0.0	0.0
Br	-2.374511	0.325079	-1.635531
H	1.093885	0.0	0.0
C	0.261762	0.934821	-2.343978
N	0.762003	1.616828	-3.160779
N	-0.128784	-1.389049	-2.076136
O	-0.868265	-1.807033	-2.95699
O	0.891761	-1.921013	-1.666339
N	-0.475911	-1.07678	0.77442
H	0.194163	-1.828306	0.768692
H	-1.418055	-1.381869	0.580588
N	-0.418871	1.317189	0.579907
O	-0.131421	2.314754	-0.085846
O	-0.989039	1.34732	1.667916
F	2.480264	0.0	0.0
