17

C	-0.363291	0.083775	-1.500611
C	0.0	0.0	0.0
Br	-0.076891	-1.798833	-2.282562
H	1.096274	0.0	0.0
N	-1.726337	0.387205	-1.857578
H	-1.946504	1.303651	-1.479478
H	-2.349338	-0.303507	-1.455619
N	0.485712	1.036813	-2.081119
H	0.364324	1.062847	-3.083351
H	1.458097	0.87203	-1.827738
C	-0.573561	-1.155301	0.670732
N	-1.102709	-2.012565	1.27636
C	-0.434996	1.275422	0.737774
H	-1.522559	1.345096	0.831982
H	-0.002511	1.268517	1.739541
H	-0.0525	2.146099	0.204777
Cl	3.32427	0.0	0.0
