17

C	-0.370532	0.063062	-1.49757
C	0.0	0.0	0.0
Br	0.091491	-1.769345	-2.274325
H	1.094233	0.0	0.0
N	-1.736679	0.381608	-1.700745
H	-1.933215	0.374676	-2.694169
H	-2.333612	-0.291763	-1.235571
N	0.434706	0.98023	-2.251354
H	1.416633	0.802304	-2.042799
H	0.205112	1.919263	-1.942924
C	-0.579816	-1.149749	0.678871
N	-1.137767	-2.010332	1.253263
C	-0.423572	1.280649	0.735587
H	0.016194	2.150159	0.244763
H	-0.027697	1.246466	1.752506
H	-1.507759	1.398575	0.767882
Cl	3.328869	0.0	0.0
