17

C	-0.254825	-0.064644	-1.505539
C	0.0	0.0	0.0
Br	-2.265071	-0.602766	-1.837649
H	1.10084	0.0	0.0
N	-0.045234	1.199064	-2.108038
H	-0.736958	1.879439	-1.819507
H	-0.058323	1.120053	-3.117375
N	0.516609	-1.126502	-2.039617
H	1.483632	-1.009518	-1.725169
H	0.472172	-1.154314	-3.050559
C	-0.45576	-1.210358	0.674264
N	-0.828215	-2.134066	1.297194
C	-0.523152	1.248997	0.696432
H	-1.604628	1.353363	0.563727
H	-0.005735	2.127642	0.307861
H	-0.308502	1.185044	1.764449
Cl	3.329003	0.0	0.0
