17

C	-0.370692	-0.268353	-1.482602
C	0.0	0.0	0.0
Br	-0.182827	1.554398	-2.480429
H	1.100803	0.0	0.0
N	0.507116	-1.235008	-1.961997
H	0.378695	-1.417356	-2.946599
H	1.477306	-1.048234	-1.714564
N	-1.722814	-0.65752	-1.798442
H	-1.92383	-1.512407	-1.284721
H	-2.372097	0.067994	-1.51578
C	-0.463984	-1.174592	0.739849
N	-0.910926	-2.087283	1.331827
C	-0.546307	1.264365	0.653456
H	-0.357348	1.222767	1.728848
H	-1.624871	1.367811	0.495337
H	-0.039967	2.13812	0.248681
Cl	3.330092	0.0	0.0
