17

C	-0.556585	0.013025	-1.431797
C	0.0	0.0	0.0
Br	0.3929	1.478698	-2.442887
H	1.093318	0.0	0.0
N	-0.207185	-1.197233	-2.120547
H	-0.742158	-1.961981	-1.721375
H	-0.403298	-1.1197	-3.11042
N	-1.971895	0.254836	-1.417228
H	-2.323802	0.246579	-2.36789
H	-2.182405	1.160807	-1.014827
C	-0.462294	-1.239582	0.628024
N	-0.871974	-2.221501	1.126941
C	-0.440444	1.195068	0.852582
H	-1.510253	1.178422	1.077466
H	-0.177568	2.12363	0.342173
H	0.110547	1.170316	1.793912
Cl	3.379823	0.0	0.0
