17

C	-0.346708	0.079179	-1.489299
C	0.0	0.0	0.0
Br	0.024796	-1.934622	-2.281715
H	1.094565	0.0	0.0
N	-1.704189	0.347976	-1.753999
H	-1.881605	0.366305	-2.751104
H	-2.275389	-0.382485	-1.347355
N	0.538584	0.952264	-2.113343
H	0.460637	0.946837	-3.121464
H	1.499281	0.761238	-1.826034
C	-0.586863	-1.149696	0.668445
N	-1.152328	-2.002505	1.246975
C	-0.437222	1.289509	0.716133
H	-1.523961	1.379054	0.760275
H	-0.029458	1.282122	1.729188
H	-0.02758	2.145571	0.180934
Cl	3.317843	0.0	0.0
