13

C	0.0	0.0	0.0
C	-0.527243	-0.096148	-1.413962
Cl	1.845582	0.0	0.0
H	-0.240073	-1.032205	-1.886253
H	-0.259119	-0.935278	0.494986
H	-1.624043	-0.000574	-1.337036
N	-0.528819	1.073068	0.716036
H	-0.309871	1.065961	1.697949
H	-0.386722	1.967696	0.277754
N	-0.019506	0.976376	-2.307987
O	-0.007069	2.131011	-1.88087
O	0.33378	0.650141	-3.439973
Br	-3.895862	0.0	0.0
