13

C	0.0	0.0	0.0
C	-0.472316	0.187703	-1.442575
Cl	1.800298	0.0	0.0
H	-0.177296	-0.646991	-2.075269
H	-0.315762	-1.005172	0.279814
H	-1.564258	0.29143	-1.407898
N	-0.481516	0.912808	0.989557
H	-1.485196	0.734958	1.071755
H	-0.36778	1.857034	0.641375
N	0.085823	1.39826	-2.09425
O	0.026149	2.463442	-1.480004
O	0.558995	1.27425	-3.223498
Br	-3.691044	0.0	0.0
