13

C	0.0	0.0	0.0
C	-0.491963	-0.02327	-1.429659
Cl	1.830996	0.0	0.0
H	-1.589761	-0.096121	-1.380995
H	-0.30129	-0.915676	0.503349
H	-0.179448	0.860142	-1.985874
N	-0.532266	1.127475	0.647151
H	-0.665097	1.019466	1.637734
H	-0.074348	1.993236	0.40982
N	0.015664	-1.198477	-2.182809
O	0.069538	-2.273186	-1.591249
O	0.313659	-1.029837	-3.364888
Br	-3.840288	0.0	0.0
