13

C	0.0	0.0	0.0
C	-0.476267	-0.146746	-1.436319
Cl	1.790156	0.0	0.0
H	-1.571564	-0.216844	-1.405451
H	-0.304125	-0.881826	0.561731
H	-0.144563	0.685715	-2.056583
N	-0.509683	1.168369	0.652765
H	-1.514357	1.017822	0.776809
H	-0.394795	1.974884	0.047986
N	0.034338	-1.381006	-2.085926
O	-0.012701	-2.421448	-1.433776
O	0.448959	-1.292034	-3.24233
Br	-3.704745	0.0	0.0
