13

C	0.0	0.0	0.0
C	-0.537452	-0.040691	-1.412053
Cl	1.838706	0.0	0.0
H	-1.634041	0.049379	-1.319899
H	-0.261116	-0.953016	0.459267
H	-0.253878	-0.956509	-1.92445
N	-0.52711	1.044862	0.761291
H	-0.36883	1.95743	0.366583
H	-0.314982	0.990013	1.743388
N	-0.042969	1.066944	-2.269133
O	-0.005378	2.201367	-1.790094
O	0.270256	0.790005	-3.427056
Br	-3.892473	0.0	0.0
