15

C	0.0	0.0	0.0
C	-0.482383	-0.443381	-1.392442
Cl	1.79368	0.0	0.0
H	0.128704	0.113417	-2.118056
H	-0.339452	-0.726012	0.738541
C	-0.417889	1.355006	0.352403
N	-0.662572	2.481295	0.580537
C	-1.94576	-0.10738	-1.617082
H	-2.62211	-0.499714	-0.854452
H	-2.262615	-0.511449	-2.583641
H	-2.106525	0.970399	-1.645478
N	-0.248709	-1.88543	-1.472299
H	0.663262	-2.08114	-1.863689
H	-0.950064	-2.308832	-2.064545
Cl	-5.035496	0.0	0.0
