15

C	0.0	0.0	0.0
C	-0.485177	-0.021019	-1.507095
Cl	1.789563	0.0	0.0
H	0.395595	-0.357131	-2.065054
H	-0.318422	-0.920597	0.490845
C	-0.45204	1.141361	0.789469
N	-0.71188	2.096417	1.422286
C	-0.863252	1.376496	-1.973201
H	-1.79127	1.679686	-1.483481
H	-0.081414	2.106556	-1.749114
H	-1.034237	1.351	-3.051775
N	-1.556377	-0.936225	-1.803584
H	-2.407829	-0.678881	-1.293805
H	-1.303714	-1.87998	-1.533908
Cl	-4.021116	0.0	0.0
