18

C	-0.452573	0.021686	-1.46745
C	0.0	0.0	0.0
F	0.018017	-1.198682	-2.001039
H	1.090866	0.0	0.0
C	-1.952605	-0.001528	-1.665605
H	-2.170605	-0.051885	-2.736147
H	-2.365043	-0.892386	-1.190444
H	-2.416978	0.891127	-1.248305
N	0.156149	1.12944	-2.111809
H	0.038883	1.046542	-3.114186
H	1.149883	1.148977	-1.892934
N	-0.515063	-1.119368	0.718347
H	-1.399973	-0.87903	1.146622
H	0.149225	-1.379887	1.43504
N	-0.43002	1.320111	0.62981
O	0.315477	2.285746	0.535291
O	-1.531131	1.335996	1.19649
Cl	3.364259	0.0	0.0
