18

C	-0.42389	0.060409	-1.476932
C	0.0	0.0	0.0
F	-0.22355	-1.288178	-1.941917
H	1.096571	0.0	0.0
C	-1.895511	0.332811	-1.69612
H	-2.486814	-0.361376	-1.099069
H	-2.136081	1.35673	-1.409222
H	-2.132198	0.19506	-2.755004
N	0.414651	0.960322	-2.157475
H	0.308005	0.872309	-3.158967
H	1.388049	0.836143	-1.88777
N	-0.615707	-1.130956	0.655739
H	-0.308293	-1.943692	0.134285
H	-0.211809	-1.205898	1.584133
N	-0.442578	1.271064	0.671014
O	-1.467066	1.249366	1.357619
O	0.249043	2.267009	0.470713
Cl	3.385388	0.0	0.0
