18

C	-0.42564	0.008186	-1.47526
C	0.0	0.0	0.0
F	-1.833949	-0.055238	-1.483415
H	1.090961	0.0	0.0
C	0.003743	1.230144	-2.251539
H	-0.540109	2.112101	-1.920547
H	1.071614	1.405747	-2.108856
H	-0.211887	1.044901	-3.305243
N	0.059823	-1.178252	-2.121272
H	-0.035271	-1.938842	-1.454618
H	1.055495	-1.052696	-2.281683
N	-0.483704	-1.176569	0.648123
H	0.067856	-1.35391	1.476807
H	-1.452954	-1.055239	0.910109
N	-0.470084	1.266997	0.693953
O	0.103885	2.314271	0.413934
O	-1.410011	1.177595	1.487194
Cl	3.324766	0.0	0.0
