18

C	-0.509875	0.115719	-1.442956
C	0.0	0.0	0.0
F	-1.886822	0.531685	-1.348857
H	1.092644	0.0	0.0
C	0.215426	1.140198	-2.28483
H	-0.091707	1.02369	-3.328898
H	1.28954	0.968789	-2.195702
H	-0.013699	2.15173	-1.957717
N	-0.412625	-1.165748	-2.023426
H	-0.848189	-1.183707	-2.934684
H	-0.801857	-1.857408	-1.395745
N	-0.509263	-1.168378	0.653834
H	0.199313	-1.523534	1.281226
H	-1.335985	-0.930154	1.185864
N	-0.390061	1.266624	0.741121
O	0.192868	2.294631	0.413955
O	-1.253437	1.197564	1.616711
Cl	3.363767	0.0	0.0
