15
Coordinates from ORCA-job run
  C   -0.48746990807179      0.23724293697888     -0.03899438230759
  C   1.01045475579174      0.48564771403176     -0.18531756119532
  Br  -1.39004768150078      0.62728983755975     -1.71584192240427
  H   1.50105414483320      0.33192521142556      0.77640179358344
  H   1.21058785907888      1.48213715558540     -0.56651859736016
  N   -1.00966680811922      1.27376968484278      0.96736153162309
  O   -2.15208852772136      1.11712634902789      1.37254906207150
  O   -0.24492238153148      2.17909491838494      1.28848085886643
  C   -0.87327744258129     -1.13648930374505      0.45991662756958
  H   -0.56315577982056     -1.89853311560521     -0.25187883523227
  H   -0.37693927332617     -1.32999150221736      1.41509366325162
  H   -1.95142619388437     -1.18349645287081      0.59833447937863
  N   1.62060828134677     -0.48601408585623     -1.13883737088176
  O   1.88872879185074     -0.07489055966237     -2.26430895349539
  O   1.81956016365569     -1.62481878787994     -0.71744039346755
