19

C	-0.394239	0.052017	-1.467309
C	0.0	0.0	0.0
Br	-2.332871	0.46824	-1.719951
H	1.09177	0.0	0.0
C	0.433398	0.987449	-2.316604
H	0.289624	0.762002	-3.37539
H	1.480332	0.843931	-2.024336
H	0.14786	2.014192	-2.1119
N	-0.186906	-1.373144	-1.993723
O	0.933111	-1.604729	-2.440375
O	-1.087395	-2.19689	-1.881721
C	-0.469189	-1.202143	0.784155
H	0.02239	-2.095373	0.395819
H	-0.149536	-1.076568	1.817934
H	-1.552179	-1.335187	0.758793
N	-0.367941	1.251815	0.667065
O	0.028068	2.308978	0.159624
O	-0.97949	1.199525	1.7442
H	2.541851	0.0	0.0
