19

C	-0.531951	-0.013133	-1.418492
C	0.0	0.0	0.0
Br	0.411034	-1.444873	-2.429692
H	1.088913	0.0	0.0
C	-2.013129	-0.235186	-1.602278
H	-2.545685	0.58147	-1.112414
H	-2.288698	-1.186818	-1.148501
H	-2.269193	-0.254283	-2.660621
N	-0.099853	1.248586	-2.168229
O	-0.768564	1.559814	-3.151936
O	0.914698	1.809105	-1.78469
C	-0.350172	-1.226863	0.828447
H	0.2534	-1.19265	1.736308
H	-1.411377	-1.2585	1.100926
H	-0.083656	-2.132418	0.28122
N	-0.431652	1.187225	0.704766
O	-0.046836	1.300648	1.882382
O	-1.09247	2.071624	0.110886
H	2.435531	0.0	0.0
