19

C	-0.616	0.011292	-1.383582
C	0.0	0.0	0.0
Br	0.184555	-1.454501	-2.453511
H	1.096814	0.0	0.0
C	-2.120034	-0.145695	-1.413687
H	-2.558967	0.725608	-0.926294
H	-2.394872	-1.051751	-0.874648
H	-2.489603	-0.204899	-2.435836
N	-0.207279	1.259525	-2.174097
O	-1.054183	1.751073	-2.914513
O	0.945007	1.643783	-2.046672
C	-0.286109	-1.251594	0.817264
H	-1.292724	-1.250723	1.244405
H	0.444204	-1.285165	1.626906
H	-0.146086	-2.141585	0.203396
N	-0.398974	1.160525	0.738603
O	-0.847192	2.164227	0.130243
O	-0.149305	1.159915	1.962899
H	2.39257	0.0	0.0
