17

C	-0.35718	-0.046456	-1.47503
C	0.0	0.0	0.0
Br	-2.351793	-0.182769	-1.767988
H	1.100875	0.0	0.0
C	-0.016291	1.265328	-2.032003
N	0.265321	2.295765	-2.524644
C	0.36724	-1.113379	-2.28221
H	1.42591	-1.029794	-2.001828
H	0.243925	-0.931634	-3.352021
H	0.000998	-2.100781	-2.021294
N	-0.384411	-1.22479	0.744395
O	-0.271399	-1.18275	1.967432
O	-0.681306	-2.247618	0.112274
N	-0.403145	1.166083	0.708977
H	-1.172155	1.653733	0.270208
H	0.396962	1.778655	0.818468
H	2.532261	0.0	0.0
