17

C	-0.423711	-0.032559	-1.457487
C	0.0	0.0	0.0
Br	-2.425411	-0.275534	-1.604851
H	1.093449	0.0	0.0
C	-0.173225	1.296414	-2.019136
N	0.04424	2.307593	-2.579072
C	0.274028	-1.07051	-2.322774
H	1.345691	-0.983601	-2.101773
H	0.082412	-0.866893	-3.377671
H	-0.056446	-2.072553	-2.067324
N	-0.375659	-1.247234	0.709076
O	-0.922241	-1.149739	1.815915
O	-0.040013	-2.321203	0.201511
N	-0.43058	1.179726	0.667327
H	-1.295409	1.017484	1.166484
H	0.2885	1.435509	1.336232
H	2.540954	0.0	0.0
