17

C	-0.379268	-0.219024	-1.447183
C	0.0	0.0	0.0
Br	-2.357911	-0.062522	-1.854336
H	1.110016	0.0	0.0
C	0.187657	0.886295	-2.220009
N	0.613475	1.766319	-2.873187
C	0.14293	-1.553181	-1.94812
H	-0.008342	-1.657189	-3.023255
H	-0.367795	-2.367979	-1.434064
H	1.215207	-1.574518	-1.709308
N	-0.436766	-1.170827	0.842064
O	-1.60935	-1.547102	0.755337
O	0.395017	-1.660752	1.600478
N	-0.433718	1.200326	0.630679
H	-1.272974	1.583598	0.216505
H	0.327605	1.869637	0.612101
H	2.640059	0.0	0.0
