17

C	-0.556716	-0.065889	-1.427343
C	0.0	0.0	0.0
Br	0.451396	1.279946	-2.478387
H	1.10777	0.0	0.0
C	-0.258922	-1.363568	-2.033665
N	-0.081313	-2.414716	-2.531803
C	-2.033463	0.27547	-1.599239
H	-2.213523	1.254671	-1.153306
H	-2.283851	0.317849	-2.6605
H	-2.644584	-0.47934	-1.105309
N	-0.433806	-1.246374	0.750259
O	-1.636733	-1.550479	0.70707
O	0.399329	-1.842941	1.422485
N	-0.427941	1.170915	0.695114
H	-1.303871	1.040327	1.185299
H	0.311416	1.443959	1.334787
H	2.691609	0.0	0.0
