17
Coordinates from ORCA-job run
  C   -0.80207093228588      0.26357824634774     -0.20942206642561
  C   0.36986802243904     -0.45376953444327      0.46977134227830
  Br  -2.25611749031747      0.36633865796353      1.54405606269434
  H   -0.04834880926782     -1.33961751301465      0.95877055707542
  N   -1.44636823118492     -0.48619017194938     -1.18627755965764
  H   -2.21897803110258      0.00705976862098     -1.61484261028968
  H   -1.78304842690282     -1.36209971951245     -0.80909445074316
  N   -0.48486066977274      1.55006773230773     -0.56660859969441
  H   0.00756733204145      1.99357036479474      0.20168982052194
  H   -1.26114264702977      2.10131145261945     -0.90372931930791
  N   0.96167279947776      0.46705374098713      1.43412154256785
  H   1.97077413906793      0.41202062374194      1.41007265334260
  H   0.63810824078525      0.28019859723333      2.37231434355319
  C   1.39477925063277     -0.87362033528730     -0.58101432382588
  H   0.96568006967889     -1.57606671074738     -1.29428419982388
  H   1.74353267548533      0.00044378273895     -1.13509359990067
  H   2.24795270825557     -1.35127898240107     -0.09142959236479
