17
Coordinates from ORCA-job run
  C   -0.57987697157866      0.49228033943545     -0.32532990480597
  C   0.51289006210079     -0.32519276154823      0.37430009551291
  Br  0.19994009021239      1.86264318557619     -1.49040857260887
  H   -0.06934312091158     -1.04833990804402      0.98653788877525
  N   -1.31209708459715      1.22821085509050      0.70338261696249
  H   -1.91943696731164      1.91946316845680      0.27830596892789
  H   -1.89249520789957      0.56618068277982      1.21179353549111
  N   -1.34569841922028     -0.38149693841515     -1.18941497741000
  H   -1.77425594440738     -1.11094685733263     -0.62689848841348
  H   -2.07819194379603      0.14078960103971     -1.65621769518965
  N   1.33540111333560      0.55601593378198      1.18366510896308
  H   0.73725287768269      1.14948218896777      1.74543558987547
  H   1.92818972212934      0.00678943225361      1.79336287408773
  C   1.39188390224925     -1.11950391232215     -0.57647307891870
  H   2.08435761705108     -1.74115689008604     -0.00102376605550
  H   1.97906595055824     -0.43198299322698     -1.18587932640639
  H   0.80041432440291     -1.76223512640662     -1.22713786878737
