17
Coordinates from ORCA-job run
  C   -0.68721345082043      0.25919722883422     -0.37770647791025
  C   0.41779644444892     -0.44705588902922      0.37300675900713
  Br  -2.28824411665698      0.25097202602095      1.92259337374504
  H   -0.03517698576199     -1.32711762090342      0.84225357032406
  N   -1.54121692381896     -0.47048582823985     -1.10690767569605
  H   -2.34330737720645      0.01587893787426     -1.48142179970736
  H   -1.80219499296537     -1.33671881622098     -0.65782208336810
  N   -0.50717975226330      1.54877032137863     -0.58601999627583
  H   -1.26484507385474      2.12203132261049     -0.92172388902088
  H   0.14525045791266      1.95761322935259      0.07788155537836
  N   0.95937772568499      0.50088394899993      1.33265757776638
  H   1.84392765181672      0.16748548060835      1.69387990276871
  H   0.28842249790978      0.57803874885480      2.09564799748869
  C   1.49846983345921     -0.87359201978643     -0.62177575860788
  H   1.95370946660859      0.00319673270263     -1.08631574540984
  H   1.08684493521921     -1.51538562099157     -1.40203223517604
  H   2.27657966028816     -1.43271218206537     -0.09619507530614
