13

C	-0.512394	0.000117	-1.4395
C	0.0	0.0	0.0
Cl	0.196307	1.404815	-2.30626
H	1.092556	0.0	0.0
H	-0.32905	-0.936509	0.470606
C	-0.038117	-1.228322	-2.101589
N	0.292862	-2.224219	-2.627393
N	-1.957783	0.078738	-1.637106
H	-2.3774	-0.672191	-1.096285
H	-2.269269	0.950509	-1.218901
C	-0.581298	1.11078	0.725992
N	-1.075081	2.011772	1.29908
F	2.519484	0.0	0.0
