13

C	-0.432476	-0.008094	-1.454337
C	0.0	0.0	0.0
Cl	0.078149	1.516237	-2.263464
H	1.092496	0.0	0.0
H	-0.30238	-0.957978	0.444302
C	0.277174	-1.103185	-2.151635
N	0.69123	-2.029645	-2.744772
N	-1.869573	-0.109804	-1.615016
H	-2.195404	-0.909968	-1.084002
H	-2.105524	-0.246933	-2.591974
C	-0.599491	1.085	0.746859
N	-1.055725	1.953222	1.395183
F	2.518238	0.0	0.0
