13

C	-0.119925	0.33131	-1.49565
C	0.0	0.0	0.0
Cl	-1.716994	-0.214681	-2.181924
H	1.093464	0.0	0.0
H	-0.328163	-1.032512	0.14735
C	-0.059143	1.785044	-1.718523
N	-0.029373	2.943716	-1.911749
N	0.956181	-0.296194	-2.243316
H	1.792658	-0.179011	-1.627742
H	0.761678	-1.293886	-2.25853
C	-0.675186	0.890013	0.913278
N	-1.23063	1.591786	1.676011
F	2.609472	0.0	0.0
