13

C	-0.140172	-0.109906	-1.520353
C	0.0	0.0	0.0
Cl	-1.767958	-0.821172	-2.00877
H	1.096142	0.0	0.0
H	-0.329584	-0.942539	0.442336
C	-0.120981	1.215797	-2.169064
N	-0.035363	2.245983	-2.731303
N	0.918707	-0.967887	-1.953728
H	1.099984	-0.855722	-2.942969
H	1.764584	-0.720435	-1.389799
C	-0.662608	1.128126	0.60731
N	-1.198814	2.036364	1.127907
F	2.618811	0.0	0.0
