13

C	-0.520772	-0.11457	-1.424804
C	0.0	0.0	0.0
Cl	0.141462	1.31495	-2.390313
H	1.0913	0.0	0.0
H	-0.321747	-0.905159	0.529222
C	0.039048	-1.306081	-2.076742
N	0.432151	-2.263739	-2.630689
N	-1.947474	-0.184038	-1.49754
H	-2.34206	0.606547	-0.999418
H	-2.25878	-0.153591	-2.461572
C	-0.586513	1.152331	0.651513
N	-1.084153	2.086324	1.165657
F	2.517216	0.0	0.0
