13

C	-0.471032	0.045874	-1.446846
C	0.0	0.0	0.0
Cl	0.115857	1.577315	-2.187069
H	1.092268	0.0	0.0
H	-0.363072	0.903195	0.49958
C	0.162994	-1.049305	-2.209564
N	0.544202	-1.9571	-2.85101
N	-1.918561	0.039855	-1.55815
H	-2.2757	-0.752539	-1.033718
H	-2.195122	-0.06166	-2.52885
C	-0.546879	-1.172146	0.652271
N	-1.012257	-2.12952	1.153914
F	2.52217	0.0	0.0
