13

C	-0.128011	-0.033819	-1.525351
C	0.0	0.0	0.0
Cl	-1.763481	-0.684837	-2.069757
H	1.091832	0.0	0.0
H	-0.337367	-0.962212	0.390868
C	-0.072648	1.324331	-2.103028
N	0.029001	2.378596	-2.613926
N	0.919496	-0.889453	-1.985588
H	1.76866	-0.664944	-1.417443
H	1.088649	-0.763588	-2.975243
C	-0.664931	1.100417	0.65315
N	-1.208527	1.98399	1.205391
F	2.617273	0.0	0.0
