13

C	-0.074468	-0.109621	-1.536753
C	0.0	0.0	0.0
Cl	-1.690925	-0.678127	-2.145366
H	1.095079	0.0	0.0
H	-0.443444	0.912568	0.399193
C	0.1106	1.242966	-2.088495
N	0.241069	2.330118	-2.512046
N	0.963459	-0.972047	-2.064087
H	0.727609	-1.922481	-1.790812
H	1.805313	-0.707046	-1.507886
C	-0.505025	-1.183927	0.658608
N	-0.903206	-2.148894	1.199158
F	2.601951	0.0	0.0
