13

C	-0.484109	-0.019453	-1.450957
C	0.0	0.0	0.0
Cl	0.041958	1.530916	-2.199117
H	1.093351	0.0	0.0
H	-0.348722	0.925716	0.470721
C	0.166162	-1.116969	-2.184721
N	0.606589	-2.028179	-2.779622
N	-1.918926	-0.133594	-1.686075
H	-2.221523	-1.0196	-1.289205
H	-2.3708	0.604761	-1.154607
C	-0.556454	-1.138525	0.701582
N	-1.030571	-2.072764	1.237711
F	2.517331	0.0	0.0
