13

C	-0.465516	-0.052604	-1.445694
C	0.0	0.0	0.0
Cl	0.234303	1.448553	-2.263221
H	1.091834	0.0	0.0
H	-0.329525	0.950646	0.432468
C	0.115215	-1.193779	-2.165507
N	0.513213	-2.114196	-2.776465
N	-1.886237	-0.108143	-1.583314
H	-2.304368	0.640499	-1.04256
H	-2.161858	-0.015514	-2.55304
C	-0.541919	-1.102575	0.769434
N	-0.959145	-1.984009	1.426316
F	2.52045	0.0	0.0
