13

C	-0.431923	-0.018783	-1.45441
C	0.0	0.0	0.0
Cl	0.078277	1.499842	-2.274162
H	1.092622	0.0	0.0
H	-0.302052	-0.954662	0.451423
C	0.278837	-1.11825	-2.143485
N	0.693251	-2.048447	-2.730482
N	-1.868856	-0.122739	-1.615033
H	-2.104203	-0.268376	-2.590958
H	-2.19448	-0.918303	-1.077167
C	-0.600352	1.089919	0.739039
N	-1.066028	1.957348	1.381668
F	2.51899	0.0	0.0
