17
Coordinates from ORCA-job run
  C   -0.66392023189480      0.01561943342942      0.17544644698596
  C   0.73042600249475     -0.47357284759842      0.62446415629471
  Br  -1.76777907147708      0.11539831125219      1.80336319227648
  H   0.59539576552512     -1.45237367879650      1.09584708502226
  C   -1.30015466783334     -0.99950675608203     -0.75997851456177
  H   -0.68857800967585     -1.09082382378344     -1.65884607743322
  H   -1.37167879557473     -1.97977304264962     -0.28330947757123
  H   -2.30636084046589     -0.67815136717795     -1.03514337555356
  C   -0.60301953886661      1.40105572935214     -0.44561411557764
  H   -0.01338740913189      1.36049599137727     -1.36681459131357
  H   -0.15946398434809      2.12949294409839      0.23629374990769
  H   -1.60669537359267      1.74217300283143     -0.70472254603733
  C   1.32446304696322      0.43115075856014      1.62856833824972
  N   1.87854341915085      1.16832421365249      2.35702683447107
  N   1.59214048124642     -0.64736581591511     -0.54326641676994
  H   2.35010051746273     -1.27995428571345     -0.31670139539634
  H   2.00896869001786      0.23881123316308     -0.80361329299330
