17
Coordinates from ORCA-job run
  C   -0.38168466506510      0.04984578492120     -0.40435032153036
  C   0.80936754229110     -0.12545872846455      0.55652360100215
  Br  0.24434018718794     -0.38538725608031     -2.22528413429647
  H   0.41470915407076      0.11181349098773      1.55371375760893
  C   -0.86522671782298      1.49118044833357     -0.41342707785841
  H   -1.18717264173808      1.77045689296966      0.59614250403077
  H   -1.71774247963069      1.59726766867759     -1.08646291147703
  H   -0.08395940018697      2.18110809231816     -0.73502860348287
  C   -1.49663315939995     -0.91734393472277     -0.04191370740048
  H   -1.85905347598614     -0.68159663575127      0.96494194937677
  H   -1.14154766836509     -1.94579854771991     -0.04901011249857
  H   -2.32808885209687     -0.81279369100666     -0.74111453238940
  C   1.87115529149114      0.86291619305943      0.27401842878115
  N   2.73825352828759      1.63500805985529      0.09261161657735
  N   1.28184130533377     -1.49984075594830      0.59578097523923
  H   1.74215258182991     -1.72356302109276     -0.27961722032166
  H   1.96028946979967     -1.60781406033610      1.34047578863889
