17
Coordinates from ORCA-job run
  C   -0.44358943463508     -0.17196941776766     -0.40130878892743
  C   0.88767652511941     -0.49303963398461      0.31493932246453
  Br  -0.42547865116130     -1.23325536734716     -2.07246910218945
  H   0.89553869251169     -1.57773188009565      0.50701957482505
  C   -0.55444984768815      1.29643238393001     -0.76822220657322
  H   0.29341317254257      1.61548971489812     -1.37152790496245
  H   -1.48069883979267      1.47867343210889     -1.31616117276715
  H   -0.56994029671077      1.89341662208162      0.14930182672962
  C   -1.62780081604765     -0.65239835037235      0.42208819708388
  H   -1.53008519228866     -1.70881336913616      0.68274293616412
  H   -1.69698011179591     -0.06676106043949      1.34352088096010
  H   -2.55465970733504     -0.52220932404472     -0.13901674529213
  C   0.88556402804301      0.17861638392008      1.62320951747260
  N   0.88356836790413      0.70640939636375      2.67211156349407
  N   2.03921753543060     -0.01821376290471     -0.44361641059230
  H   2.11140692687451     -0.56176230773142     -1.29603713806104
  H   2.88629764902930     -0.16188345947854      0.09342565017120
