17
Coordinates from ORCA-job run
  C   -0.36294136243770      0.09312882015583     -0.45126411088842
  C   0.82948674199093     -0.11611435736735      0.50606914899455
  Br  0.27857658645399     -0.13655692037532     -2.29388498726356
  H   0.43611598815339      0.10735137266563      1.51085076002211
  C   -0.92166527847026      1.50129333301819     -0.31728661332406
  H   -1.76866023545150      1.63818869956481     -0.99134148565754
  H   -0.16929618417064      2.25535887746746     -0.55389053616993
  H   -1.27076863470242      1.66295334935848      0.70905280765622
  C   -1.42191154308403     -0.96339646595515     -0.18645203692021
  H   -1.78380480643158     -0.86835313422583      0.84468454360082
  H   -2.26965416497914     -0.82683303838094     -0.85950158805386
  H   -1.01696956048947     -1.96422848843476     -0.33481956287313
  C   1.88508693849927      0.87905313254975      0.25532092729920
  N   2.73060747477593      1.67566956316264      0.08494664983583
  N   1.36285566385907     -1.47093069825627      0.44050918321611
  H   1.09361063653429     -1.99658892810778      1.26035576597579
  H   2.37133173994986     -1.46899511683940      0.37665113455009
