17
Coordinates from ORCA-job run
  C   -0.30136661474277      0.07988595837988     -0.40003742322424
  C   0.87047798697500     -0.10584044544660      0.60075084259133
  Br  0.36166153006945     -0.36532091833776     -2.20081646000852
  H   0.45195485937008      0.15308457062146      1.58392632481311
  C   -0.78128843307313      1.52271541363485     -0.41467840308242
  H   0.01145597604370      2.20799706495773     -0.71684721692870
  H   -1.61937434654030      1.63829108262190     -1.10442554936851
  H   -1.12090739630860      1.80161081692792      0.58936824619063
  C   -1.43606212401008     -0.87744586708149     -0.07022329445821
  H   -1.11947113134397     -1.91924612210192     -0.12930109671718
  H   -2.26276079267282     -0.73971071045799     -0.76883921317119
  H   -1.80330776734395     -0.67305409849570      0.94195342604208
  C   1.93537814299944      0.87226039798986      0.32925918551411
  N   2.77517128455789      1.66262101077567      0.11042345044460
  N   1.46496191007665     -1.42203688208671      0.72449825856004
  H   0.79786786578004     -2.07993143770326      1.10482470583948
  H   1.77460905016338     -1.75287983419781     -0.18183578303640
