14

C	-0.544058	-0.02435	-1.42923
C	0.0	0.0	0.0
F	-0.0353	1.063944	-2.12235
H	1.093275	0.0	0.0
H	-0.319488	-0.908789	0.519398
C	-0.088282	-1.257167	-2.10362
N	0.245885	-2.265351	-2.602346
C	-2.060859	0.06082	-1.51004
H	-2.520488	-0.783578	-0.993401
H	-2.391687	0.991022	-1.04694
H	-2.370771	0.054282	-2.556253
C	-0.514536	1.159494	0.719656
N	-0.969868	2.079409	1.288185
Cl	3.314576	0.0	0.0
