14

C	-0.44769	-0.097511	-1.453136
C	0.0	0.0	0.0
F	-1.814251	-0.416786	-1.497498
H	1.093603	0.0	0.0
H	-0.315746	-0.926188	0.491502
C	-0.304979	1.192388	-2.153906
N	-0.199165	2.221596	-2.708559
C	0.333043	-1.183251	-2.166604
H	0.01118	-1.257105	-3.206977
H	0.146419	-2.135018	-1.664533
H	1.40101	-0.960955	-2.106439
C	-0.575922	1.133173	0.708891
N	-1.06387	2.032036	1.285216
Cl	3.316419	0.0	0.0
