14

C	-0.425298	0.02608	-1.470361
C	0.0	0.0	0.0
F	-0.046109	-1.195979	-2.019789
H	1.093775	0.0	0.0
H	-0.359397	-0.921986	0.464077
C	-1.895506	0.105132	-1.613536
N	-3.062121	0.160309	-1.735375
C	0.272681	1.134691	-2.230931
H	1.347248	1.021621	-2.069382
H	-0.045967	2.110731	-1.859913
H	0.037947	1.058114	-3.294285
C	-0.513466	1.158594	0.716748
N	-0.92522	2.103456	1.279345
Cl	3.340035	0.0	0.0
