19

C	0.0	0.0	0.0
C	-0.242325	0.028777	-1.579387
Br	1.960039	0.0	0.0
H	0.44442	-0.760412	-1.905381
N	-0.441302	1.239031	0.756655
O	-0.298473	1.20364	1.974857
O	-0.891513	2.192415	0.13318
C	-0.62244	-1.193007	0.65899
H	-0.304907	-1.281855	1.698156
H	-1.718528	-0.977842	0.569474
H	-0.346357	-2.095495	0.107402
N	0.183274	1.24393	-2.270906
H	1.088358	1.541568	-1.927204
H	-0.479181	1.969887	-2.028478
C	-1.618904	-0.356123	-2.099041
H	-1.831836	-1.403907	-1.882267
H	-2.419116	0.191669	-1.591344
H	-1.576865	-0.217567	-3.183319
F	-3.094624	0.0	0.0
