19

C	0.0	0.0	0.0
C	-0.439986	-0.235828	-1.507873
Br	1.956397	0.0	0.0
H	0.406072	0.111029	-2.108056
N	-0.293802	1.471237	0.339661
O	0.025153	2.30878	-0.500981
O	-0.795188	1.730582	1.426807
C	-0.635886	-0.87467	1.035303
H	-0.375828	-1.91674	0.851082
H	-0.318787	-0.592468	2.03904
H	-1.724337	-0.7029	0.898987
N	-1.620839	0.450147	-1.961346
H	-2.395118	0.281487	-1.26103
H	-1.430972	1.443719	-1.986692
C	-0.648062	-1.729968	-1.730005
H	-1.570186	-2.020007	-1.221555
H	0.188371	-2.340744	-1.376545
H	-0.784799	-1.892044	-2.801186
F	-3.192019	0.0	0.0
