19

C	0.0	0.0	0.0
C	-0.24127	0.024692	-1.580614
Br	1.96168	0.0	0.0
H	0.42306	-0.78732	-1.89612
N	-0.431687	1.245124	0.755592
O	-0.380678	1.177625	1.979358
O	-0.762962	2.243797	0.124224
C	-0.622773	-1.191708	0.656337
H	-0.353675	-2.092163	0.096892
H	-1.718526	-0.969099	0.569139
H	-0.301679	-1.290259	1.694213
N	0.213532	1.219006	-2.289947
H	-0.43009	1.965181	-2.056876
H	1.124402	1.501155	-1.948845
C	-1.627165	-0.323719	-2.099901
H	-1.561736	-0.240573	-3.189502
H	-2.406657	0.284814	-1.637426
H	-1.901139	-1.34464	-1.830373
F	-3.078399	0.0	0.0
