15

C	-0.397282	-0.012034	-1.474086
C	0.0	0.0	0.0
Br	-2.320899	-0.478809	-1.664232
H	1.101886	0.0	0.0
H	-0.33655	-0.945865	0.433861
C	-0.2618	1.323313	-2.054995
N	-0.133645	2.397656	-2.514456
C	0.440663	-1.029527	-2.239082
H	0.183596	-1.037351	-3.300019
H	0.269173	-2.024369	-1.821737
H	1.49683	-0.772753	-2.098155
N	-0.597581	1.122927	0.717023
H	-0.671685	0.879626	1.696676
H	0.049033	1.90252	0.666264
Cl	3.47977	0.0	0.0
