15

C	-0.45077	0.065364	-1.468579
C	0.0	0.0	0.0
Br	-0.116541	-1.691014	-2.300644
H	1.093297	0.0	0.0
H	-0.371245	-0.923195	0.457862
C	-1.893909	0.288852	-1.551972
N	-3.052397	0.486532	-1.588264
C	0.332229	1.128483	-2.225068
H	1.396857	0.903941	-2.128051
H	0.129464	2.091204	-1.751728
H	0.042683	1.163537	-3.276935
N	-0.45166	1.219875	0.666482
H	0.290962	1.560408	1.262948
H	-1.273697	1.049874	1.230228
Cl	3.469289	0.0	0.0
