15

C	-0.44471	0.034864	-1.460972
C	0.0	0.0	0.0
Br	-0.047189	-1.7046	-2.311817
H	1.100183	0.0	0.0
H	-0.331767	0.953129	0.431026
C	-1.889821	0.223765	-1.580072
N	-3.038888	0.447439	-1.688511
C	0.330236	1.111061	-2.212524
H	0.074026	1.115808	-3.273093
H	1.398549	0.926164	-2.077919
H	0.086616	2.087447	-1.781854
N	-0.631674	-1.087018	0.743352
H	-0.524133	-0.887407	1.731091
H	-0.094083	-1.929342	0.569554
Cl	3.501927	0.0	0.0
