15

C	-0.407334	-0.035294	-1.474815
C	0.0	0.0	0.0
Br	-2.39577	-0.168918	-1.601934
H	1.095608	0.0	0.0
H	-0.35727	0.934434	0.449427
C	-0.073632	1.22635	-2.131143
N	0.190668	2.243234	-2.659061
C	0.214077	-1.22	-2.193889
H	-0.079521	-1.24686	-3.244547
H	-0.104517	-2.130862	-1.687953
H	1.301008	-1.123568	-2.104211
N	-0.446499	-1.205629	0.683775
H	-1.302271	-1.037559	1.194956
H	0.274572	-1.489308	1.334009
Cl	3.424124	0.0	0.0
