15

C	-0.405396	-0.050347	-1.475565
C	0.0	0.0	0.0
Br	-2.383956	-0.278782	-1.608785
H	1.095637	0.0	0.0
H	-0.366405	0.931354	0.446756
C	-0.131055	1.226759	-2.129409
N	0.082962	2.2565	-2.65481
C	0.276321	-1.202679	-2.192546
H	-0.01372	-1.248281	-3.243413
H	1.356864	-1.051176	-2.101333
H	0.00531	-2.127342	-1.684512
N	-0.429914	-1.209202	0.690882
H	-1.265509	-1.041921	1.233033
H	0.311957	-1.499258	1.313688
Cl	3.426167	0.0	0.0
