15

C	-0.350521	-0.022517	-1.498749
C	0.0	0.0	0.0
Br	-2.30121	-0.398073	-1.720568
H	1.096316	0.0	0.0
H	-0.336159	-0.95341	0.420478
C	-0.150983	1.294942	-2.096427
N	0.010389	2.358928	-2.569758
C	0.4499	-1.092452	-2.223529
H	1.511323	-0.877057	-2.06143
H	0.220297	-1.114052	-3.289804
H	0.224537	-2.067743	-1.786768
N	-0.510883	1.102206	0.780208
H	-1.488183	1.2715	0.575063
H	0.018306	1.93979	0.573839
Cl	3.455211	0.0	0.0
