18

C	0.0	0.0	0.0
C	-0.328897	-0.020772	-1.532747
Br	1.994439	0.0	0.0
H	-1.420243	-0.105868	-1.539138
N	-0.372137	1.223172	0.648803
H	-0.562491	0.94446	1.610652
H	0.383561	1.891095	0.620555
N	-0.876824	-1.073012	0.654839
O	-0.862915	-1.01346	1.922229
O	-0.909476	-2.181737	0.047172
C	0.310441	-1.090072	-2.393043
H	1.383026	-0.954152	-2.497096
H	-0.138798	-1.051113	-3.390478
H	0.091972	-2.048887	-1.929053
N	-0.075308	1.329678	-2.130101
O	0.931802	1.481375	-2.831518
O	-0.894224	2.221182	-1.900988
H	-2.074331	0.0	0.0
