13
Coordinates from ORCA-job run
  C   0.77526149046697     -0.29600793636315      0.58817969482540
  C   -0.47609451519478      0.56831495015773      0.42402664327595
  H   1.56958845806099      0.34073823784778      1.00131839269156
  H   -0.79523445604543      0.98353075784082      1.38453872613908
  H   0.53868995699392     -1.06464056427698      1.32491365087878
  N   1.07520616543222     -0.92212318757688     -0.68550695788940
  H   1.62730229902850     -0.31389947956692     -1.27600303200987
  H   1.58133588355795     -1.78632174008516     -0.55560910098731
  N   -1.61018811682339     -0.32787244258793     -0.02827973235882
  O   -2.15704819711876     -0.08852847931008     -1.09476143030842
  O   -1.88002163238835     -1.23631686038441      0.74832165966213
  C   -0.25742108453321      1.63727232357476     -0.54394786237360
  N   0.00962374856336      2.50585442073043     -1.28719065154549
