13
Coordinates from ORCA-job run
  C   0.58900342917004     -0.64283599493285      0.29001606877396
  C   -0.45817080265681      0.46182943389973      0.14416958470899
  H   0.32773219182118     -1.46570674266095     -0.38866129310946
  H   -0.25601839056924      1.24778638263406      0.87764120689688
  H   0.53247924930929     -1.02188501425210      1.30950738910236
  N   1.89143457883124     -0.03524496537668      0.06257824726445
  H   2.62032474160814     -0.59324995745122      0.48505332441640
  H   2.08851313737626      0.03735536833245     -0.92734573547648
  N   -1.85527694998719     -0.04036918814919      0.45408434502071
  O   -1.93372468236972     -0.93097018662514      1.29386456095922
  O   -2.79240666066339      0.51469951698184     -0.10569098694668
  C   -0.43304545424682      1.02874327751717     -1.20027326291314
  N   -0.32284438762298      1.43984807008288     -2.29394344869722
