13
Coordinates from ORCA-job run
  C   0.52712358271488     -0.70654843580825      0.13119502599625
  C   -0.38754429672390      0.51851430624540      0.26408391013157
  H   0.51373552147994     -1.22411896913308      1.09370872961481
  H   -0.04365230645858      1.15122614239964      1.08212209070200
  H   0.09738808698305     -1.37340746425910     -0.62647513724018
  N   1.87146279003463     -0.23036529418488     -0.14666473852974
  H   2.55844240871855     -0.90669665153222      0.15585703490388
  H   1.99718438504233     -0.08068407370277     -1.13987945581499
  N   -1.76863851838434      0.04383832910125      0.62839173184190
  O   -2.08106054672507      0.14196877741835      1.81096199148001
  O   -2.43578006609275     -0.46256816960805     -0.26784701426029
  C   -0.43566525712814      1.27073315402586     -0.98439124391693
  N   -0.41399578346059      1.85910834903786     -2.00006292490828
