13
Coordinates from ORCA-job run
  C   0.54148524557366     -0.68149330049742      0.23709179714622
  C   -0.40477801531089      0.52991992946625      0.21226683571862
  H   0.57093747008367     -1.03982908379517      1.26839374114577
  H   -0.10018338654701      1.23854608230116      0.98457330744228
  H   0.09852026609234     -1.47427320571942     -0.38682415745563
  N   1.85700119539887     -0.23106300925910     -0.15569492818076
  H   1.94578493907634     -0.19161222396793     -1.16443295606283
  H   2.58223223121991     -0.82373114672889      0.22485000615141
  N   -1.79506628032248      0.06427198929964      0.57541585825872
  O   -2.69071329964389      0.16602090588255     -0.25392007819148
  O   -1.89076772928634     -0.40702607210597      1.70571538486598
  C   -0.40293672167047      1.17939958872888     -1.09255771115312
  N   -0.31051591466370      1.66986954639542     -2.15487709968518
