15
Coordinates from ORCA-job run
  C   0.65054869238445      0.08044510105160      0.63320086331376
  C   -0.42527496619166      0.36162199121638     -0.40968544307073
  F   0.01775588928424     -0.27850844401243      1.82451791400844
  H   0.09111998992743      0.48826851403293     -1.37477321581919
  H   1.20625789793190      1.00250856725974      0.84471259827469
  C   1.58809852898566     -1.03351487865218      0.23440220347357
  H   2.16260691167525     -0.75483311711556     -0.65245131422932
  H   1.00940101448461     -1.92936328002622      0.01316995634398
  H   2.28536483987936     -1.24161763105984      1.04772355558288
  N   -1.18323558965885      1.54796931112694     -0.00720598358460
  H   -1.83606128887459      1.79666141157293     -0.74165000998050
  H   -0.56403648853337      2.33997123446399      0.12865374200768
  N   -1.27164508192251     -0.80573905298242     -0.53300624710305
  H   -1.90299118932277     -0.70271104375247     -1.31758900557178
  H   -1.82790916004914     -0.87115868312339      0.31198038635418
