15
Coordinates from ORCA-job run
  C   0.69791288351519      0.13765298251302      0.44448779303902
  C   -0.45291805662102      0.36134349420036     -0.53232390648760
  F   0.13191228102358      0.07730876384509      1.73356665780742
  H   -0.02257439195000      0.43154337210754     -1.53841158658731
  H   1.34128601746745      1.02437972043066      0.44170617508653
  C   1.49821507816935     -1.11912330513851      0.21061675981583
  H   1.96737939833044     -1.08415026878248     -0.77579024809130
  H   0.84538060801970     -1.98960711905049      0.24787586844382
  H   2.28129815089649     -1.21456604633090      0.96517264884196
  N   -1.18102267234258      1.60909942422556     -0.29394561805700
  H   -1.39740358212182      1.67288507381539      0.69546153723359
  H   -0.60090354139474      2.40748861908557     -0.52986119366376
  N   -1.32524385540797     -0.79543000924112     -0.49142720125495
  H   -1.63257711651698     -0.93358144958356      0.46532615252725
  H   -2.14874120106709     -0.58424325209615     -1.04245383865349
