15
Coordinates from ORCA-job run
  C   0.42360087093999     -0.45106980291636      0.73784829437807
  C   -0.70728558035895     -0.05987946671527     -0.20429868211342
  F   0.14789563949587     -1.72640204713437      1.22443574194621
  H   -0.86774707539662     -0.91691591640839     -0.87629338729827
  H   0.41787643920775      0.23073204990551      1.59546451400816
  C   1.78960198900553     -0.48464095659403      0.08919862092307
  H   2.51387060132877     -0.90504526636461      0.78839299092366
  H   2.11544666680927      0.52011713538684     -0.18187737963699
  H   1.77439164817234     -1.11823141317484     -0.80222477722697
  N   -0.32609035925048      1.17288531464902     -0.90630059847108
  H   -1.13514631734319      1.51693890572696     -1.41078930824960
  H   0.39376977161094      0.98491035362093     -1.59577552452538
  N   -1.92258189750124      0.11648576924862      0.55829968902204
  H   -1.88588501269870      1.01265598234565      1.03176033532527
  H   -2.73371738402126      0.10845935842433     -0.04684052900477
