15
Coordinates from ORCA-job run
  C   0.59854207566149      0.05440434320874      0.85465125006074
  C   -0.72112543203119      0.39388251427540      0.16546732740365
  F   0.30411659772358     -0.51521189136653      2.09187564665940
  H   -1.36952904635025      0.82580399983131      0.94173632745811
  H   1.13431247228366      0.98816636492338      1.06782145285334
  C   1.47113912434532     -0.89695130196369      0.07453967058335
  H   2.41676136259740     -1.05430755611566      0.59586043080213
  H   1.67541756592171     -0.49172910058503     -0.91805085387599
  H   0.96151779980076     -1.85644888516022     -0.01725299462558
  N   -1.37547213252752     -0.80482741588149     -0.31161293289844
  H   -2.37009634020485     -0.65337667864140     -0.41521263998253
  H   -0.99503632176129     -1.05131639914393     -1.21816546003485
  N   -0.42539627919351      1.31770018242434     -0.93445778682379
  H   -0.01208022352241      2.17431270479182     -0.58030847707856
  H   -1.29107122274291      1.57089911940296     -1.39689096050098
