15
Coordinates from ORCA-job run
  C   0.60963764916478      0.07510091858557      0.61165953302520
  C   -0.46787217492617      0.46425959464894     -0.40507119583737
  F   -0.01997852768758     -0.32462170751993      1.79053173930649
  H   0.03736430252590      0.58138857876973     -1.37937454065443
  H   1.21316923645360      0.95579197409583      0.86401107610661
  C   1.49957902732761     -1.05587211121131      0.14915991641563
  H   2.21704273767560     -1.31141916222127      0.93022690132298
  H   0.90282035959670     -1.94508613794004     -0.06285767471926
  H   2.05111528706755     -0.77628868066010     -0.75157938391317
  N   -1.13547333497759      1.66906822958635      0.05702631306638
  H   -0.49450620749840      2.45255680337500      0.08225753437630
  H   -1.88522748308097      1.88236226635055     -0.58888319273361
  N   -1.51058757614681     -0.52755357800187     -0.58625960295366
  H   -1.15097139882767     -1.35805152481318     -1.03805244682833
  H   -1.86711189666655     -0.78063546304427      0.32820502402025
