15
Coordinates from ORCA-job run
  C   0.68657640868829      0.15436581546291      0.52257790628356
  C   -0.37506094615985      0.53303432707205     -0.50624913780098
  F   0.02381003568072     -0.00237763863046      1.75604935880640
  H   0.12766868900402      0.63302890693000     -1.47554299062579
  H   1.37249499585703      0.99662830376969      0.64771215226619
  C   1.42950900003026     -1.12419523935289      0.22512939097581
  H   2.15853275530146     -1.32836808221975      1.01062417656159
  H   1.95998997598191     -1.04421458297750     -0.72701164428403
  H   0.73703283926431     -1.96598792889767      0.17594171305451
  N   -0.89938861287925      1.83307356011355     -0.13424844753388
  H   -1.70925508308140      2.02114871834452     -0.71347477339005
  H   -1.22132136085428      1.78916060191189      0.82629366342920
  N   -1.43315254296252     -0.46112971845334     -0.67532918813938
  H   -1.76214472736112     -0.75723546032424      0.23728223726041
  H   -1.09529142650960     -1.27893158274877     -1.16875441686356
