15
Coordinates from ORCA-job run
  C   0.48911316313350      0.03140905967997      0.83814446702067
  C   -0.78366730108536      0.45337310411122      0.10327533079989
  F   0.08598844627089     -0.77759960552934      1.91549214936567
  H   -1.40250442257968      0.98654794851544      0.84309451806392
  H   0.95096860956271      0.92148549547660      1.28144576558022
  C   1.48771435814717     -0.74209582746601      0.01090578070827
  H   1.90591694501219     -0.11379270607578     -0.77808161072218
  H   1.00925388662430     -1.60731655335785     -0.44548113299133
  H   2.30900821333788     -1.07513050592487      0.64775089426498
  N   -1.42423461952492     -0.73165964173574     -0.43694704773591
  H   -1.62562095475125     -1.37762879478245      0.31664642405068
  H   -2.29896235110462     -0.45512508630996     -0.86602066606475
  N   -0.57586333706364      1.36208632703655     -1.00835791406087
  H   -0.12268897156874      2.21608398133678     -0.70776582128483
  H   -0.00542166441042      0.90936280502543     -1.71210113699444
