15
Coordinates from ORCA-job run
  C   0.50316809768460      0.02705029561310      0.84059661493539
  C   -0.74669880782758      0.50359681242483      0.09823234833730
  F   0.05281333828513     -0.68948850956254      1.95926206773421
  H   -1.36060215758002      1.03163698781916      0.84515028877854
  H   1.04386864694291      0.89776720892302      1.23291769771535
  C   1.42687743076390     -0.85560312694574      0.03947540613043
  H   0.91946458846161     -1.78092851717719     -0.23791036723295
  H   2.30396949491084     -1.11893476998471      0.63286508745878
  H   1.74397430200124     -0.33888316618801     -0.86662387763258
  N   -1.58263267897872     -0.54739049769514     -0.44675888392217
  H   -1.85683283629213     -1.18424035996437      0.29120892971185
  H   -1.06060807285509     -1.06377978341301     -1.14518971380641
  N   -0.33438864404694      1.33526907311714     -1.02150397066813
  H   0.11454765974627      2.18094145390348     -0.68942173360611
  H   -1.16792036121602      1.60398689913000     -1.53129989393350
