15
Coordinates from ORCA-job run
  C   0.78897375037100      0.17852835562640      0.33704311241092
  C   -0.46681577330591      0.49037728266741     -0.47197193592047
  F   0.41489183373366      0.19328645116814      1.69556138412397
  H   -0.19095011179209      0.45658373233456     -1.53268101073487
  H   1.50388569502549      0.99547811133325      0.20635523211406
  C   1.41870312305046     -1.15941532781374      0.04012253933800
  H   0.71347876660347     -1.96746983346333      0.24076585145437
  H   1.72921071066970     -1.21030241991611     -1.00651473549303
  H   2.29747444189247     -1.31031061750252      0.66873526592433
  N   -0.86554058182129      1.84793531303785     -0.15331055957959
  H   -1.78014318321106      2.00865252429866     -0.55875028887589
  H   -0.96477373737473      1.92829888864718      0.85261211766628
  N   -1.55810161218339     -0.46377853514987     -0.28464927451872
  H   -1.68150188887207     -0.63993051548386      0.70657144932985
  H   -1.35779143278570     -1.34693340978400     -0.73888914723921
