15
Coordinates from ORCA-job run
  C   0.61585649623738      0.00918931348262      0.88992556145904
  C   -0.69892399044780      0.46777182570583      0.26622690875782
  F   0.32628888404748     -0.70642017906381      2.04939586739641
  H   -1.27411794086470      0.91607496344917      1.08182095592346
  H   1.16665253794698      0.90290148814109      1.19398084187078
  C   1.46056900877631     -0.87295766591416     -0.00214850440823
  H   0.92298237052548     -1.79595086701561     -0.22345188428710
  H   2.38705138286305     -1.13558231909978      0.51055388353032
  H   1.72661543618390     -0.36624204250324     -0.93354298539319
  N   -1.46240404475000     -0.67832161265792     -0.20917563119555
  H   -2.43159367929372     -0.42016528050119     -0.34686526019585
  H   -1.10116966363599     -0.99784520572085     -1.10051991372792
  N   -0.40026433636647      1.53929136853125     -0.68417609818861
  H   -1.26111077950436      1.98898437972202     -0.97212373610263
  H   0.02556831828247      1.15127183344458     -1.51890000543876
