15
Coordinates from ORCA-job run
  C   0.52129934888921     -0.01889421453232      0.86613687563516
  C   -0.71948666924684      0.57692778873568      0.20125377444976
  F   0.06439399711976     -0.89030534222535      1.86742484024413
  H   -1.24130706349790      1.13781250659828      0.98386584613777
  H   1.06742118962803      0.78392299315793      1.36876890847743
  C   1.44085087757555     -0.79453654833836     -0.04804552760607
  H   0.90081631260979     -1.58627095746494     -0.57131298096632
  H   1.91392767900619     -0.13208309025314     -0.77532870458828
  H   2.22890681447949     -1.26472277415517      0.54202511251084
  N   -1.67892472889974     -0.40094318425495     -0.30508003701373
  H   -1.95104603586450     -1.02590179205206      0.44609250308500
  H   -1.25053915870018     -0.96691003733987     -1.02958473593146
  N   -0.28762729102910      1.52572582071199     -0.80495551572131
  H   -1.10141641293835      2.02797683004260     -1.13973941708038
  H   0.09373114086857      1.02820200136969     -1.60252094163252
