18

C	0.0	0.0	0.0
C	-0.391189	0.116006	-1.545309
Br	1.970993	0.0	0.0
H	0.406032	-0.419673	-2.07001
C	-0.655761	1.023978	0.895285
H	-1.739029	0.922245	0.745786
H	-0.427676	0.834493	1.94765
H	-0.335799	2.032306	0.627745
C	-0.329864	-1.357707	0.435888
N	-0.567651	-2.470913	0.731725
C	-0.384063	1.573107	-1.985226
H	0.530471	2.090899	-1.688188
H	-1.250254	2.093615	-1.569066
H	-0.472107	1.598852	-3.072569
N	-1.634307	-0.491252	-1.943994
H	-2.444574	-0.136926	-1.431118
H	-1.619179	-1.491904	-1.786012
Br	-4.349768	0.0	0.0
