18

C	0.0	0.0	0.0
C	-0.536644	0.366947	-1.397796
Br	1.974849	0.0	0.0
H	-1.620744	0.427829	-1.229796
C	-0.5006	0.967975	1.05995
H	-0.125824	0.684632	2.044064
H	-1.593683	0.916033	1.049471
H	-0.173623	1.97254	0.799401
C	-0.362734	-1.376028	0.347183
N	-0.570208	-2.500501	0.617354
C	-0.26999	-0.69713	-2.457373
H	-0.688272	-0.354656	-3.40888
H	-0.747473	-1.646888	-2.202299
H	0.804734	-0.860206	-2.591507
N	-0.056129	1.700624	-1.750689
H	0.832713	1.623955	-2.231021
H	-0.719765	2.123817	-2.386212
Br	-3.928689	0.0	0.0
