18

C	0.0	0.0	0.0
C	-0.434842	0.12791	-1.516517
Br	1.97053	0.0	0.0
H	0.33599	-0.416394	-2.072981
C	-0.588624	1.039583	0.934265
H	-1.681338	0.98673	0.846719
H	-0.308621	0.831759	1.968237
H	-0.242512	2.0377	0.665983
C	-0.332598	-1.351523	0.456792
N	-0.550896	-2.458275	0.788314
C	-0.428008	1.585417	-1.955636
H	-1.273647	2.11486	-1.510487
H	-0.552349	1.616372	-3.039098
H	0.501001	2.094888	-1.687776
N	-1.700032	-0.465373	-1.852612
H	-2.494735	-0.079873	-1.337502
H	-1.70005	-1.462127	-1.671557
Br	-4.465538	0.0	0.0
