18

C	0.0	0.0	0.0
C	-0.553863	0.223067	-1.432193
Br	1.97288	0.0	0.0
H	-1.638468	0.119862	-1.282415
C	-0.496387	1.044838	0.986956
H	-1.591758	1.0082	0.969291
H	-0.145213	2.034136	0.690336
H	-0.133526	0.828629	1.992804
C	-0.344188	-1.343823	0.471416
N	-0.557485	-2.437054	0.847492
C	-0.084305	-0.822727	-2.430145
H	0.978888	-0.704236	-2.657033
H	-0.255104	-1.836998	-2.063208
H	-0.648868	-0.683254	-3.352814
N	-0.310042	1.55527	-1.960505
H	-0.90322	2.227321	-1.489781
H	0.660139	1.821143	-1.824512
Br	-3.910074	0.0	0.0
