18

C	0.0	0.0	0.0
C	-0.431584	0.330318	-1.455037
Br	1.965578	0.0	0.0
H	0.240554	1.133595	-1.776944
C	-0.511817	0.998302	1.026639
H	-1.603131	0.939004	1.07012
H	-0.101126	0.777155	2.013012
H	-0.213166	2.009204	0.739717
C	-0.404925	-1.358004	0.359591
N	-0.723783	-2.454107	0.639271
C	-1.870912	0.81601	-1.544931
H	-2.602055	0.155994	-1.07013
H	-2.140757	0.895145	-2.602183
H	-2.006353	1.803599	-1.099482
N	-0.136443	-0.833116	-2.293095
H	-0.141489	-0.535974	-3.262183
H	-0.898198	-1.499467	-2.188706
Br	-4.975227	0.0	0.0
