18

C	0.0	0.0	0.0
C	-0.566475	0.27991	-1.400995
Br	1.976804	0.0	0.0
H	-1.651145	0.287261	-1.213279
C	-0.48416	1.024249	1.014106
H	-1.5775	0.96033	1.041731
H	-0.07206	0.814538	2.003008
H	-0.179699	2.014878	0.679637
C	-0.343207	-1.357171	0.434059
N	-0.557777	-2.459239	0.782536
C	-0.253473	-0.807047	-2.420465
H	-0.615163	-1.783412	-2.0934
H	-0.753028	-0.561572	-3.361285
H	0.823422	-0.874004	-2.606046
N	-0.16612	1.620799	-1.817955
H	0.673408	1.56761	-2.383849
H	-0.905277	2.019161	-2.383699
Br	-3.948119	0.0	0.0
