13
Coordinates from ORCA-job run
  C   -0.60258314454790     -0.68051133291435      0.04496707971519
  C   0.50760803387940      0.25087934623008     -0.50820555776842
  Br  0.06119526655307     -2.52229140787945      0.02541250329086
  H   0.73065464996362     -0.03944265403131     -1.53730780788742
  C   -1.74403701727854     -0.58979024329415     -0.86431673201588
  N   -2.64274223479611     -0.49487748856050     -1.61743687052899
  C   -1.02022637882796     -0.33094296367416      1.40042539557866
  N   -1.42097806689091     -0.06228175665379      2.47327312294931
  N   1.79335332055622      0.06371495889384      0.27322699758127
  O   1.72908382732793      0.28400413797862      1.47506450891093
  O   2.76710327158865     -0.28927187179654     -0.37860109543842
  C   0.09397080631137      1.64492209129698     -0.42290320920201
  N   -0.25140233383883      2.76688918440472     -0.36259833518508
