16

C	-0.497187	0.041361	-1.447756
C	0.0	0.0	0.0
F	-0.014893	-1.081877	-2.120214
H	1.090367	0.0	0.0
N	-1.913935	0.168008	-1.541742
H	-2.328308	-0.667339	-1.145821
H	-2.193145	0.278324	-2.508178
C	0.095636	1.224282	-2.113334
N	0.495437	2.145476	-2.719973
N	-0.437199	-1.287487	0.675864
O	-1.393406	-1.924594	0.215995
O	0.168567	-1.587425	1.692308
N	-0.482837	1.093892	0.778652
H	-1.265011	1.560694	0.342258
H	0.269991	1.730725	0.994545
Cl	3.269878	0.0	0.0
