16

C	-0.605783	-0.03099	-1.40457
C	0.0	0.0	0.0
F	-2.018955	-0.217013	-1.198811
H	1.089694	0.0	0.0
N	-0.317545	1.176059	-2.046777
H	-0.792106	1.270345	-2.932872
H	-0.473339	1.948806	-1.412181
C	-0.212252	-1.153096	-2.275577
N	0.025761	-1.96855	-3.085513
N	-0.433572	-1.268743	0.715933
O	-0.129043	-2.329987	0.18466
O	-1.046672	-1.156189	1.777443
N	-0.444785	1.181686	0.667544
H	0.241766	1.436043	1.365489
H	-1.336202	1.021857	1.118832
Cl	3.242946	0.0	0.0
