16

C	-0.346912	0.049348	-1.490323
C	0.0	0.0	0.0
F	-0.19876	1.428599	-1.843255
H	1.098015	0.0	0.0
N	0.537827	-0.777452	-2.188468
H	0.450025	-0.682409	-3.190164
H	1.498319	-0.636523	-1.873859
C	-1.757407	-0.238996	-1.823531
N	-2.878284	-0.385696	-2.139016
N	-0.43254	-1.283269	0.641799
O	-0.940075	-2.172093	-0.038564
O	-0.227158	-1.345815	1.852762
N	-0.631214	1.068816	0.741024
H	-0.204545	1.077305	1.659729
H	-0.371006	1.932548	0.283984
Cl	3.301709	0.0	0.0
