15

C	-0.588562	-0.001706	-1.410174
C	0.0	0.0	0.0
Cl	-0.036638	-1.493459	-2.262156
H	1.097336	0.0	0.0
H	-0.353419	-0.911564	0.496723
C	-2.112135	-0.001241	-1.401699
H	-2.463725	-0.895626	-0.88096
H	-2.44957	0.887983	-0.868871
H	-2.512504	-0.002858	-2.41765
C	-0.121539	1.155481	-2.180811
N	0.157321	2.110647	-2.806923
N	-0.456451	1.21964	0.686873
H	0.380861	1.752677	0.895275
H	-0.882321	0.984773	1.571815
H	2.919042	0.0	0.0
