15

C	-0.416212	0.047126	-1.462431
C	0.0	0.0	0.0
Cl	-2.20504	0.420293	-1.612591
H	1.10105	0.0	0.0
H	-0.334136	0.934549	0.462903
C	0.375172	1.125387	-2.181164
H	1.44007	0.903337	-2.030529
H	0.123878	1.164557	-3.243432
H	0.15944	2.093803	-1.724784
C	-0.229648	-1.255288	-2.1037
N	-0.082456	-2.290384	-2.639628
N	-0.527527	-1.176344	0.687899
H	-0.943183	-0.905286	1.571294
H	0.263603	-1.773354	0.903081
H	2.936539	0.0	0.0
