15

C	-0.469767	-0.041335	-1.457413
C	0.0	0.0	0.0
Cl	-0.153531	1.573549	-2.206749
H	1.093298	0.0	0.0
H	-0.376516	0.911018	0.479439
C	0.297359	-1.104153	-2.229302
H	0.076334	-2.073271	-1.778354
H	0.014482	-1.109582	-3.28404
H	1.36386	-0.893679	-2.110671
C	-1.918682	-0.259163	-1.53046
N	-3.078745	-0.44695	-1.563967
N	-0.422238	-1.236488	0.658002
H	0.374757	-1.598807	1.16996
H	-1.178684	-1.071981	1.306346
H	2.951507	0.0	0.0
