15

C	-0.130105	-0.025276	-1.540641
C	0.0	0.0	0.0
Cl	0.066871	1.723977	-2.168712
H	1.10352	0.0	0.0
N	0.906947	-0.87992	-1.969742
H	1.035311	-0.867413	-2.971891
H	1.775657	-0.627346	-1.446369
C	-1.447954	-0.438184	-2.036035
N	-2.510718	-0.753481	-2.427276
N	-0.538511	-1.274312	0.51629
H	0.11515	-1.984576	0.195071
H	-0.447044	-1.245821	1.527433
C	-0.646964	1.120424	0.64946
N	-1.135877	2.012254	1.238193
F	2.642566	0.0	0.0
