15

C	-0.473208	-0.083657	-1.455592
C	0.0	0.0	0.0
Cl	0.099359	-1.609047	-2.190201
H	1.094356	0.0	0.0
N	-1.923702	-0.069624	-1.547588
H	-2.200971	-0.094665	-2.523557
H	-2.252539	0.805761	-1.149012
C	0.140576	1.012376	-2.233243
N	0.526093	1.942845	-2.839569
N	-0.426884	-1.157302	0.761654
H	0.298318	-1.354919	1.438853
H	-1.313055	-1.018092	1.226971
C	-0.491486	1.263046	0.547771
N	-0.935114	2.249356	1.015109
F	2.523369	0.0	0.0
