15

C	-0.086266	0.052804	-1.536202
C	0.0	0.0	0.0
Cl	-1.748619	0.498251	-2.127315
H	1.096482	0.0	0.0
N	0.885149	0.977296	-2.083407
H	1.749179	0.753773	-1.552402
H	0.602358	1.912741	-1.804409
C	0.190176	-1.29241	-2.063591
N	0.422629	-2.35749	-2.498687
N	-0.573266	-1.182756	0.595186
H	0.013216	-1.485656	1.360922
H	-1.512117	-1.019499	0.93457
C	-0.454281	1.264869	0.568124
N	-0.849493	2.25951	1.057455
F	2.588075	0.0	0.0
