15

C	-0.549138	-0.054381	-1.431884
C	0.0	0.0	0.0
Cl	0.447453	-1.312277	-2.342601
H	1.104268	0.0	0.0
N	-1.932874	-0.385178	-1.423759
H	-2.015807	-1.210931	-0.836033
H	-2.261847	-0.592662	-2.358854
C	-0.335019	1.20295	-2.154674
N	-0.209119	2.202371	-2.758944
N	-0.404482	-1.239091	0.691291
H	0.464405	-1.686157	0.964555
H	-0.924951	-1.027262	1.532903
C	-0.51397	1.178924	0.675065
N	-0.914183	2.109102	1.274815
F	2.525626	0.0	0.0
