15

C	-0.457149	0.098547	-1.456398
C	0.0	0.0	0.0
Cl	0.30049	-1.268923	-2.392645
H	1.104746	0.0	0.0
N	-1.882126	0.00079	-1.59805
H	-2.214148	0.470605	-2.428259
H	-2.336757	0.367357	-0.77359
C	0.101809	1.32153	-2.056178
N	0.466122	2.313734	-2.570952
N	-0.56033	-1.209017	0.64643
H	0.071399	-1.387893	1.424296
H	-0.389671	-1.974381	-0.000363
C	-0.513162	1.179146	0.6908
N	-0.941685	2.124128	1.244593
F	2.537986	0.0	0.0
