15

C	-0.158937	0.169829	-1.533334
C	0.0	0.0	0.0
Cl	0.044121	1.914833	-1.943278
H	1.102712	0.0	0.0
N	0.869224	-0.579447	-2.21591
H	0.645546	-1.558752	-2.05476
H	1.726372	-0.395225	-1.660248
C	-1.497814	-0.2314	-1.98549
N	-2.579111	-0.579251	-2.287494
N	-0.38973	-1.36754	0.331398
H	-1.330811	-1.416582	0.702758
H	0.261799	-1.724228	1.019316
C	-0.641442	1.013727	0.817373
N	-1.186188	1.770293	1.535879
F	2.591852	0.0	0.0
