13

C	-0.555322	0.002774	-1.426102
C	0.0	0.0	0.0
Cl	0.189428	1.267856	-2.393313
H	1.095668	0.0	0.0
H	-1.634862	0.145212	-1.449389
N	-0.322866	-1.327889	-2.101409
O	-1.172194	-1.646255	-2.931767
O	0.678078	-1.957942	-1.790084
C	-0.501954	-1.170183	0.722448
N	-0.915738	-2.116186	1.281878
C	-0.471191	1.214311	0.669529
N	-0.882704	2.178882	1.197338
Br	3.315126	0.0	0.0
