13

C	-0.360561	-0.124205	-1.474521
C	0.0	0.0	0.0
Cl	-2.103614	-0.072902	-1.78606
H	1.096527	0.0	0.0
H	0.034009	-1.058194	-1.869432
N	0.287901	0.964644	-2.292773
O	0.667359	0.628123	-3.410362
O	0.346244	2.083177	-1.799091
C	-0.44861	-1.210693	0.686503
N	-0.80309	-2.194556	1.221096
C	-0.544286	1.178946	0.666049
N	-1.020488	2.080898	1.248023
Br	3.272266	0.0	0.0
