13

C	-0.55303	-0.12464	-1.421852
C	0.0	0.0	0.0
Cl	0.228864	1.015583	-2.506859
H	1.101119	0.0	0.0
H	-1.628203	0.04351	-1.464149
N	-0.356218	-1.521895	-1.961411
O	0.628392	-2.145166	-1.589957
O	-1.214529	-1.897663	-2.757408
C	-0.509196	-1.087293	0.8353
N	-0.948985	-1.950673	1.499738
C	-0.455308	1.280331	0.547989
N	-0.84992	2.300874	0.975289
Br	3.313984	0.0	0.0
