13

C	-0.401976	-0.075175	-1.46977
C	0.0	0.0	0.0
Cl	0.340771	-1.455559	-2.244767
H	1.09106	0.0	0.0
H	-0.078659	0.83099	-1.985519
N	-1.92451	-0.130443	-1.649304
O	-2.578175	0.455179	-0.792848
O	-2.370871	-0.686889	-2.641935
C	-0.495749	-1.149526	0.750839
N	-0.900077	-2.079628	1.345063
C	-0.391747	1.258834	0.636598
N	-0.631129	2.28771	1.150704
Br	3.303534	0.0	0.0
