13

C	-0.333583	-0.04724	-1.48649
C	0.0	0.0	0.0
Cl	0.02154	-1.621159	-2.181507
H	1.097925	0.0	0.0
H	0.253528	0.703685	-2.013632
N	-1.78151	0.275928	-1.769363
O	-2.619017	-0.13952	-0.976873
O	-2.000035	0.920996	-2.791256
C	-0.506309	-1.128	0.772865
N	-0.867315	-2.043859	1.412986
C	-0.445975	1.275365	0.557166
N	-0.789244	2.317859	0.975573
Br	3.278865	0.0	0.0
