13

C	-0.56941	0.139794	-1.414088
C	0.0	0.0	0.0
Cl	0.223818	1.445668	-2.289636
H	1.10069	0.0	0.0
H	-1.642439	0.325025	-1.411368
N	-0.397504	-1.149461	-2.184021
O	0.682731	-1.715458	-2.103596
O	-1.375046	-1.503964	-2.842029
C	-0.50104	-1.232488	0.609561
N	-0.936103	-2.218334	1.076696
C	-0.451561	1.152217	0.78241
N	-0.839485	2.076789	1.393615
Br	3.312908	0.0	0.0
