15
Coordinates from ORCA-job run
  C   0.86716413560732     -0.13766545428598     -0.32672046069435
  C   -0.35409426130110      0.71106510029270      0.07951783408269
  F   1.68314523311457      0.73579713733164     -1.05697474432184
  H   0.02165511343323      1.62089022819053      0.55059558934750
  C   0.47073458792828     -1.21560686717429     -1.25274403693660
  N   0.14606669333001     -2.06152487085084     -1.99886705435563
  N   1.50386593833315     -0.69396966251115      0.79692018704384
  H   1.73828920718292      0.00120053414570      1.49368287495191
  H   2.31524256230525     -1.24155360781542      0.54425308308850
  N   -1.07355773255237     -0.03915791004520      1.19905455880519
  O   -1.88133708629406     -0.89505100517315      0.85160657332026
  O   -0.78285601771531      0.27027974641735      2.35080832646870
  N   -1.16643411195437      1.01059056146886     -1.03448028286176
  H   -1.65948134186761      0.19018749509023     -1.36637721592322
  H   -1.82840291954991      1.74651857491903     -0.83127523201519
