15
Coordinates from ORCA-job run
  C   0.91259964885406     -0.08100046224205     -0.04642313178362
  C   -0.44973806236985      0.63488301021560     -0.10012997542572
  F   1.74320921526691      0.55679007726966      0.84070228763706
  H   -0.33331128080877      1.60328443603642     -0.58723837002262
  C   1.53558850660286      0.02914554885545     -1.39097138029111
  N   2.01970894180885      0.07252435362678     -2.46042343590489
  N   0.74461386936001     -1.42592940384633      0.41521352978230
  H   0.29201937459734     -1.98428860924950     -0.29847419238113
  H   1.65469837987529     -1.82602307752909      0.61317846715232
  N   -0.84870859493666      0.97177495473734      1.33620180822235
  O   -1.56817162922649      0.16544180364142      1.91731518282165
  O   -0.41413297469162      2.02496632492835      1.78905715069410
  N   -1.38443968350742     -0.19821403345904     -0.76965536208582
  H   -2.15569579954140      0.33682920050422     -1.14429281390626
  H   -1.74923991128310     -0.88018412348923     -0.11305976450861
