17

C	0.0	0.0	0.0
C	-0.261041	0.442589	-1.486585
F	1.3599	0.0	0.0
H	0.332527	1.355247	-1.579422
N	-0.314746	1.16934	0.98293
O	-0.430876	2.309052	0.54329
O	-0.355724	0.86897	2.174873
N	-0.640748	-1.169303	0.3698
H	-0.444083	-1.363673	1.346179
H	-1.672975	-0.896446	0.268429
N	-1.595636	0.712024	-1.975081
H	-2.017106	-0.198364	-2.13616
H	-2.182625	1.001706	-1.185881
N	0.38355	-0.5966	-2.298639
H	0.045468	-0.444898	-3.242892
H	0.009371	-1.48613	-1.981632
F	-2.95486	0.0	0.0
