17

C	0.0	0.0	0.0
C	-0.463092	-0.112479	-1.463244
F	1.380735	0.0	0.0
H	-1.554303	-0.032074	-1.368317
N	-0.332969	1.38451	0.59902
O	-0.773292	2.273124	-0.130418
O	-0.057623	1.537199	1.782969
N	-0.568531	-0.950723	0.85465
H	-0.408149	-1.8388	0.386701
H	-1.604163	-0.725054	0.719229
N	-0.103408	-1.465722	-1.887602
H	0.793264	-1.401306	-2.356732
H	-0.79238	-1.804946	-2.545107
N	0.177058	0.855486	-2.366765
H	-0.005749	1.779292	-1.993218
H	-0.336047	0.804693	-3.242212
F	-2.828551	0.0	0.0
