17

C	0.0	0.0	0.0
C	-0.329329	-0.065455	-1.50994
F	1.403097	0.0	0.0
H	0.508219	0.456785	-1.996803
N	-0.266393	1.423795	0.526362
O	-0.901786	1.55669	1.567107
O	0.253783	2.33359	-0.107932
N	-0.586106	-0.96144	0.812553
H	-1.239099	-0.4784	1.422804
H	-1.172158	-1.518252	0.19706
N	-1.556162	0.572766	-1.84424
H	-1.818916	0.300157	-2.785601
H	-2.329829	0.313363	-1.135318
N	-0.28848	-1.516839	-1.831684
H	-0.542195	-1.611152	-2.808711
H	0.668114	-1.847129	-1.734437
F	-3.137753	0.0	0.0
