17

C	0.0	0.0	0.0
C	-0.491449	-0.044629	-1.457935
F	1.364703	0.0	0.0
H	-1.580054	-0.114317	-1.326483
N	-0.322129	1.357193	0.668606
O	-0.989616	1.390476	1.688953
O	0.203854	2.345975	0.145668
N	-0.541425	-1.002861	0.820487
H	-1.57153	-0.768281	0.744416
H	-0.409689	-1.857652	0.287205
N	0.031598	-1.312169	-1.981996
H	-0.477465	-1.493251	-2.840579
H	1.000871	-1.164079	-2.251377
N	-0.159632	1.079208	-2.326636
H	0.736066	1.458662	-2.049082
H	-0.82928	1.816165	-2.148674
F	-2.816127	0.0	0.0
