17

C	0.0	0.0	0.0
C	-0.242668	0.044884	-1.533077
F	1.391587	0.0	0.0
H	0.629164	0.590872	-1.90875
N	-0.319627	1.324219	0.676477
O	-0.047436	2.340728	0.048692
O	-0.70904	1.309014	1.839064
N	-0.533832	-1.072396	0.709146
H	-1.320572	-0.70085	1.235067
H	-0.987661	-1.639225	-0.000915
N	-1.429696	0.691782	-1.97376
H	-1.559169	0.463353	-2.954596
H	-2.221608	0.387138	-1.342119
N	-0.146137	-1.386936	-1.93348
H	0.801306	-1.709178	-1.752921
H	-0.298412	-1.426424	-2.933624
F	-2.80769	0.0	0.0
