17

C	0.0	0.0	0.0
C	-0.285477	-0.389462	-1.509961
F	1.371397	0.0	0.0
H	0.513574	0.140841	-2.035849
N	-0.270988	1.525754	0.217376
O	-0.134431	2.274911	-0.747388
O	-0.523713	1.897985	1.360298
N	-0.6087	-0.783378	0.959655
H	-0.43782	-0.384866	1.877383
H	-1.637911	-0.654055	0.732895
N	-1.53952	-0.061887	-2.128974
H	-2.279236	-0.122363	-1.400045
H	-1.502012	0.912618	-2.399288
N	-0.035138	-1.829089	-1.654527
H	0.674081	-2.102115	-0.98009
H	-0.89198	-2.291525	-1.371193
F	-2.93559	0.0	0.0
