17

C	0.0	0.0	0.0
C	-0.482572	-0.197849	-1.485915
F	1.355705	0.0	0.0
H	0.443145	-0.213251	-2.072747
N	-0.278589	1.468409	0.424683
O	0.301116	2.320792	-0.253103
O	-0.969523	1.707106	1.402856
N	-0.528924	-0.826673	1.005465
H	-1.542671	-0.592223	0.962426
H	-0.451612	-1.768357	0.633317
N	-1.374689	0.801276	-2.049033
H	-2.179353	0.795377	-1.404275
H	-0.928349	1.709207	-2.023051
N	-1.111017	-1.513854	-1.532381
H	-2.004352	-1.335431	-1.05416
H	-1.331783	-1.668738	-2.511947
F	-2.87391	0.0	0.0
