17

C	0.0	0.0	0.0
C	-0.508472	0.239191	-1.458997
F	1.355077	0.0	0.0
H	-1.191521	1.085383	-1.413518
N	-0.328291	1.260954	0.832008
O	-0.613336	1.131274	2.014588
O	-0.167088	2.337882	0.261829
N	-0.512305	-1.111326	0.690995
H	-0.449263	-1.877307	0.025366
H	-1.527362	-0.87294	0.730497
N	-1.220372	-0.974715	-1.877314
H	-1.490289	-0.826687	-2.84549
H	-2.08251	-0.88959	-1.30563
N	0.59583	0.594669	-2.337348
H	0.203816	0.890968	-3.224289
H	1.139994	-0.244472	-2.510207
F	-2.803786	0.0	0.0
