17

C	0.0	0.0	0.0
C	-0.550814	0.147135	-1.417782
F	1.350386	0.0	0.0
H	-1.592994	0.438892	-1.250351
N	-0.227211	1.38708	0.779881
O	-1.031651	1.388133	1.710357
O	0.478881	2.342979	0.467994
N	-0.640083	-1.03187	0.665275
H	-0.435623	-0.981663	1.656348
H	-1.686303	-0.759734	0.510734
N	-0.449185	-1.180419	-2.059951
H	-0.648894	-1.871949	-1.344201
H	-1.214888	-1.239659	-2.725542
N	0.158187	1.163547	-2.167229
H	1.07759	0.792468	-2.381827
H	-0.329706	1.286681	-3.047666
F	-2.902683	0.0	0.0
