17

C	0.0	0.0	0.0
C	-0.500666	0.133512	-1.440255
F	1.396605	0.0	0.0
H	-1.593435	0.136081	-1.352869
C	-0.398778	1.142959	0.843617
N	-0.573888	2.122966	1.46662
C	-0.403991	-1.27238	0.626926
N	-0.550107	-2.330216	1.116178
C	-0.053357	-1.068803	-2.265135
H	1.036862	-1.15371	-2.29439
H	-0.46974	-1.998023	-1.869518
H	-0.416133	-0.955062	-3.289722
C	-0.02678	1.451381	-2.044177
H	1.06496	1.512751	-2.06978
H	-0.415551	2.306463	-1.486878
H	-0.398661	1.529152	-3.068916
Br	-3.636865	0.0	0.0
