17

C	0.0	0.0	0.0
C	-0.180669	-0.094952	-1.577817
F	1.377752	0.0	0.0
H	0.624096	0.58898	-1.865865
C	-0.445033	1.27435	0.571922
N	-0.58738	2.36248	0.992608
C	-0.431549	-1.180633	0.753644
N	-0.472547	-2.205233	1.328696
C	-1.405757	0.364451	-2.345751
H	-1.06503	0.509745	-3.379268
H	-1.80891	1.301723	-1.964406
H	-2.213998	-0.360323	-2.324453
C	0.243906	-1.500609	-2.011186
H	-0.50698	-2.241926	-1.714953
H	1.208894	-1.786784	-1.585655
H	0.33169	-1.526864	-3.099691
Br	-3.440761	0.0	0.0
