17

C	0.0	0.0	0.0
C	-0.465788	-0.077993	-1.483962
F	1.380031	0.0	0.0
H	0.437643	0.247645	-2.018068
C	-0.402605	1.254477	0.666031
N	-0.633287	2.260053	1.226083
C	-0.44364	-1.136322	0.827115
N	-0.730534	-2.067625	1.482774
C	-1.606658	0.877108	-1.821493
H	-1.880721	0.744526	-2.871252
H	-1.311474	1.918754	-1.681024
H	-2.50126	0.673316	-1.224959
C	-0.807057	-1.510409	-1.882457
H	-0.019434	-2.2179	-1.614671
H	-0.949683	-1.556334	-2.964866
H	-1.742149	-1.818964	-1.407977
Br	-4.613094	0.0	0.0
