14

C	0.0	0.0	0.0
C	-0.639317	-0.049906	-1.366454
Br	1.947004	0.0	0.0
H	-1.816279	0.001386	-0.976799
H	-0.252226	0.991238	0.391576
N	-0.487577	-1.104181	0.772633
H	-1.514586	-1.022262	0.687193
H	-0.254379	-0.955742	1.747385
N	-0.383895	-1.323038	-2.073871
O	0.515791	-1.346804	-2.922338
O	-1.08537	-2.288353	-1.759957
C	-0.276946	1.067548	-2.206458
N	-0.03607	2.00706	-2.87642
H	-2.828217	0.0	0.0
