16

C	0.0	0.0	0.0
C	-0.444162	-0.037864	-1.51638
Br	1.96082	0.0	0.0
H	0.280502	0.589744	-2.048694
C	-0.354562	1.325078	0.514501
N	-0.577359	2.406385	0.917747
C	-0.604762	-1.096416	0.850935
H	-1.698626	-0.970511	0.784397
H	-0.282862	-0.998275	1.890062
H	-0.311817	-2.075665	0.467701
N	-1.769709	0.420676	-1.810383
H	-1.767738	1.436096	-1.772218
H	-2.510002	0.121384	-1.086056
C	-0.236659	-1.410926	-2.015582
N	-0.068576	-2.497975	-2.42732
H	-3.511413	0.0	0.0
