16

C	0.0	0.0	0.0
C	-0.446765	0.081562	-1.489808
Br	1.971164	0.0	0.0
H	0.316197	0.662979	-2.021376
C	-0.340241	1.264244	0.664723
N	-0.513202	2.247701	1.285144
C	-0.586277	-1.169786	0.765549
H	-0.260064	-1.140936	1.807144
H	-0.279989	-2.113884	0.31219
H	-1.681556	-1.05808	0.713907
N	-1.710342	0.763877	-1.576635
H	-2.070072	0.702132	-2.52452
H	-2.476276	0.381157	-0.910725
C	-0.38414	-1.280767	-2.082276
N	-0.356772	-2.320101	-2.633092
H	-3.535181	0.0	0.0
