14

C	-0.5746	-0.102999	-1.400347
C	0.0	0.0	0.0
F	-1.930565	-0.193629	-1.358739
H	1.091784	0.0	0.0
H	-0.160257	-0.985315	-1.889588
N	-0.210049	1.054533	-2.30933
O	-1.118137	1.768104	-2.710571
O	0.974885	1.119149	-2.597149
C	-0.459605	-1.160529	0.754425
N	-0.812767	-2.117327	1.336554
N	-0.434317	1.258831	0.695558
O	-0.749748	1.182523	1.877403
O	-0.379417	2.285082	0.02566
Cl	3.117744	0.0	0.0
