14

C	-0.423017	-0.01249	-1.455798
C	0.0	0.0	0.0
F	0.146501	-1.052242	-2.094276
H	1.094725	0.0	0.0
H	-0.167021	0.928157	-1.942585
N	-1.930996	-0.16934	-1.573747
O	-2.58543	0.596258	-0.872857
O	-2.369862	-1.003618	-2.353032
C	-0.533197	-1.137343	0.727218
N	-0.946087	-2.096817	1.26438
N	-0.380011	1.293613	0.657798
O	-0.775344	1.252169	1.816204
O	-0.193651	2.306669	-0.006373
Cl	3.115308	0.0	0.0
