13

C	0.0	0.0	0.0
C	-0.506981	0.376725	-1.389656
F	1.385557	0.0	0.0
H	-0.110024	1.376741	-1.599229
H	-1.596635	0.434267	-1.304389
C	-0.406464	0.999476	1.006667
N	-0.563722	1.864042	1.785868
C	-0.424952	-1.35383	0.393312
N	-0.611593	-2.468798	0.709495
N	-0.073931	-0.622383	-2.349223
H	0.600006	-0.25213	-2.999629
H	-0.864713	-0.987702	-2.855586
Cl	-3.492903	0.0	0.0
