13

C	0.0	0.0	0.0
C	-0.490409	0.386935	-1.400555
F	1.385745	0.0	0.0
H	-1.436853	0.915831	-1.292216
H	0.281913	1.058714	-1.788994
C	-0.407994	1.017051	0.993112
N	-0.550907	1.90001	1.75397
C	-0.408522	-1.349396	0.423858
N	-0.532849	-2.469024	0.75479
N	-0.577857	-0.804526	-2.235662
H	-0.541703	-0.523252	-3.208419
H	-1.497019	-1.208814	-2.071006
Cl	-3.312452	0.0	0.0
