13

C	0.0	0.0	0.0
C	-0.503857	0.38036	-1.387114
F	1.385379	0.0	0.0
H	-1.593272	0.404151	-1.309733
H	-0.13423	1.395958	-1.580515
C	-0.418095	0.987102	1.019539
N	-0.675038	1.78181	1.847065
C	-0.405183	-1.364516	0.393375
N	-0.597038	-2.487016	0.675912
N	-0.040083	-0.603029	-2.349669
H	0.722282	-0.250081	-2.909343
H	-0.799107	-0.882828	-2.955249
Cl	-3.487947	0.0	0.0
