13

C	0.0	0.0	0.0
C	-0.444902	-0.244172	-1.438363
F	1.385718	0.0	0.0
H	-0.077483	-1.244335	-1.704765
H	-1.53657	-0.2479	-1.429553
C	-0.411683	1.326268	0.494215
N	-0.581429	2.427571	0.862358
C	-0.423669	-1.068234	0.922814
N	-0.609944	-1.957821	1.666005
N	0.097461	0.821185	-2.265919
H	0.952224	0.541772	-2.723089
H	-0.577102	1.10861	-2.957852
Cl	-3.423307	0.0	0.0
