13

C	0.0	0.0	0.0
C	-0.502161	0.267439	-1.430921
F	1.381341	0.0	0.0
H	-1.318218	0.988711	-1.376665
H	0.359077	0.707999	-1.943175
C	-0.385534	1.096978	0.913538
N	-0.482343	2.025338	1.626138
C	-0.415839	-1.300503	0.5549
N	-0.543759	-2.359582	1.045513
N	-0.873632	-0.984563	-2.074603
H	-0.93547	-0.826046	-3.073768
H	-1.815345	-1.185213	-1.738669
Cl	-3.255581	0.0	0.0
