14
Coordinates from ORCA-job run
  C   -0.62809167813440      0.34831957565935      0.11228777769815
  C   0.60225968416057     -0.22572894141082      0.26073791366010
  N   -1.40333209991272      0.91964533470870      1.07733882001480
  H   -1.13684469824779      0.73160978197112      2.03219567203675
  H   -2.39424724402259      0.90554353111385      0.88974841515738
  N   -1.25407450117353      0.44356067853265     -1.21866225171256
  O   -2.48470596374363      0.50101873774504     -1.23968735056334
  O   -0.52245540399992      0.45721559328541     -2.20504908572146
  C   1.05708088946663     -0.27855000138403      1.60950430168823
  N   1.39478261649445     -0.31309153061440      2.73899116395584
  C   1.51415744114976     -0.76771916028028     -0.81320234161069
  H   2.00833567321692      0.04053345522316     -1.35589651483191
  H   0.96977750366603     -1.36946724968143     -1.54031959753775
  H   2.27735778108020     -1.39188980486832     -0.34698692223356
