14
Coordinates from ORCA-job run
  C   -0.66282384188909      0.18474615025064     -0.23520129375844
  C   0.58989955710856     -0.34566577652139     -0.11650038966285
  N   -1.51538698275126      0.08630818641314     -1.29547364814071
  H   -1.11003207097347     -0.24293568200448     -2.15834580451657
  H   -2.16591080289562      0.85194016861567     -1.38507372742807
  N   -1.26911464921514      0.92672415946294      0.88641318589065
  O   -2.11815674050728      1.76701085514376      0.58595474326797
  O   -0.89044360727627      0.67013652412083      2.02578753179396
  C   1.05006614366817     -1.00967842273526     -1.29064630432388
  N   1.39909180207493     -1.54286409849377     -2.28289737687684
  C   1.49728901403150     -0.33536981199034      1.08821302228072
  H   2.51348647706068     -0.56911848459010      0.76982094249368
  H   1.18215697666752     -1.07649542539099      1.82545106674821
  H   1.50187872489675      0.63526165771937      1.58349805223217
