14
Coordinates from ORCA-job run
  C   -0.67733649856202      0.13948761171258     -0.05383393327264
  C   0.55538902810688     -0.43429307761242     -0.10453806137080
  N   -1.01353268943030      1.21375244749561      0.72075020438167
  H   -1.90157022694853      1.62770211873370      0.47697782343180
  H   -0.27626110401761      1.87708565666073      0.89862177818744
  N   -1.82949092429370     -0.40605059942813     -0.80385998549029
  O   -2.80945505813419      0.33498921090196     -0.90872192707086
  O   -1.73909006683654     -1.53970672599526     -1.25925201316552
  C   0.89207701844496     -1.52884961402244     -0.94474614608718
  N   1.31597491703214     -2.41692334786229     -1.59384237351484
  C   1.65796220281036      0.16787405126421      0.73135719148573
  H   1.99465629683652      1.12683321784640      0.32016817086396
  H   1.31136384793223      0.33608467902353      1.75558531074465
  H   2.51931325705979     -0.49798562871818      0.76433396087690
