14
Coordinates from ORCA-job run
  C   -0.65793316321870      0.20885937801055     -0.04455662394676
  C   0.48517316118247     -0.50494554062759      0.14197585270295
  N   -0.72979329645466      1.57053131467272     -0.13480170008432
  H   0.07284430852730      2.02898837488976     -0.53615808572227
  H   -1.61947514383346      1.90772834021614     -0.47364584604729
  N   -1.98809378544437     -0.43659045428900     -0.09562831914861
  O   -2.08769466966274     -1.58882581972300      0.30797949575300
  O   -2.90908774554874      0.25232528959357     -0.53983611672453
  C   0.53928319905349     -1.92349901237253      0.17996515517091
  N   0.73006714299988     -3.08681086445407      0.20271781829336
  C   1.78985649751182      0.24784892032725      0.23037030494665
  H   2.09490760301681      0.63746608721106     -0.74810032271579
  H   2.58481245924228     -0.40502833696328      0.58818359727208
  H   1.69613343262862      1.09095232350842      0.92153479025063
