14
Coordinates from ORCA-job run
  C   -0.66130928067789      0.20133077706649     -0.05236354670537
  C   0.48892385915895     -0.49836202520193      0.14448451828496
  N   -0.74989233658142      1.56183618488259     -0.14287527918691
  H   -1.63898696537479      1.88777790372978     -0.49311213073385
  H   0.05169892147835      2.03095070132913     -0.53391081438842
  N   -1.98253328320987     -0.46158416615105     -0.12066118197408
  O   -2.07247739663760     -1.61495193083525      0.28241172190595
  O   -2.90660089816206      0.21412223467136     -0.57874280140560
  C   0.56129772193294     -1.91611023810093      0.19281078304175
  N   0.77423363811846     -3.07504394214107      0.23264626833641
  C   1.78357506209989      0.26965669974028      0.24677559930823
  H   1.67183674803412      1.11537231725542      0.93211894114510
  H   2.58082022165707     -0.37202945335401      0.61972093478985
  H   2.09841398816384      0.65703493710918     -0.72930301241801
