14
Coordinates from ORCA-job run
  C   -0.64911295684837      0.19193412237359     -0.14827176719682
  C   0.49121617142127     -0.50724518951928      0.10089386552149
  N   -0.70769258891674      1.52629120323205     -0.43479143951533
  H   -1.63960061847896      1.91169824307381     -0.38745534732092
  H   0.00642791153316      2.10037901384088     -0.01570142582435
  N   -1.97521918640903     -0.46163453900167     -0.20274133237956
  O   -2.01491288524949     -1.68239612391355     -0.29689473007468
  O   -2.95288233581527      0.28802545929083     -0.15382437517921
  C   0.52296195204735     -1.88627092447571      0.43955143497823
  N   0.69692108101278     -3.01037039533826      0.74943122089391
  C   1.80252405207555      0.23920291686897      0.09028215954236
  H   1.90713638405694      0.87824626034822      0.97500338143429
  H   1.87387138699486      0.87113465447286     -0.80020848280869
  H   2.63936163257598     -0.45799470125274      0.08572683792928
