14
Coordinates from ORCA-job run
  C   -0.64988190454595      0.18846934070955     -0.15182935249624
  C   0.49199137199539     -0.50438717285747      0.10747571140022
  N   -0.71167550404402      1.51944477970958     -0.45477693944031
  H   -1.64476423737750      1.90268974732193     -0.41067407956926
  H   -0.00003628473256      2.09962467019088     -0.03990199166033
  N   -1.97378208050733     -0.46966404580141     -0.20089591211926
  O   -2.95368893623557      0.27766959107757     -0.16090268162075
  O   -2.00966313616591     -1.69156370407574     -0.28053292887574
  C   0.52764788151645     -1.87996215995106      0.45934109668530
  N   0.70574151324818     -2.99977696934633      0.78220850417745
  C   1.80137196904717      0.24537652156081      0.09073554737937
  H   1.87264925532834      0.86791539008245     -0.80633422281732
  H   2.63995871743295     -0.44973114163962      0.09518508365687
  H   1.90313137504035      0.89389515301883      0.96890216529998
