14
Coordinates from ORCA-job run
  C   -0.65613889645965      0.20400693182421     -0.09359961020555
  C   0.47544138537985     -0.47162309828227      0.24488017498247
  N   -0.70492300864826      1.51453075237967     -0.47656161577210
  H   -1.58622209111546      1.78610656401274     -0.88747201688393
  H   0.10865793863181      1.86483025316072     -0.95663940924301
  N   -1.99652197912562     -0.41536268785592     -0.00870533840789
  O   -2.90778246612937      0.18007890471855     -0.58790847193311
  O   -2.11305078325017     -1.45831911716945      0.62335484599556
  C   0.50752261570780     -1.84363089926981      0.61045214279386
  N   0.68836673867468     -2.96961394110795      0.90944957746500
  C   1.79257280163767      0.26100055344684      0.16936728902789
  H   1.71727658372497      1.23256340874652      0.66734188306961
  H   2.09759310643339      0.43013895530500     -0.87009121482075
  H   2.57920805453838     -0.31470657990884      0.65513176393193
