14
Coordinates from ORCA-job run
  C   -0.64343400535861      0.30626857657242      0.11693791223936
  C   0.62881572517096     -0.18326283010533      0.24412231851149
  N   -1.36685273759874      0.94601749389581      1.07588235434832
  H   -2.35376233269740      1.04599138577075      0.90769523768906
  H   -1.07659792119669      0.80564888712243      2.03077154389237
  N   -1.33345820308191      0.25889725766222     -1.18239011673181
  O   -0.91503060899271     -0.54043494353346     -2.01920643394558
  O   -2.29593126078748      1.01345946186310     -1.33335845080256
  C   1.13462864051285     -0.10728292909247      1.57305843543672
  N   1.47322535676429      0.00210052292376      2.69773389409979
  C   1.51176631336463     -0.77256860484792     -0.82854658260315
  H   1.54954342131554     -0.14420207831960     -1.71915186980139
  H   2.52297564416181     -0.87129911120268     -0.42787703841749
  H   1.16411196842347     -1.75933308870902     -1.13667120391515
