14
Coordinates from ORCA-job run
  C   -0.62969890747732      0.15749611134181     -0.24257871418751
  C   0.48319762924766     -0.48531067226560      0.20454150925858
  N   -0.68468385325457      1.47751014058153     -0.59107646164549
  H   -0.04087069019115      2.08720316160340     -0.11267234002302
  H   -1.62314325916088      1.83817790772305     -0.68096795505805
  N   -1.90769980242605     -0.54617675432741     -0.47211030810159
  O   -2.89617604141906      0.16945765770030     -0.65523255905348
  O   -1.90487322812333     -1.77123315569682     -0.47369788316401
  C   0.52474505853989     -1.85729473050120      0.56599840796078
  N   0.69560988927488     -2.97034833108667      0.91546768857702
  C   1.75071810465458      0.31983384031380      0.35805964842243
  H   2.60124720160662     -0.33018069158424      0.55910886097618
  H   1.95482583517921      0.87992368482283     -0.56015815088553
  H   1.67580206354954      1.03194183137520      1.18831825692369
