14
Coordinates from ORCA-job run
  C   -0.65052425736918      0.18353509855661     -0.15177626036132
  C   0.49730539717700     -0.50274432773983      0.09950413709147
  N   -0.72968452983321      1.52327352221131     -0.40746245406825
  H   -1.66506030638889      1.89685858153223     -0.33557296828937
  H   -0.01453465399640      2.09710115316793      0.01034863590545
  N   -1.96433581810964     -0.48838700359462     -0.24522998364172
  O   -2.95488104024967      0.24056485497607     -0.15883209330057
  O   -1.98166284415820     -1.70434108695152     -0.39492554538252
  C   0.55012623420614     -1.89541333838130      0.36972649086112
  N   0.74058139357244     -3.02915692351121      0.63060648670243
  C   1.79278339818251      0.27049348682716      0.14005658319717
  H   2.64313299211700     -0.40700636832308      0.20784023630567
  H   1.90199658111237      0.87251885021173     -0.76832558231039
  H   1.83475745373775      0.94170350101854      1.00604231729084
