14
Coordinates from ORCA-job run
  C   -0.67190632750263      0.21042903407084     -0.14023351429626
  C   0.58644008498260     -0.31662368838706     -0.22853204620479
  N   -1.57908935289975      0.32671451271106     -1.15525081679392
  H   -2.46133856254791      0.75821250599586     -0.93341925910250
  H   -1.20111684517817      0.50117643346053     -2.07338656517920
  N   -1.21309588253042      0.63473280056705      1.15807947677883
  O   -2.42506201811418      0.49402422805989      1.32099300577451
  O   -0.42818475470809      1.11619811996745      1.97011764949142
  C   0.95947738291233     -0.68587554065243     -1.55190350006102
  N   1.23092585552546     -0.93744231812690     -2.67198671775309
  C   1.59955041038274     -0.49060854442641      0.87093706232104
  H   2.24226913541125     -1.33623072372296      0.62024906549069
  H   1.13241502842758     -0.67238213060639      1.83890585119460
  H   2.22971584583919      0.39767531108948      0.97543030833970
