14
Coordinates from ORCA-job run
  C   -0.63123987042145      0.15874084249360     -0.23890711483417
  C   0.47206043708175     -0.47866578340956      0.23829630884074
  N   -0.64583410188506      1.41943615683251     -0.76563781794775
  H   -1.57283798132387      1.80782396226126     -0.86294255732817
  H   0.04164341615253      2.05900372916696     -0.40016182233873
  N   -1.95434724737953     -0.49915382726592     -0.30055420194817
  O   -2.00118649754833     -1.71703050632652     -0.17645010548206
  O   -2.92236517081159      0.24344103488980     -0.47932642615395
  C   0.45978472700608     -1.78125920274720      0.80361486831660
  N   0.59602488376367     -2.83659653923909      1.31125929101825
  C   1.78606952114516      0.26326029404506      0.22128198903643
  H   1.79959503064390      1.07027472786558      0.96345031588268
  H   1.96379931946805      0.70176602550474     -0.76561344474438
  H   2.60983353410868     -0.41104091407123      0.45169071768268
