14
Coordinates from ORCA-job run
  C   -0.66030583011628      0.19823657786049     -0.06742054281413
  C   0.48969078955392     -0.47114654652833      0.21686105290293
  N   -0.73425428318740      1.51084451875442     -0.44035265538928
  H   -1.63821665960851      1.78196617112136     -0.79927953672737
  H   0.04977442306626      1.86711211688267     -0.96292994416623
  N   -1.99243122712471     -0.42819243302891      0.08016517379858
  O   -2.93557244300977      0.17192814581560     -0.43967220939568
  O   -2.07166640440622     -1.47695814449917      0.70810511510442
  C   0.54753162711502     -1.84453149981903      0.57370771972258
  N   0.74927386063017     -2.96933904551162      0.86366761102305
  C   1.79692829778197      0.27229567253267      0.08993373597719
  H   2.06568595564712      0.43497748472031     -0.96003967485249
  H   1.73075938983380      1.24564962310402      0.58499470853510
  H   2.60380250382465     -0.29484264140446      0.55225944628131
