14
Coordinates from ORCA-job run
  C   -0.64765898822044      0.19374889497189     -0.15125391197262
  C   0.49086658283824     -0.50869618671288      0.09738964523600
  N   -0.70438180390899      1.53455059042572     -0.40804460914971
  H   -1.63766935250835      1.91721193633854     -0.36608659404959
  H   0.00089825319162      2.09934840288200      0.03783999054968
  N   -1.97122693055973     -0.46048044136973     -0.24167957583581
  O   -2.00687853562381     -1.67875519081595     -0.36510696222057
  O   -2.95122772781733      0.28607705037211     -0.19098775602568
  C   0.52128734707086     -1.89562697434282      0.40173327246843
  N   0.69450758340233     -3.02666383515681      0.68577343744397
  C   1.80033681466991      0.24026362147010      0.12120098980667
  H   1.89377907211732      0.85723713986800      1.02272976361227
  H   2.63850446406916     -0.45518618811784      0.10776503527650
  H   1.87986322127919      0.89597118018767     -0.75127272513956
