14
Coordinates from ORCA-job run
  C   -0.66224533838116      0.19506398285986     -0.06148467912828
  C   0.49176045024000     -0.49432756409985      0.14880268682300
  N   -0.76086498717879      1.55480880967201     -0.15482245191549
  H   0.04123069340612      2.02923267227743     -0.53805501322922
  H   -1.64862709628512      1.87371485197141     -0.51470105700780
  N   -1.97682032819491     -0.47843725247922     -0.13877034765763
  O   -2.90320163668644      0.18964319169660     -0.60340709859617
  O   -2.05930627868265     -1.63357574112127      0.26081997910870
  C   0.57529892852615     -1.91095737806706      0.20580773861790
  N   0.79648446406435     -3.06792388698572      0.25543942099542
  C   1.77862310370422      0.28570160448088      0.26208478296728
  H   2.09818674620445      0.67545742142388     -0.71143178977428
  H   2.57805802639582     -0.34875349710768      0.64245613165690
  H   1.65242325286796      1.13035278547873      0.94626169713966
