14
Coordinates from ORCA-job run
  C   -0.64854013451141      0.20880111519404     -0.12394455959128
  C   0.46180869597014     -0.44946847849083      0.30727211383832
  N   -0.65246956035286      1.45386501284501     -0.68763097601783
  H   0.15691181026868      1.68991426348868     -1.23954040675722
  H   -1.53617862901649      1.70700962893878     -1.10510880548602
  N   -2.01015324731824     -0.34417671129001      0.05185335770341
  O   -2.15128079392184     -1.30732059117376      0.79532704193031
  O   -2.91242953177066      0.22390306058133     -0.56709529268326
  C   0.45434409331201     -1.76327753522769      0.84662519858268
  N   0.60247898342804     -2.84663820717227      1.28721706242166
  C   1.80055762644752      0.22659295722573      0.14016318569161
  H   2.55983140938622     -0.27614752416192      0.73822339037899
  H   1.74087409793163      1.27067379393991      0.46201116770133
  H   2.13324518014725      0.20626921530297     -0.90437247771270
