14
Coordinates from ORCA-job run
  C   -0.65005103128409      0.17450271742224     -0.16383957138840
  C   0.50095050154862     -0.49438168092817      0.11764569430628
  N   -0.73451178286785      1.50632909676436     -0.45655798700432
  H   -0.04651443874943      2.09914029781400     -0.02022135628587
  H   -1.67670588716759      1.86841416726646     -0.43558821140529
  N   -1.95694779281672     -0.51306880144892     -0.25583148961536
  O   -2.95421287648402      0.21194601795213     -0.24281752132949
  O   -1.96269297007977     -1.73510801200974     -0.34098254853281
  C   0.56106019374197     -1.87277770047570      0.45440124242050
  N   0.75600324846362     -2.99257950932300      0.76740018283052
  C   1.79190404524867      0.28669756903191      0.14003796173588
  H   2.64664110115828     -0.38794086329577      0.16604464757510
  H   1.87296448422359      0.91400966004426     -0.75294565904842
  H   1.85311320506471      0.93481704118596      1.02225461574168
