16

C	0.0	0.0	0.0
C	-0.561505	-0.15537	-1.404006
F	1.377274	0.0	0.0
H	-1.667034	-0.049041	-1.22855
N	-0.273211	1.469741	0.49167
O	-0.805066	2.291036	-0.245795
O	0.069854	1.683597	1.653638
N	-0.581475	-0.922344	0.852871
H	-1.623345	-0.774704	0.718296
H	-0.327699	-0.705664	1.811805
C	-0.296556	-1.518537	-1.854536
N	-0.087021	-2.579169	-2.315337
N	0.024281	0.797343	-2.356608
H	-0.625214	1.565809	-2.460323
H	0.137988	0.345496	-3.254484
H	-2.980451	0.0	0.0
