16

C	0.0	0.0	0.0
C	-0.571952	0.051946	-1.41236
F	1.344115	0.0	0.0
H	-1.675731	0.130506	-1.225812
N	-0.283723	1.383806	0.716756
O	0.016107	1.398247	1.90948
O	-0.750244	2.336034	0.101248
N	-0.586177	-1.043629	0.698046
H	-1.62581	-0.875406	0.598964
H	-0.320426	-0.986614	1.673866
C	-0.299955	-1.23145	-2.054812
N	-0.08581	-2.204466	-2.677929
N	0.027192	1.117358	-2.231868
H	-0.520627	1.953818	-2.07519
H	-0.060536	0.858877	-3.20744
H	-2.993455	0.0	0.0
