16

C	0.0	0.0	0.0
C	-0.56974	0.048093	-1.402862
F	1.354194	0.0	0.0
H	0.093621	0.699894	-1.982715
N	-0.238259	1.428178	0.643847
O	-0.427469	1.470957	1.856108
O	-0.09788	2.405181	-0.084793
N	-0.525415	-1.019316	0.785895
H	-1.553741	-0.850207	0.693291
H	-0.24474	-0.87617	1.749742
C	-1.958209	0.655318	-1.467526
N	-2.558124	1.300755	-2.280768
N	-0.502706	-1.293583	-1.984609
H	-1.129826	-1.89039	-1.446617
H	-0.917797	-1.211221	-2.905855
H	-2.64964	0.0	0.0
