14

C	0.0	0.0	0.0
C	-0.378313	-0.549688	-1.427543
Br	2.030291	0.0	0.0
H	0.52551	-0.571539	-2.045875
H	-0.253003	1.061318	0.02054
N	-0.526105	-0.617181	1.158228
H	-0.447515	-1.626313	1.07931
H	-1.525539	-0.390056	1.184977
N	-1.366585	0.21476	-2.161004
H	-2.206849	0.335435	-1.583536
H	-0.965799	1.12968	-2.346688
C	-0.750764	-1.967699	-1.293143
N	-0.881197	-3.134328	-1.179642
Cl	-3.593428	0.0	0.0
