14

C	0.0	0.0	0.0
C	-0.501652	0.25541	-1.436015
Br	1.945622	0.0	0.0
H	-1.59393	0.332502	-1.324971
H	-0.267912	0.858111	0.62619
N	-0.51465	-1.266653	0.441965
H	-1.536838	-1.155995	0.411645
H	-0.258193	-1.409113	1.412516
N	-0.211188	-0.795767	-2.397899
H	0.779762	-1.012592	-2.349672
H	-0.707163	-1.621479	-2.081868
C	-0.012318	1.544538	-1.935918
N	0.371127	2.580568	-2.333495
Cl	-3.53206	0.0	0.0
