16

C	-0.447802	-0.043555	-1.433459
C	0.0	0.0	0.0
Cl	-2.237684	-0.038339	-1.661778
H	1.095026	0.0	0.0
H	-0.078376	-0.950221	-1.900473
N	0.111654	1.083744	-2.25778
O	0.960123	0.773444	-3.090225
O	-0.296462	2.22354	-2.048743
N	-0.356912	-1.309298	0.569773
H	0.466242	-1.625496	1.069298
H	-1.119465	-1.218574	1.23099
C	-0.504135	1.173214	0.817144
H	-0.228807	2.127456	0.368343
H	-1.593666	1.153787	0.946496
H	-0.029491	1.115984	1.800044
F	2.612852	0.0	0.0
