16

C	-0.524318	0.019542	-1.431764
C	0.0	0.0	0.0
Cl	0.203071	1.295067	-2.42581
H	1.094014	0.0	0.0
H	-1.608605	0.143264	-1.489455
N	-0.287159	-1.314299	-2.089459
O	-1.261893	-2.075881	-2.087427
O	0.825767	-1.586603	-2.513857
N	-0.400127	-1.220862	0.701388
H	0.337948	-1.900887	0.568568
H	-1.269656	-1.613913	0.36131
C	-0.525354	1.219932	0.737456
H	-1.62146	1.204267	0.830687
H	-0.095804	1.204826	1.739905
H	-0.222552	2.149007	0.249039
F	2.627702	0.0	0.0
