16

C	-0.423958	-0.002289	-1.439289
C	0.0	0.0	0.0
Cl	-2.203051	0.169066	-1.711207
H	1.100083	0.0	0.0
H	-0.133053	-0.939205	-1.901583
N	0.244071	1.065974	-2.26165
O	0.060681	2.240334	-1.958377
O	0.93429	0.674006	-3.200353
N	-0.380502	-1.315677	0.536503
H	0.421089	-1.646381	1.060859
H	-1.163363	-1.22707	1.174497
C	-0.491841	1.15985	0.844315
H	-0.213532	2.118829	0.409232
H	-0.011057	1.08054	1.822968
H	-1.581236	1.142065	0.98167
F	2.61006	0.0	0.0
