16

C	-0.405716	0.019218	-1.451589
C	0.0	0.0	0.0
Cl	0.218085	-1.375047	-2.352928
H	1.102072	0.0	0.0
H	-0.023544	0.917375	-1.93183
N	-1.905983	0.08222	-1.618214
O	-2.562227	-0.950145	-1.665585
O	-2.376466	1.223426	-1.610286
N	-0.56792	-1.184303	0.673751
H	-0.241728	-1.12126	1.634224
H	-0.078964	-1.991728	0.295007
C	-0.463431	1.255622	0.718401
H	-1.545687	1.272944	0.882304
H	0.046195	1.293221	1.685532
H	-0.1717	2.152553	0.167774
F	2.642391	0.0	0.0
