16

C	-0.422412	-0.018838	-1.44487
C	0.0	0.0	0.0
Cl	-2.197008	-0.164885	-1.699653
H	1.095024	0.0	0.0
H	0.040465	-0.865718	-1.941287
N	0.063257	1.198501	-2.184989
O	-0.554805	2.253611	-2.060253
O	1.095763	1.049987	-2.83262
N	-0.366739	-1.312309	0.541963
H	0.39724	-1.591749	1.147463
H	-1.216699	-1.250656	1.093155
C	-0.518033	1.174086	0.810634
H	-0.163754	2.127296	0.414538
H	-1.61501	1.204889	0.853574
H	-0.128035	1.074467	1.827774
F	2.614975	0.0	0.0
