16

C	-0.399198	-0.026873	-1.458693
C	0.0	0.0	0.0
Cl	-0.116126	-1.576647	-2.251592
H	1.096501	0.0	0.0
H	0.148453	0.734045	-2.009267
N	-1.851814	0.343018	-1.632898
O	-2.077274	1.476975	-2.065206
O	-2.711735	-0.442726	-1.24649
N	-0.467283	-1.161952	0.732371
H	-1.307871	-0.962942	1.26311
H	0.273143	-1.436965	1.363853
C	-0.412238	1.332941	0.617624
H	-0.079315	2.178605	0.009194
H	0.080151	1.413585	1.589735
H	-1.498589	1.420059	0.763799
F	2.622178	0.0	0.0
