14
Coordinates from ORCA-job run
  C   0.87605867336543     -0.33798727491985     -0.62219167314186
  C   -0.61145746822772     -0.12281722899457     -0.43067486469527
  Cl  1.40667716034005      0.46452501051698     -2.08109632616395
  H   -1.14337869759644     -0.42843718117030     -1.33104060396248
  H   1.05512598203792     -1.40996116477186     -0.71315772860429
  N   1.67863088861326      0.09267798160213      0.60285560084036
  O   2.66245142048101      0.79070129864291      0.45720065105159
  O   1.24442669184198     -0.38783842484941      1.64245592405529
  N   -0.98265342990482      1.30150915847457     -0.17419104663195
  O   -2.09488997716922      1.62959417016434     -0.57164571986108
  O   -0.16785331381242      1.99513948726967      0.42345032723324
  N   -1.17149862776445     -0.98098472241893      0.68529861056167
  O   -1.75853404665029     -0.42675244446315      1.59886348567886
  O   -0.99310525555428     -2.17836866508252      0.51587336363986
