14
Coordinates from ORCA-job run
  C   0.83829400777058     -0.53576903677019     -0.12862014646841
  C   -0.48836745211843      0.15472136624848     -0.32489654962471
  Cl  1.25670751485836     -1.43531809901475     -1.57977156103884
  H   -0.50543140668520      0.83334531583767     -1.17284428631540
  H   0.82523352381302     -1.20484432709070      0.72762392273087
  N   1.90478145448987      0.49941833178336      0.13145490943975
  O   1.70443393733695      1.62399727563207     -0.31635340059913
  O   2.88620247158708      0.10767031716529      0.74496669052776
  N   -0.88272212505574      0.92966523854387      0.90240530370861
  O   -1.84514299108408      1.67282622565983      0.75895855999374
  O   -0.23669901983886      0.73031112820208      1.92548933758472
  N   -1.56183549516052     -0.87694287758375     -0.51584804393766
  O   -2.24590867454701     -0.78027246470780     -1.52669270497327
  O   -1.64854574536602     -1.71880839390545      0.37312796897197
