14
Coordinates from ORCA-job run
  C   0.81289117781785     -0.57857695286002     -0.10495843273536
  C   -0.49624148416982      0.13874549782221     -0.32096359595654
  Cl  1.13904644583421     -1.63590581894419     -1.47101098332049
  H   -0.52802303165132      0.72348402135745     -1.23573700820946
  H   0.81279083835140     -1.15635213149451      0.81542521161943
  N   1.92396948083031      0.43609552169704      0.00636865057735
  O   1.74479751701283      1.51461456495813     -0.55046236163289
  O   2.91471872395628      0.07321181232052      0.62258779246819
  N   -0.80917803610362      1.05359521058561      0.83089166420410
  O   -0.13469660005313      0.92843906392215      1.84742445345876
  O   -1.74315316423532      1.82284747262825      0.64363296799910
  N   -1.61205691862675     -0.86553485512328     -0.35697212135610
  O   -1.68784096336481     -1.60550386782745      0.61922817037486
  O   -2.33702398559812     -0.84815953904190     -1.34345440749096
