14
Coordinates from ORCA-job run
  C   0.80803830476305     -0.48331373699512     -0.60358961119711
  C   -0.65035282508663     -0.10640956766660     -0.40074771379763
  Cl  1.41955951141819      0.08726431293045     -2.14863057147798
  H   -1.22876801031965     -0.36756334120631     -1.28656520312395
  H   0.89840668558148     -1.56812290067565     -0.57671447466637
  N   1.71609888292799      0.02041575927470      0.49266502229236
  O   1.55381182937932      1.18065746397241      0.84736464867946
  O   2.55684624672428     -0.77301667213688      0.89046811661803
  N   -0.91207125722261      1.36535714993307     -0.14765499125941
  O   -0.75743017309472      2.07790320311793     -1.12725275278921
  O   -1.26887700846187      1.68908924269674      0.97369852830434
  N   -1.23328232652028     -0.86428657164908      0.74965995350509
  O   -0.45540843862100     -1.23089199034816      1.62582516220578
  O   -2.44657142146754     -1.02808235124751      0.71247388670660
