14
Coordinates from ORCA-job run
  C   0.81080243005565     -0.58936995163886     -0.04203952687390
  C   -0.48182491506106      0.12559722151165     -0.34690291679549
  Cl  1.17907907411607     -1.72081468197912     -1.33621741987700
  H   -0.47114679911546      0.66376334939105     -1.29034174018220
  H   0.76880437739057     -1.11762426607015      0.90670912042430
  N   1.92688171320320      0.42070135065435      0.05897825123342
  O   1.77959290796777      1.47054019023515     -0.55874586324661
  O   2.89019320330146      0.08210057657098      0.73014427902386
  N   -0.83174220914391      1.10069723290823      0.74395669203519
  O   -1.75507627169861      1.86121366123828      0.48309122047937
  O   -0.19370429740948      1.02810126033540      1.78872324325879
  N   -1.60506178122073     -0.86970969974357     -0.37721595387193
  O   -1.72506303862877     -1.56100152764530      0.62987403513289
  O   -2.29273439375671     -0.89419471576809     -1.39001342074069
