14
Coordinates from ORCA-job run
  C   0.81386858062124     -0.58229310737984     -0.07975244529751
  C   -0.47771629824797      0.15013072990573     -0.34367257300571
  Cl  1.20853641826321     -1.59876620184071     -1.45874241064877
  H   -0.45716980467971      0.76087952811965     -1.24156482169524
  H   0.76143349952670     -1.18865984252106      0.82040329419803
  N   1.92273432160807      0.42148642240235      0.12288593003099
  O   1.77867699618909      1.51803038792433     -0.40829346507511
  O   2.87742131056745      0.03217681706191      0.77860646026537
  N   -0.84418051219929      1.03547093918917      0.81633711255130
  O   -1.75181377626917      1.82770617828022      0.59828738889003
  O   -0.23477596181435      0.86449304419767      1.86675628601049
  N   -1.59731294798531     -0.84276684152438     -0.46632130898479
  O   -1.71953379343033     -1.62070162072675      0.47505396630279
  O   -2.28116803214963     -0.77818643308830     -1.47998341354187
