14
Coordinates from ORCA-job run
  C   0.96125270232683      0.04689725519520     -0.65603235385777
  C   -0.51447375140233      0.41480231619940     -0.43940113429404
  Br  1.16466683089022     -1.34050610064878     -1.97166289409874
  H   -0.90063219509902      0.67472999598542     -1.43174248646873
  H   1.53743331759645      0.90664773887952     -0.99178850442191
  N   1.58432046809118     -0.36343148360074      0.65716012814792
  O   1.38865825068291     -1.50058478586564      1.06564967202438
  O   2.19636457978993      0.53288056207283      1.23360797693285
  C   -0.57958403571269      1.62641388286679      0.38527004563299
  N   -0.65392572339996      2.58915640640567      1.05375059823871
  C   -1.37990744285104     -0.69505432032208      0.16431597072830
  H   -1.29789682466058     -1.60654919232907     -0.42684150889887
  H   -1.08347860274999     -0.91411707740422      1.18918875527364
  H   -2.42179757350192     -0.37128519743429      0.16852573506127
