14
Coordinates from ORCA-job run
  C   0.93927475144434      0.07853085124013     -0.68442578407795
  C   -0.54081334703390      0.39716662678953     -0.42224934392521
  Br  1.14800821238067     -1.30236761739910     -2.00578910334894
  H   -0.96513603159501      0.64380057956920     -1.40233599109924
  H   1.47435129051382      0.95740043883419     -1.03817458463401
  N   1.61572118103025     -0.30885357394373      0.60856257012731
  O   1.47060385796763     -1.45129160892036      1.02333388220582
  O   2.21566887038431      0.60773058791529      1.16554950092608
  C   -0.62144773477280      1.60576232782699      0.40531791753072
  N   -0.70852840353142      2.56585513097637      1.07614708533966
  C   -1.35092687098780     -0.74100182428562      0.20513995710921
  H   -1.01082666931155     -0.95821736267947      1.21696626133874
  H   -2.40085576273723     -0.44733026575947      0.24837402236972
  H   -1.26409334375132     -1.64618429016396     -0.39541638986192
