14
Coordinates from ORCA-job run
  C   0.80365550075610     -0.51669246868716     -0.16777351942632
  C   -0.42232215467200      0.38417558809370     -0.08356769691815
  Br  0.92587400184679     -1.77071972414577      1.29057160335467
  H   -0.28205474242524      1.16565024871702     -0.84014150612203
  H   0.79408301917181     -1.10070907624944     -1.08843587267858
  N   2.09069624048919      0.27630845839903     -0.22122193440577
  O   3.06075866855945     -0.31629467955907     -0.67728220373781
  O   2.05888824561896      1.43631390493645      0.17644238738293
  C   -0.54521915070901      1.04753438754642      1.21529620668713
  N   -0.73062361283596      1.56333028962112      2.25331722202072
  C   -1.69996825556406     -0.40086113165298     -0.40373752187554
  H   -2.55603372426113      0.27496444296084     -0.40754582747136
  H   -1.87643938588768     -1.17593375026405      0.34226653747505
  H   -1.62229465008721     -0.86606648971611     -1.38918787428494
