14
Coordinates from ORCA-job run
  C   0.95502643636547      0.03958349277381     -0.66553042210414
  C   -0.51207793807086      0.42932570425971     -0.42738769346859
  Br  1.12020951762220     -1.33353773115085     -2.00099634499836
  H   -0.90407516938159      0.70956040783978     -1.41189318110090
  H   1.54072487572032      0.89456836305227     -0.99699796531972
  N   1.58548113332855     -0.39740592132123      0.63495491331084
  O   1.37579577218236     -1.53632966546331      1.03128199571505
  O   2.21875396382817      0.48120606460189      1.21573349630203
  C   -0.54799982793453      1.62966638457808      0.41520957281517
  N   -0.59906689485573      2.58417363235150      1.09761527514889
  C   -1.39033796136622     -0.67443854370784      0.16910144685066
  H   -2.42501626470353     -0.32926980305752      0.19580338016233
  H   -1.08185187576661     -0.92054684787550      1.18444807521937
  H   -1.33656576696801     -1.57555553688081     -0.44134254853263
