14
Coordinates from ORCA-job run
  C   0.80315959575145     -0.52205125385564     -0.15338956339062
  C   -0.42461467922595      0.37865866844773     -0.09606003997987
  Br  0.94911333299327     -1.70397736016602      1.36163246892052
  H   -0.29763878255874      1.12298730304728     -0.89138403734699
  H   0.78323681005119     -1.14975281573630     -1.04468511299346
  N   2.08658677588588      0.27112902031367     -0.26276896975430
  O   2.05598142903492      1.44895575921352      0.07862123586028
  O   3.05258670324716     -0.34017910279586     -0.70244579329412
  C   -0.53224882429064      1.10315593753954      1.17101333947765
  N   -0.70515127749731      1.66722711607749      2.18581891293106
  C   -1.70383286678028     -0.42458774081988     -0.36082964015924
  H   -1.86770573250411     -1.16338702629746      0.42383318326236
  H   -1.63746837697832     -0.93629493103100     -1.32379171888654
  H   -2.56200410712853      0.24811642606294     -0.38556426464673
