14
Coordinates from ORCA-job run
  C   1.01026405948372      0.36255490429365      0.01778699369458
  C   -0.44395052762812      0.31641753454125     -0.44612659227282
  Br  2.14031269020687      1.34913257818958     -1.18655056119727
  H   -0.45010775706120     -0.08340616610472     -1.46526126539413
  H   1.11960389815445      0.78946438672588      1.01344146700696
  N   1.50877127746520     -1.05446505695483      0.11481197882413
  O   1.91590303622184     -1.41056439474296      1.21697730400531
  O   1.42479483592366     -1.74342322521788     -0.89455541560928
  C   -0.97810942961991      1.67798749438849     -0.46996392458844
  N   -1.43643858700385      2.75883057623320     -0.45426678082549
  C   -1.29071037447868     -0.57564812828942      0.47192430807234
  H   -0.95812469359646     -1.61274640061485      0.41160630984432
  H   -1.22805495276367     -0.23909614328770      1.50886865785346
  H   -2.33515347530385     -0.53603795915968      0.16030752058632
