14
Coordinates from ORCA-job run
  C   1.01264070707972      0.24015880320658     -0.26415145572253
  C   -0.50490599060915      0.22756772773811     -0.43529252603166
  Br  1.93524483405467      0.72427352923106     -1.88134539830703
  H   -0.73435129373446     -0.43558588951321     -1.27567277206113
  H   1.33993201651316      0.91155107283083      0.52808975249898
  N   1.44104223873376     -1.14011807359412      0.15624865416132
  O   1.12234323471428     -2.06838658163748     -0.57671924635068
  O   2.03559745455352     -1.21911028238498      1.22755728166056
  C   -0.95699534483041      1.57919440351781     -0.76441240317844
  N   -1.34300271677167      2.66548343201871     -0.98704382458306
  C   -1.20199909702430     -0.27699630693190      0.83549859516412
  H   -2.28361853677528     -0.20998629019541      0.71237135180672
  H   -0.94626550008998     -1.32050325703616      1.02402005357076
  H   -0.91666200581386      0.32345771275018      1.70185193737207
