14
Coordinates from ORCA-job run
  C   0.95757676426139      0.02623286713308     -0.66333961576383
  C   -0.51122376872494      0.41853492195472     -0.43889264799758
  Br  1.12971564439078     -1.37576513330043     -1.96757206592848
  H   -0.90066326982787      0.67435748975666     -1.43098190570011
  H   1.54257387383667      0.87502573583981     -1.01163378345710
  N   1.58369155561693     -0.38103147587486      0.64862216951172
  O   2.21414902293607      0.51064193011409      1.21244873665261
  O   1.37303906816450     -1.51103243875705      1.06951121986451
  C   -0.55167986238309      1.63845001246845      0.37475455209652
  N   -0.60672064846710      2.60845995859099      1.03453563063485
  C   -1.38909539181709     -0.67248543057208      0.18101965486604
  H   -1.08445625262763     -0.89244385160475      1.20345499576145
  H   -2.42481289777892     -0.32964609193739      0.19467210871294
  H   -1.33009383757970     -1.58829849381124     -0.40659904925353
