14
Coordinates from ORCA-job run
  C   0.95544460412228      0.05588333380951     -0.67244522334714
  C   -0.51475854945924      0.43247108711548     -0.42793915250161
  Br  1.12576197894825     -1.27336595698671     -2.04966718817050
  H   -0.92251194607012      0.68829673154860     -1.41235518842682
  H   1.54257415132936      0.92162082879350     -0.97214265978276
  N   1.57075593279488     -0.42003026801494      0.62299110123381
  O   2.09064843265120      0.47278078594558      1.28900839010699
  O   1.45146920828063     -1.59637991961160      0.93652886196176
  C   -0.57008775483405      1.64610580187403      0.39391678607834
  N   -0.64302148672859      2.61487400399838      1.05367835586106
  C   -1.35947562380627     -0.68227410261297      0.19576172159857
  H   -1.03870117447146     -0.89799537801213      1.21483590863122
  H   -2.40340974174840     -0.36661723549940      0.22389068181938
  H   -1.28368803100846     -1.59436971234734     -0.39606239506231
