15
Coordinates from ORCA-job run
  C   0.87341319190832     -0.42143939754625      0.41531653906360
  C   -0.43117434365909     -0.06804810496576     -0.26798043661159
  H   0.95999962501371      0.08649699363972      1.37573084816617
  H   -0.46836460460106     -0.59487091166930     -1.23155535043379
  H   0.98989884565359     -1.49931453081886      0.55654894157675
  N   2.07683021581448      0.00366188057972     -0.37145934356966
  O   1.93929060864471      0.21690348661003     -1.57569902665050
  O   3.13518087603182      0.07295032557668      0.24414539172664
  N   -0.49799259402087      1.38476254285198     -0.40930907240284
  H   0.09149769589337      1.67345430970411     -1.18101442272681
  H   -1.44599193383771      1.66042433728986     -0.63633159483012
  C   -1.58327401276823     -0.54322624201101      0.60709087704917
  H   -1.57149039718455     -0.01307645233089      1.56235151584918
  H   -2.53967315214630     -0.34084600781930      0.11782372745435
  H   -1.52815002074218     -1.61783222909073      0.79534140633946
