15
Coordinates from ORCA-job run
  C   0.86917612776849     -0.45683919646541      0.46891826731219
  C   -0.37080829332217     -0.06854100551255     -0.32028612376653
  H   0.93240710575527      0.07533417076264      1.41886953830707
  H   -0.31968527641418     -0.59709303873374     -1.27636377027668
  H   0.92017796084374     -1.53483584468843      0.63374368473131
  N   2.08722105376558     -0.08527684362191     -0.30477707832715
  O   2.86660391112122      0.71520837006901      0.20283158302174
  O   2.21597638732398     -0.61491306311509     -1.40511202992489
  N   -0.28105708779875      1.35653470945819     -0.61645556179018
  H   -0.94885554233724      1.61129497997884     -1.33310133570548
  H   -0.49409248183557      1.90249687567570      0.21141398493796
  C   -1.62674700501106     -0.49922712208652      0.43579757899753
  H   -1.68210894989201      0.00495497028848      1.40589995498680
  H   -1.64957003346693     -1.57894836900937      0.61008753531236
  H   -2.51963787650038     -0.23014959299984     -0.13346622781606
