15
Coordinates from ORCA-job run
  C   0.85972382219071     -0.46021575496854      0.48235106146200
  C   -0.35336821078287     -0.05880432769738     -0.34107029532507
  H   0.86336287639393      0.01632205246900      1.46344922961825
  H   -0.24178160700112     -0.52632564272824     -1.32345208218226
  H   0.93445220918368     -1.54434530051917      0.58672223554099
  N   2.10084671666212     -0.01075467731098     -0.20893435184558
  O   2.83288307569151      0.77707426276640      0.38212297308775
  O   2.29556123967867     -0.46964642859442     -1.33118893727389
  N   -0.29258826861703      1.38375415799149     -0.54735775730690
  H   -0.93648382818469      1.66345625838239     -1.27653900884832
  H   -0.55773008448794      1.87207894799694      0.30126546857443
  C   -1.62964407814764     -0.56863515779582      0.32634994397046
  H   -1.74448795519706     -0.12743062250848      1.32160552332751
  H   -2.50279319023384     -0.28820118668998     -0.26751857250742
  H   -1.62895271714846     -1.65732658079321      0.43319456970805
