15
Coordinates from ORCA-job run
  C   0.94756135361913     -0.45562351160237     -0.58932440984322
  C   -0.49368690893166      0.03979528591720     -0.48718151568472
  H   0.98643684257243     -1.54355550333932     -0.65291922608634
  H   -0.93717168785241     -0.19381069787481     -1.47106468972627
  H   1.45808053311227     -0.00703054017770     -1.44193154285669
  N   1.73257971319780     -0.05755215264902      0.61129795220242
  O   1.55388075725029     -0.71393653291381      1.63580285921584
  O   2.48537861878099      0.90617276251246      0.49956078706158
  N   -0.46663021903494      1.46581123083896     -0.18560366381078
  H   0.00640669248057      1.98583649603233     -0.91574983902136
  H   -1.41143024730401      1.82215546601003     -0.11095752732266
  C   -1.30732682654108     -0.67944172355462      0.57863399749943
  H   -1.29567745731770     -1.76031550071506      0.42203604767835
  H   -2.34790579000393     -0.34511626231995      0.53719012762848
  H   -0.91149537402776     -0.46338881616431      1.57021064306592
