15

C	0.0	0.0	0.0
C	-0.515531	-0.001176	-1.432238
F	1.353308	0.0	0.0
H	-0.215681	-0.898933	-1.961839
H	-1.610236	0.09778	-1.391222
N	-0.485488	0.963719	0.900763
H	-1.480025	0.780037	1.054241
H	-0.411447	1.864416	0.441489
N	-0.330126	-1.405634	0.571173
O	0.050925	-2.347094	-0.122542
O	-0.838238	-1.485483	1.675975
N	0.03951	1.140274	-2.20408
O	0.391553	0.913787	-3.360754
O	0.093717	2.246429	-1.666061
Br	-3.738719	0.0	0.0
