15

C	0.0	0.0	0.0
C	-0.487665	0.297566	-1.414005
F	1.353234	0.0	0.0
H	-0.1648	-0.466652	-2.112222
H	-1.583042	0.383537	-1.385055
N	-0.486392	0.767412	1.069537
H	-1.491148	0.5887	1.145093
H	-0.363025	1.74184	0.821659
N	-0.355684	-1.487138	0.276261
O	-0.743782	-1.794429	1.3911
O	-0.113254	-2.265352	-0.644171
N	0.078654	1.578419	-1.91696
O	0.117474	2.549138	-1.160651
O	0.449608	1.598515	-3.089248
Br	-3.667845	0.0	0.0
