12

C	-0.508693	-0.106456	-1.425761
C	0.0	0.0	0.0
Cl	-0.177656	1.365736	-2.380176
H	1.099551	0.0	0.0
H	0.01879	-0.930067	-1.914365
H	-1.584634	-0.284032	-1.438665
N	-0.397368	-1.269791	0.675792
H	0.430381	-1.860115	0.578483
H	-0.468291	-1.078235	1.670635
C	-0.554446	1.143119	0.702081
N	-1.003704	2.05092	1.300064
H	2.729619	0.0	0.0
