12

C	-0.533389	-0.018079	-1.421004
C	0.0	0.0	0.0
Cl	-0.080777	-1.524577	-2.282754
H	1.100971	0.0	0.0
H	-0.097855	0.806944	-1.985387
H	-1.622971	0.028304	-1.429397
N	-0.53405	-1.141416	0.772733
H	-0.077308	-1.957343	0.375131
H	-0.125373	-1.053597	1.700113
C	-0.462138	1.245394	0.608646
N	-0.815739	2.257618	1.08974
H	2.801212	0.0	0.0
