12

C	-0.521134	0.022337	-1.432063
C	0.0	0.0	0.0
Cl	-0.10111	-1.461536	-2.324865
H	1.094079	0.0	0.0
H	-0.060169	0.85869	-1.960913
H	-1.608856	0.112878	-1.466026
N	-0.423742	-1.175156	0.752561
H	-1.200589	-0.973486	1.367029
H	0.370749	-1.470226	1.309934
C	-0.430662	1.249593	0.633948
N	-0.810802	2.231451	1.159694
H	2.74979	0.0	0.0
