12

C	-0.50558	-0.131786	-1.426718
C	0.0	0.0	0.0
Cl	-0.357933	1.38339	-2.372817
H	1.093738	0.0	0.0
H	0.115344	-0.882672	-1.91513
H	-1.55519	-0.432432	-1.455037
N	-0.331414	-1.256898	0.687897
H	0.495307	-1.52241	1.212993
H	-1.101812	-1.138327	1.329924
C	-0.523221	1.171673	0.690382
N	-0.9221	2.103613	1.287504
H	2.716133	0.0	0.0
