12

C	-0.411131	0.129295	-1.4396
C	0.0	0.0	0.0
Cl	-2.201065	0.07615	-1.679315
H	1.103856	0.0	0.0
H	0.004802	-0.715374	-1.984898
H	-0.060043	1.069778	-1.864149
N	-0.358021	-1.30038	0.557662
H	-1.205804	-1.255903	1.107855
H	0.412648	-1.587501	1.155284
C	-0.459096	1.13217	0.803263
N	-0.814436	2.042296	1.458253
H	2.711691	0.0	0.0
