15

C	-0.545905	0.011732	-1.419924
C	0.0	0.0	0.0
Cl	0.217881	-1.246177	-2.427579
H	1.090676	0.0	0.0
H	-1.612626	-0.221799	-1.396712
C	-0.366449	1.316802	-2.049377
N	-0.242167	2.369484	-2.556824
N	-0.474612	-1.248217	0.684928
O	0.128923	-1.576808	1.699366
O	-1.468778	-1.827893	0.238681
C	-0.494969	1.174182	0.833016
H	-0.11683	1.058276	1.849346
H	-0.09114	2.103232	0.429937
H	-1.588872	1.228174	0.853462
Cl	3.291516	0.0	0.0
