15

C	-0.460532	-0.031594	-1.458144
C	0.0	0.0	0.0
Cl	0.083707	1.440866	-2.313535
H	1.094964	0.0	0.0
H	0.01137	-0.872886	-1.962422
C	-1.914866	-0.142663	-1.573413
N	-3.083816	-0.236414	-1.643517
N	-0.387059	-1.314533	0.614889
O	-0.49247	-1.365242	1.837014
O	-0.529724	-2.280184	-0.138576
C	-0.545863	1.145154	0.820975
H	-0.126536	1.097905	1.823821
H	-1.637353	1.112548	0.88724
H	-0.237774	2.086798	0.367266
Cl	3.249612	0.0	0.0
