15

C	-0.462454	-0.012018	-1.458006
C	0.0	0.0	0.0
Cl	0.092697	1.465846	-2.296595
H	1.094915	0.0	0.0
H	0.00106	-0.851088	-1.972416
C	-1.917599	-0.107722	-1.572695
N	-3.087212	-0.190117	-1.638366
N	-0.388322	-1.320828	0.600774
O	-0.49574	-1.381854	1.822243
O	-0.53062	-2.279724	-0.161771
C	-0.543479	1.13553	0.836217
H	-0.120388	1.076696	1.836748
H	-1.634639	1.102119	0.90644
H	-0.236927	2.082355	0.392165
Cl	3.25145	0.0	0.0
