15

C	-0.387145	0.030633	-1.473473
C	0.0	0.0	0.0
Cl	-2.075204	0.549458	-1.824114
H	1.092537	0.0	0.0
H	0.254026	0.788728	-1.92953
C	-0.136233	-1.241606	-2.14392
N	0.055927	-2.266468	-2.684212
N	-0.48522	-1.257405	0.63974
O	-1.608334	-1.659454	0.323111
O	0.252917	-1.780668	1.470863
C	-0.506887	1.182926	0.801811
H	-1.594415	1.165777	0.891944
H	-0.04823	1.153566	1.791282
H	-0.201575	2.111644	0.314529
Cl	3.287465	0.0	0.0
