15

C	-0.54909	0.014518	-1.420424
C	0.0	0.0	0.0
Cl	0.264453	-1.190154	-2.455297
H	1.09065	0.0	0.0
H	-1.605157	-0.262333	-1.404792
C	-0.42031	1.336903	-2.026679
N	-0.348505	2.401953	-2.516226
N	-0.459419	-1.256574	0.681652
O	0.076108	-1.517754	1.753597
O	-1.369491	-1.916499	0.17115
C	-0.495238	1.170052	0.83862
H	-0.092701	2.100504	0.438022
H	-0.117182	1.049759	1.85373
H	-1.589032	1.224554	0.859345
Cl	3.28072	0.0	0.0
