15

C	-0.551688	0.046304	-1.418225
C	0.0	0.0	0.0
Cl	0.225102	-1.175797	-2.462877
H	1.090629	0.0	0.0
H	-1.615002	-0.200146	-1.40191
C	-0.383984	1.370641	-2.010596
N	-0.27286	2.43394	-2.49692
N	-0.470471	-1.267219	0.654071
O	-1.461178	-1.842522	0.19227
O	0.130682	-1.614597	1.663585
C	-0.498335	1.149171	0.864536
H	-0.105847	2.091832	0.482265
H	-1.593133	1.191894	0.893294
H	-0.113122	1.010942	1.875356
Cl	3.284621	0.0	0.0
