17

C	-0.173785	-0.057243	-1.53361
C	0.0	0.0	0.0
Br	0.009205	1.927367	-2.221915
H	1.102495	0.0	0.0
N	0.895165	-0.838204	-1.976272
H	1.77183	-0.577376	-1.477359
H	0.987908	-0.87395	-2.981337
C	-1.526654	-0.488246	-2.051586
H	-2.303663	0.190155	-1.698277
H	-1.536817	-0.493196	-3.145037
H	-1.729941	-1.491239	-1.673463
N	-0.494806	-1.292194	0.554405
H	0.182228	-1.972401	0.216502
H	-0.346586	-1.244218	1.559377
C	-0.664465	1.094327	0.673433
N	-1.214945	1.916197	1.308525
F	2.661103	0.0	0.0
