17

C	-0.436754	0.012119	-1.459708
C	0.0	0.0	0.0
Br	0.338948	-1.737806	-2.2737
H	1.098376	0.0	0.0
N	-1.839998	0.016588	-1.581104
H	-2.212632	-0.686789	-0.949092
H	-2.142383	-0.163242	-2.529586
C	0.286118	1.112098	-2.202886
H	-0.108793	2.073394	-1.859293
H	1.344783	1.034701	-1.945257
H	0.142694	1.030893	-3.282199
N	-0.592656	-1.167778	0.69934
H	-0.558633	-0.971792	1.695591
H	0.069652	-1.920801	0.541414
C	-0.474238	1.226513	0.631801
N	-0.813096	2.219207	1.163523
F	2.599912	0.0	0.0
