17

C	-0.371802	0.022208	-1.48349
C	0.0	0.0	0.0
Br	0.343942	-1.788336	-2.231563
H	1.098388	0.0	0.0
N	-1.761545	0.099671	-1.678091
H	-2.023722	-0.053961	-2.643062
H	-2.210387	-0.584604	-1.077355
C	0.456885	1.065692	-2.199185
H	0.092988	2.054404	-1.900979
H	1.489597	0.934261	-1.861123
H	0.381904	0.969946	-3.284973
N	-0.638967	-1.144721	0.684461
H	-0.675443	-0.932034	1.676077
H	0.018703	-1.912563	0.584438
C	-0.466489	1.244021	0.602712
N	-0.804122	2.247684	1.114878
F	2.612495	0.0	0.0
