17

C	-0.401559	0.012606	-1.475556
C	0.0	0.0	0.0
Br	0.345776	-1.772471	-2.240291
H	1.0992	0.0	0.0
N	-1.79944	0.048859	-1.634462
H	-2.080355	-0.12246	-2.591474
H	-2.206972	-0.647754	-1.018493
C	0.373791	1.083129	-2.210039
H	-0.012171	2.058966	-1.898726
H	0.270633	0.987598	-3.293395
H	1.41947	0.983912	-1.905109
N	-0.614524	-1.154303	0.692435
H	-0.662769	-0.935815	1.681588
H	0.062792	-1.905649	0.604244
C	-0.470928	1.237942	0.608635
N	-0.816476	2.243434	1.111925
F	2.60227	0.0	0.0
