17

C	-0.27338	-0.038011	-1.518822
C	0.0	0.0	0.0
Br	0.089963	1.789029	-2.217257
H	1.0945	0.0	0.0
N	0.680027	-0.927796	-2.14282
H	0.428361	-1.858047	-1.817635
H	1.577443	-0.712439	-1.689862
C	-1.70101	-0.377453	-1.886407
H	-1.815821	-0.407891	-2.970381
H	-2.3861	0.364901	-1.471967
H	-1.940674	-1.35844	-1.466642
N	-0.354753	-1.320091	0.556957
H	0.44452	-1.620932	1.099116
H	-1.156142	-1.264179	1.170503
C	-0.626062	1.087662	0.726727
N	-1.183925	1.902885	1.36707
F	2.595093	0.0	0.0
