17

C	-0.124239	-0.046555	-1.552975
C	0.0	0.0	0.0
Br	0.07572	1.945272	-2.225036
H	1.097408	0.0	0.0
N	0.948617	-0.826891	-1.981856
H	1.814195	-0.573883	-1.453908
H	1.067352	-0.838013	-2.984999
C	-1.460895	-0.457774	-2.135581
H	-2.258663	0.190531	-1.768433
H	-1.442218	-0.395536	-3.226423
H	-1.666003	-1.495906	-1.857679
N	-0.399719	-1.249442	0.64757
H	0.297395	-1.941429	0.400147
H	-1.304919	-1.568022	0.320058
C	-0.674549	1.11434	0.63943
N	-1.282873	1.960236	1.184395
F	2.651729	0.0	0.0
