17

C	-0.065037	0.084946	-1.521226
C	0.0	0.0	0.0
Br	-1.948884	0.358845	-2.185066
H	1.09917	0.0	0.0
N	0.724041	1.239123	-1.869144
H	1.61896	1.084572	-1.378811
H	0.892002	1.245347	-2.869427
C	0.446261	-1.214324	-2.12098
H	-0.17637	-2.065247	-1.850798
H	0.509722	-1.124075	-3.209037
H	1.447228	-1.334884	-1.693208
N	-0.532898	-1.232095	0.552216
H	-0.025288	-1.442391	1.402681
H	-1.513079	-1.117536	0.78437
C	-0.503776	1.207035	0.650527
N	-0.937405	2.105378	1.274338
F	2.636522	0.0	0.0
