17

C	-0.236471	0.042555	-1.528667
C	0.0	0.0	0.0
Br	0.059056	1.918715	-2.115755
H	1.093869	0.0	0.0
N	0.773355	-0.764554	-2.176938
H	0.540229	-1.724827	-1.932471
H	1.652688	-0.55759	-1.675462
C	-1.633344	-0.350987	-1.962747
H	-1.705052	-0.325938	-3.051051
H	-2.378435	0.32541	-1.536556
H	-1.828749	-1.368491	-1.610522
N	-0.357041	-1.34922	0.476118
H	0.393325	-1.650854	1.086358
H	-1.218884	-1.339128	1.007897
C	-0.640445	1.045816	0.775761
N	-1.208651	1.816024	1.461543
F	2.608701	0.0	0.0
