17

C	-0.466348	0.031547	-1.468132
C	0.0	0.0	0.0
Br	-0.082032	-1.70437	-2.434883
H	1.095685	0.0	0.0
N	-1.884043	0.192078	-1.522048
H	-2.11996	0.909237	-0.841277
H	-2.182825	0.463404	-2.4503
N	0.311366	1.08716	-2.0435
H	1.303753	0.904702	-1.888894
H	0.144696	1.148861	-3.0412
N	-0.513015	-1.184844	0.748077
O	-1.49292	-1.031133	1.479976
O	0.092285	-2.238686	0.597367
N	-0.535497	1.213121	0.617018
H	0.026208	1.969866	0.230136
H	-0.342214	1.166563	1.61373
Cl	3.318974	0.0	0.0
