17

C	-0.405582	-0.003333	-1.484199
C	0.0	0.0	0.0
Br	0.212346	1.810552	-2.21844
H	1.089608	0.0	0.0
N	0.271698	-1.071609	-2.106805
H	0.166378	-1.05843	-3.113234
H	1.260679	-1.071024	-1.855454
N	-1.831219	0.04493	-1.674323
H	-2.052348	0.175582	-2.653599
H	-2.225898	-0.828543	-1.34176
N	-0.447173	-1.348446	0.539155
O	0.402567	-2.200858	0.762978
O	-1.660325	-1.498331	0.716799
N	-0.565467	1.016341	0.817204
H	0.101724	1.770544	0.899382
H	-1.426299	1.353629	0.403693
Cl	3.357604	0.0	0.0
