17

C	-0.402275	0.029087	-1.475383
C	0.0	0.0	0.0
Br	-2.627335	0.060176	-1.329342
H	1.094471	0.0	0.0
N	-0.114944	1.262829	-2.117299
H	-0.383051	2.010834	-1.48813
H	0.899157	1.287047	-2.225549
N	0.022403	-1.012996	-2.238449
H	-0.243724	-0.94456	-3.20793
H	-0.027422	-1.926248	-1.815544
N	-0.434334	-1.285127	0.692534
O	-0.962967	-1.187089	1.796582
O	-0.195299	-2.358115	0.134843
N	-0.432776	1.164062	0.684187
H	-1.396252	1.07943	0.98054
H	0.164927	1.325331	1.482404
Cl	3.239388	0.0	0.0
