17

C	-0.485097	0.017437	-1.466446
C	0.0	0.0	0.0
Br	-0.123086	-1.67923	-2.38617
H	1.08992	0.0	0.0
N	-1.907068	0.231211	-1.50399
H	-2.086854	1.085988	-0.985051
H	-2.15942	0.39846	-2.472437
N	0.256667	1.026819	-2.200373
H	1.247467	0.788035	-2.166513
H	0.152992	1.882095	-1.657523
N	-0.509674	-1.195075	0.770141
O	-1.524526	-1.039004	1.457856
O	0.103872	-2.248803	0.660769
N	-0.439335	1.231097	0.619919
H	-1.259012	1.038761	1.18424
H	0.303649	1.558157	1.224946
Cl	3.307916	0.0	0.0
