17

C	-0.424941	0.083298	-1.475784
C	0.0	0.0	0.0
Br	-0.051186	-1.738514	-2.296246
H	1.096115	0.0	0.0
N	-1.801706	0.365605	-1.783295
H	-2.360668	-0.384583	-1.393083
H	-2.035801	1.204009	-1.257882
N	0.388996	1.098636	-2.02432
H	1.377277	0.91893	-1.850202
H	0.200913	1.203321	-3.012579
N	-0.553297	-1.178232	0.722422
O	-1.719	-1.504067	0.489874
O	0.169356	-1.707941	1.563115
N	-0.530086	1.178987	0.690266
H	-0.045017	1.225769	1.582985
H	-0.175875	1.964793	0.150557
Cl	3.35316	0.0	0.0
