14

C	-0.361938	-0.022121	-1.469334
C	0.0	0.0	0.0
Br	-2.321524	0.120999	-1.778928
H	1.093643	0.0	0.0
H	0.068242	0.840874	-1.97489
C	0.071107	-1.263552	-2.094077
N	0.387659	-2.267231	-2.616693
N	-0.42511	-1.084898	0.79411
H	0.331946	-1.749956	0.889652
H	-1.283183	-1.523492	0.489869
N	-0.406769	1.321152	0.545067
O	-0.17031	2.295635	-0.181538
O	-0.859491	1.400663	1.686273
H	2.54068	0.0	0.0
