14

C	-0.472903	-0.020616	-1.46231
C	0.0	0.0	0.0
Br	-0.594929	-1.844197	-2.163336
H	1.093169	0.0	0.0
H	-1.478893	0.391758	-1.557391
C	0.40223	0.724259	-2.369104
N	1.034324	1.302643	-3.172957
N	-0.348691	-1.123612	0.807114
H	0.493319	-1.383459	1.320868
H	-1.051454	-0.85591	1.483914
N	-0.385311	1.264636	0.56828
O	-0.41502	1.36751	1.809213
O	-0.53196	2.232433	-0.212141
H	2.405445	0.0	0.0
