14

C	-0.42255	-0.012795	-1.442833
C	0.0	0.0	0.0
F	-1.814319	-0.1197	-1.560985
H	1.09418	0.0	0.0
H	-0.111923	0.898974	-1.948196
H	0.023279	-0.882046	-1.931059
C	-0.51481	-1.182199	0.793775
H	-0.167862	-2.095865	0.305639
H	-1.604666	-1.192413	0.84003
H	-0.113397	-1.164594	1.804766
N	-0.426546	1.295728	0.631346
O	-0.834827	1.270493	1.792837
O	-0.316951	2.320174	-0.039676
Cl	3.329374	0.0	0.0
