14

C	-0.525529	-0.037792	-1.425208
C	0.0	0.0	0.0
F	-0.188583	-1.263542	-1.993887
H	1.090373	0.0	0.0
H	-0.059606	0.749815	-2.020826
H	-1.610744	0.054613	-1.459069
C	-0.527442	-1.141638	0.850104
H	-0.177572	-2.078124	0.417551
H	-0.128687	-1.064676	1.86266
H	-1.620465	-1.141742	0.879702
N	-0.466212	1.277925	0.625455
O	-1.604817	1.666155	0.3325
O	0.269712	1.844935	1.426838
Cl	3.419817	0.0	0.0
