14

C	-0.522887	-0.083726	-1.411899
C	0.0	0.0	0.0
F	-0.182969	1.051697	-2.131227
H	1.090458	0.0	0.0
H	-1.61201	-0.169141	-1.428573
H	-0.060502	-0.946359	-1.899035
C	-0.486759	-1.175367	0.835392
H	-0.103898	-1.083038	1.85326
H	-0.085968	-2.101741	0.418171
H	-1.578897	-1.225985	0.859303
N	-0.520814	1.249312	0.636701
O	0.24101	1.914063	1.32995
O	-1.717663	1.502818	0.465439
Cl	3.419036	0.0	0.0
