14

C	-0.423029	-0.036923	-1.442451
C	0.0	0.0	0.0
F	-1.816061	-0.137938	-1.557359
H	1.094192	0.0	0.0
H	0.016879	-0.917371	-1.915142
H	-0.109297	0.864125	-1.964339
C	-0.515825	-1.16766	0.814048
H	-0.114376	-1.133331	1.824597
H	-1.605818	-1.175794	0.860211
H	-0.170236	-2.089798	0.34167
N	-0.424948	1.305993	0.608584
O	-0.828545	1.302051	1.771146
O	-0.317851	2.318825	-0.080512
Cl	3.331334	0.0	0.0
