18

C	-0.346129	-0.018999	-1.491632
C	0.0	0.0	0.0
Br	-2.331715	-0.081528	-1.692272
H	1.098382	0.0	0.0
C	0.161925	1.240908	-2.16909
H	-0.305375	2.137839	-1.758905
H	-0.034562	1.202455	-3.243272
H	1.243623	1.294044	-1.99921
C	0.233439	-1.268723	-2.127511
H	1.318939	-1.240504	-1.979457
H	0.008605	-1.291469	-3.196811
H	-0.161125	-2.16165	-1.645874
N	-0.431767	-1.204835	0.695198
H	-1.371389	-1.091192	1.054876
H	0.200384	-1.370471	1.468993
C	-0.45971	1.237513	0.649152
N	-0.823301	2.217552	1.1873
Br	3.475003	0.0	0.0
