18

C	-0.486322	0.00474	-1.466302
C	0.0	0.0	0.0
Br	0.113166	-1.697055	-2.266271
H	1.094651	0.0	0.0
C	-2.000084	0.038623	-1.565265
H	-2.319245	-0.048859	-2.60634
H	-2.425586	-0.783664	-0.98851
H	-2.37069	0.988047	-1.163834
C	0.195115	1.130352	-2.226845
H	-0.055997	1.086256	-3.289205
H	1.278068	1.060739	-2.103972
H	-0.142047	2.093497	-1.829601
N	-0.513853	-1.155646	0.752752
H	0.277801	-1.762963	0.930846
H	-0.876609	-0.857705	1.649106
C	-0.44718	1.245478	0.631201
N	-0.867133	2.22321	1.131103
Br	3.495439	0.0	0.0
