18

C	-0.345067	0.071289	-1.491067
C	0.0	0.0	0.0
Br	-2.330088	0.019043	-1.697077
H	1.1018	0.0	0.0
C	0.162552	1.370983	-2.089936
H	1.24401	1.41335	-1.918409
H	-0.034874	1.39883	-3.164073
H	-0.303923	2.240967	-1.624475
C	0.236277	-1.136958	-2.201759
H	0.013345	-1.093891	-3.270676
H	1.321268	-1.117142	-2.050794
H	-0.157859	-2.058585	-1.776888
N	-0.432784	-1.244487	0.620309
H	0.19078	-1.451344	1.391484
H	-1.377405	-1.155927	0.974342
C	-0.460755	1.196934	0.720177
N	-0.838229	2.14998	1.295961
Br	3.476418	0.0	0.0
