18

C	0.0	0.0	0.0
C	-0.543461	-0.005517	-1.423433
Br	1.926381	0.0	0.0
H	-1.638782	-0.123353	-1.22754
N	-0.424766	1.205807	0.650617
H	-0.177755	1.117614	1.632522
H	-1.450629	1.153031	0.616747
N	-0.609815	-1.209357	0.676936
O	-1.766308	-0.891048	1.195821
O	-0.334908	-2.351964	0.215612
N	0.011974	-1.089656	-2.235286
H	-0.647801	-1.247319	-2.992229
H	-0.001825	-1.927899	-1.656105
C	-0.347705	1.312865	-2.150398
H	-0.816486	2.139765	-1.6165
H	0.719074	1.518822	-2.27089
H	-0.797485	1.235916	-3.148406
H	-2.890419	0.0	0.0
