18

C	0.0	0.0	0.0
C	-0.47128	-0.051444	-1.466433
Br	1.925579	0.0	0.0
H	-1.514953	0.196156	-1.417304
N	-0.353931	1.160599	0.818019
H	-0.090555	1.911034	0.144934
H	-1.332755	1.077828	0.810973
N	-0.50826	-1.004244	0.572686
O	-1.711369	-1.562959	0.505936
O	0.049686	-2.351353	0.822882
N	-0.161398	-1.303451	-2.073082
H	-0.530635	-1.307842	-2.942495
H	-0.644365	-1.956478	-1.451732
C	0.127297	1.068136	-2.318977
H	1.210294	0.885401	-2.527851
H	0.022475	2.129993	-1.883494
H	-0.403588	1.165227	-3.358271
H	-2.84714	0.0	0.0
