18

C	0.0	0.0	0.0
C	-0.474344	-0.092599	-1.459064
Br	1.94631	0.0	0.0
H	-1.507148	-0.448796	-1.324456
N	-0.597608	1.004984	0.776991
H	-1.640641	0.780819	0.663928
H	-0.412467	1.90432	0.348481
N	-0.355386	-1.333853	0.730466
O	-0.255588	-1.325544	1.948805
O	-0.690801	-2.294579	0.050125
N	0.305904	-1.037202	-2.254987
H	-0.313766	-1.497906	-2.911683
H	1.01909	-0.54022	-2.781667
C	-0.55663	1.29995	-2.082849
H	0.397615	1.835091	-2.002796
H	-1.351676	1.887397	-1.621368
H	-0.792485	1.192341	-3.144834
H	-3.000886	0.0	0.0
