18

C	0.0	0.0	0.0
C	-0.483697	-0.152267	-1.439259
Br	1.983751	0.0	0.0
H	-1.527815	-0.474646	-1.28924
N	-0.666615	1.023324	0.639357
H	-1.734485	0.742732	0.45395
H	-0.48793	0.969813	1.638961
N	-0.263121	-1.362332	0.769897
O	-0.052748	-1.324257	1.981119
O	-0.711689	-2.327138	0.167408
N	0.269038	-1.16422	-2.173992
H	-0.373527	-1.720692	-2.720877
H	0.923657	-0.713778	-2.802881
C	-0.518353	1.20181	-2.138069
H	-0.85784	1.053027	-3.168483
H	-1.202335	1.883362	-1.635219
H	0.47831	1.655414	-2.158203
H	-2.940847	0.0	0.0
