18

C	0.0	0.0	0.0
C	-0.525784	-0.015951	-1.434695
Br	1.957377	0.0	0.0
H	-1.597488	-0.243591	-1.265247
N	-0.633305	0.992827	0.729355
H	-0.433238	0.868876	1.716852
H	-1.679786	0.780591	0.563072
N	-0.274141	-1.414704	0.684272
O	-0.299778	-1.411731	1.909889
O	-0.428321	-2.413518	-0.011925
N	0.166339	-0.957946	-2.317722
H	-0.215896	-0.818518	-3.245147
H	-0.076022	-1.897262	-2.029959
C	-0.421448	1.372774	-2.044499
H	-0.9513	2.104468	-1.439029
H	-0.87189	1.356002	-3.043358
H	0.627604	1.666381	-2.142557
H	-3.016579	0.0	0.0
