18

C	0.0	0.0	0.0
C	-0.293525	0.22667	-1.527529
Br	1.967016	0.0	0.0
H	0.53912	0.843328	-1.877217
N	-0.521533	1.050458	0.760879
H	-0.325606	0.948649	1.746671
H	-0.368699	1.968247	0.377576
N	-0.620792	-1.213786	0.549143
O	-1.79171	-1.39881	-0.015765
O	-0.353919	-1.468087	1.756067
N	-1.496666	1.033164	-1.717924
H	-2.242185	0.624264	-1.124315
H	-1.791243	0.920895	-2.683351
C	-0.243219	-1.073747	-2.333661
H	-0.181731	-0.820362	-3.398551
H	0.635502	-1.673056	-2.077534
H	-1.13975	-1.658493	-2.141923
H	-3.019933	0.0	0.0
