18

C	0.0	0.0	0.0
C	-0.313793	-0.136201	-1.553977
Br	1.982389	0.0	0.0
H	-1.330348	-0.508621	-1.603044
N	-0.207442	1.28842	0.609935
H	0.394232	1.356219	1.414973
H	-1.180777	1.291601	0.90222
N	-0.407196	-1.173734	0.788991
O	-0.281283	-1.081098	2.02849
O	-0.489095	-2.25558	0.179676
N	0.518586	-1.04631	-2.344409
H	0.644571	-1.911804	-1.810105
H	1.446142	-0.62923	-2.43381
C	-0.265437	1.243972	-2.214586
H	-0.444384	1.112102	-3.284397
H	0.701122	1.723211	-2.057605
H	-1.03154	1.889218	-1.785651
H	-2.07768	0.0	0.0
