14

C	0.004852	0.008223	-0.006924
C	-0.42147	0.474576	-1.40533
F	1.407459	-0.009237	0.013543
H	-0.075283	-0.250587	-2.145254
H	-1.52463	0.482182	-1.374264
N	-0.421002	0.867902	1.061523
H	-1.449351	0.811745	1.030895
H	-0.141373	1.825619	0.869574
N	-0.490021	-1.321107	0.156828
H	-1.519895	-1.204347	0.08869
H	-0.307603	-1.564144	1.127302
C	0.095638	1.797933	-1.725666
N	0.506662	2.869687	-1.974595
H	-2.993635	-0.059951	0.074366
