14

C	0.005171	-0.003291	-0.008329
C	-0.418358	-0.254266	-1.46178
F	1.407731	0.014304	0.016539
H	-1.521526	-0.268688	-1.433976
H	-0.072807	0.574825	-2.083404
N	-0.493299	1.284952	0.353449
H	-0.312759	1.379029	1.349792
H	-1.522708	1.17749	0.266711
N	-0.419731	-1.015254	0.917468
H	-0.137659	-1.932509	0.583832
H	-1.448212	-0.957224	0.894233
C	0.101945	-1.513276	-1.977027
N	0.514613	-2.535004	-2.38363
H	-2.993617	0.04287	0.07925
