8
Coordinates from ORCA-job run
  C   -0.02644494769711      0.45400272257525      0.01053713206878
  C   1.17685162621499     -0.10657979777622     -0.18725861571683
  H   -0.14336400728139      1.53171239861644     -0.07499637731284
  H   2.03337055659610      0.50971468114411     -0.42275865681484
  H   1.33361865344045     -1.17678094745687     -0.09726500055914
  N   -1.18646834420901     -0.20105176621940      0.42622847896683
  H   -1.15364500227491     -1.20145075141061      0.29651486511151
  H   -2.03491853478912      0.19043346052730      0.04899817425654
