8
Coordinates from ORCA-job run
  C   -0.02516807928397      0.33138934174711     -0.31007711202117
  C   1.19148336519716     -0.09028225653516      0.06912027059836
  H   -0.12058769909833      1.19990069671633     -0.95749366668883
  H   2.07777024310328      0.42147924197425     -0.27951798055087
  H   1.32548036034138     -0.96148625523316      0.70239962754577
  N   -1.24188664416528     -0.29321286197339     -0.03368948032672
  H   -1.19463065135407     -0.95188336882664      0.72956305247877
  H   -2.01346089474017      0.34509546213066      0.07869528896468
