8
Coordinates from ORCA-job run
  C   -0.01868996456847      0.45456635836438     -0.02258773253805
  C   1.16575735660838     -0.14260679748205     -0.22778169865873
  H   -0.07425317445527      1.53795719860120      0.05199050987028
  H   2.06395004258607      0.44942126647990     -0.33562562451558
  H   1.25652086103981     -1.22028310218161     -0.31926648585217
  N   -1.26472483569468     -0.17240545955931      0.02154402436451
  H   -1.91803908571414      0.26248194690906      0.65364691209012
  H   -1.21052119980169     -1.16813141113157      0.17708009523963
