8
Coordinates from ORCA-job run
  C   -0.03515974886091      0.39603689201781     -0.22185494312926
  C   1.19328180305813     -0.07691328186128      0.04044419911928
  H   -0.15553880341377      1.27484613916994     -0.85079715511795
  H   2.06586874884975      0.42039125184454     -0.35985187585987
  H   1.35175107066329     -0.94314843966843      0.67486293374265
  N   -1.23434651774606     -0.07364511181539      0.31572109260311
  H   -1.16454718793535     -1.00009403576560      0.71000563756401
  H   -2.02030936461508      0.00052658607842     -0.31052988892198
