12

C	-0.499595	0.020192	-1.419922
C	0.0	0.0	0.0
F	-1.893555	0.076691	-1.444716
H	1.091674	0.0	0.0
H	-0.124339	0.905628	-1.934666
H	-0.394157	-0.8434	0.563346
C	-0.088717	-1.195123	-2.136871
N	0.179462	-2.168153	-2.735342
N	-0.451591	1.232456	0.697557
O	-0.787926	1.118742	1.873654
O	-0.427879	2.286049	0.065933
Br	3.422709	0.0	0.0
