12

C	-0.50043	0.018706	-1.419643
C	0.0	0.0	0.0
F	-1.892555	0.104392	-1.444751
H	1.091635	0.0	0.0
H	-0.106378	0.891705	-1.941328
H	-0.395641	-0.839038	0.568676
C	-0.116571	-1.210825	-2.127958
N	0.129962	-2.191726	-2.723056
N	-0.444761	1.238307	0.690718
O	-0.413895	2.289236	0.053231
O	-0.782502	1.134607	1.867238
Br	3.417277	0.0	0.0
