12

C	-0.513608	0.038163	-1.414161
C	0.0	0.0	0.0
F	-1.900835	0.16827	-1.420558
H	1.092052	0.0	0.0
H	-0.099217	0.942129	-1.87153
H	-0.345569	0.887382	0.530437
C	-0.150197	-1.097262	-2.275531
N	0.171267	-1.943016	-3.022076
N	-0.505594	-1.157831	0.781314
O	-0.610295	-0.992166	1.99233
O	-0.763076	-2.198426	0.182832
Br	3.426404	0.0	0.0
