12

C	-0.592643	0.149253	-1.383385
C	0.0	0.0	0.0
F	-0.117243	-0.839457	-2.221478
H	1.090298	0.0	0.0
H	-1.680608	0.037591	-1.335215
H	-0.376207	0.798953	0.643931
C	-0.295507	1.475184	-1.94581
N	-0.179348	2.558166	-2.379966
N	-0.532675	-1.271007	0.576479
O	0.255633	-2.150875	0.896567
O	-1.762572	-1.339749	0.688843
Br	3.512633	0.0	0.0
