16
Coordinates from ORCA-job run
  C   0.96189285231622     -0.09937080321063      0.24001836942539
  C   -0.56906712852652     -0.03649398606793      0.36317016330885
  Cl  1.67320860818740     -1.25356074836391      1.38651693791024
  H   -0.77252112576030      0.11222732094303      1.42839632501514
  C   1.37814164247510     -0.41771918680283     -1.11755825168942
  N   1.64707913760850     -0.74588508583711     -2.21336585289864
  N   1.52514360964982      1.27962205384004      0.61420531169601
  O   2.47238723041835      1.69301360905120     -0.03694055587813
  O   0.98776492746590      1.82802507523017      1.56662123257983
  C   -1.21584580837845     -1.32392007906909     -0.12056871682043
  H   -1.05607116862364     -1.45071025487782     -1.19440231291752
  H   -2.29054548899403     -1.27520721975154      0.06763077200983
  H   -0.81965433922388     -2.19914214234182      0.39450224286729
  N   -0.97146045362630      1.10355532584891     -0.44257520156419
  H   -1.21084260621319      1.90361784787678      0.12569939054422
  H   -1.73960988877499      0.88194827353255     -1.05934985358848
