16
Coordinates from ORCA-job run
  C   0.81235748455404      0.51086235783893      0.29730894781192
  C   -0.39021089127168     -0.45227738839551      0.07038242640762
  Cl  0.31577746678062      2.07369534805958      0.91333310695800
  H   0.06486383190325     -1.34659336447173     -0.37357286176758
  C   1.76606394424235     -0.10516205695709      1.21094746702869
  N   2.49636753797773     -0.63647174214705      1.96280841036146
  N   1.51336019442219      0.66280623818254     -1.06678226350461
  O   2.08247397965871     -0.35690596757721     -1.44117626922947
  O   1.39284787647989      1.70891248543210     -1.68174881832781
  C   -1.40085278580455      0.13184641113015     -0.90278969725339
  H   -1.89319866959468      1.00370379102219     -0.46822133128964
  H   -0.94591877940154      0.43087425525042     -1.84801942920910
  H   -2.15766115401817     -0.62530344765695     -1.11941370485250
  N   -0.97309892387614     -0.72294886200139      1.36554638822498
  H   -0.70294985875703     -1.62588065833274      1.72725144139623
  H   -1.97922125329499     -0.64915739937623      1.35314618724519
