16
Coordinates from ORCA-job run
  C   0.95621072665907      0.05703862672196      0.47753300730387
  C   -0.56464316637966     -0.22888846836837      0.43227858642553
  Cl  1.42823232445242      0.53283241881691      2.11417650836017
  H   -0.72103366279540     -0.94333083758638      1.25537288899106
  C   1.74563912476477     -1.09671610834487      0.07025364987675
  N   2.35042698756549     -2.06011104642246     -0.22587402975006
  N   1.25764755989094      1.20823709035486     -0.50186958861512
  O   1.25733742896556      0.85933344310095     -1.67661388482233
  O   1.41822890119182      2.32811354149983     -0.05895344931597
  C   -1.02008640938384     -0.87883960688633     -0.86622480200388
  H   -0.44475167852371     -1.77536204378342     -1.09849372697695
  H   -2.06715374026864     -1.17314028297144     -0.75398637454157
  H   -0.94004063538219     -0.17972755233113     -1.69779288019953
  N   -1.24655110917177      1.03912311108503      0.60689075621886
  H   -2.22313559545639      0.94340895075859      0.36165209425526
  H   -1.18732705612847      1.36702876435628      1.56265124479390
