16
Coordinates from ORCA-job run
  C   0.90579784842521      0.40190699562290      0.13520515663592
  C   -0.46117230665888     -0.30363956084201      0.28653621914142
  Cl  0.73142209748679      2.14946260854121      0.02121622717380
  H   -0.20747843318211     -1.36121463440834      0.41153220593892
  C   1.78873539335955      0.06661361562836      1.24440728163658
  N   2.50341323578530     -0.21213288161504      2.13437699460734
  N   1.54766525419944     -0.15595669331373     -1.15162867297871
  O   1.86149953860737     -1.33725703108195     -1.06261960529454
  O   1.62429310843622      0.55851803236126     -2.13595401089692
  C   -1.33307860514154     -0.13849976449444     -0.95406322934801
  H   -2.28321306199345     -0.64748419794072     -0.77889552242256
  H   -1.54005835343331      0.91537916906939     -1.15193213007322
  H   -0.88118970964466     -0.57532940635620     -1.84727548146019
  N   -1.03695418476741      0.16522930049080      1.53181355218913
  H   -1.57333794213986      1.01165742980828      1.38672546234879
  H   -1.64534387933866     -0.53725298146975      1.92955555280227
