16
Coordinates from ORCA-job run
  C   0.85389180555647      0.35904593903154      0.37759229415482
  C   -0.38899627346861     -0.48445237843124      0.01103319159782
  Cl  0.44253504456004      1.70866514028678      1.42898230572823
  H   0.01160533913614     -1.31235210805677     -0.58253920592877
  C   1.87166950532836     -0.46766274897549      1.01260688229317
  N   2.69383319154438     -1.13796586244949      1.51758136812171
  N   1.44148515356586      0.87626451922889     -0.95144125309131
  O   1.91140776318562     -0.01346819006435     -1.65106352702113
  O   1.33668317418490      2.05842111652751     -1.22858191127309
  C   -1.38812425411026      0.30199489393276     -0.83105224616061
  H   -2.24183689139672     -0.34348174171108     -1.04759346294418
  H   -1.75045668308634      1.18025268523459     -0.29249302018754
  H   -0.96838248437798      0.63031125402258     -1.78428468748637
  N   -0.90174850953598     -1.03242941017101      1.25142961260723
  H   -1.56955912164440     -0.40267285825135      1.67822624059205
  H   -1.35400675944148     -1.92147025015387      1.08959741899795
