16
Coordinates from ORCA-job run
  C   0.91976360686585     -0.11814388357169      0.27493519466516
  C   -0.63125017427549     -0.07698803459695      0.36666642051120
  Cl  1.61710516437300     -1.32692177643208      1.36190633869821
  H   -0.84350236879898      0.03390816037987      1.43444536143669
  C   1.36310552993598     -0.35031037815337     -1.09158118666681
  N   1.62682568824099     -0.58496826874187     -2.21301826639271
  N   1.41800976724145      1.25914077467650      0.72977869285725
  O   1.99930200178103      1.94938029755489     -0.09809650807153
  O   1.12310467345085      1.57116319117921      1.87413094640940
  C   -1.23984419797271     -1.36536125728421     -0.16317996935031
  H   -2.31772237794871     -1.32113835409225     -0.00618607111664
  H   -1.05643786718641     -1.46611966681413     -1.23638190205864
  H   -0.84293074611464     -2.24634054570125      0.34095138502539
  N   -1.19825610563952      1.05329498760961     -0.32599316404083
  H   -0.93587349656286      1.94479158014345      0.07156133373701
  H   -1.00139909738982      1.04261317384427     -1.31893860564284
