16
Coordinates from ORCA-job run
  C   0.82136499291773      0.44453605180067      0.08937608133562
  C   -0.51459549271913     -0.35414303164064      0.25746427641719
  Cl  0.53871768682582      2.15427043619494     -0.21348310220971
  H   -0.18540504529127     -1.38040558924940      0.45204478251726
  C   1.64370977590471      0.28769061083041      1.28149891523065
  N   2.23368026560119      0.15174629827277      2.28916579820958
  N   1.57825021908750     -0.19306049552507     -1.08710472022270
  O   1.99810801910418     -1.31794474076917     -0.83902855381539
  O   1.63182537252980      0.40198360024160     -2.14934752731417
  C   -1.34252646979836     -0.32398674037873     -1.01727675354140
  H   -0.80782052044966     -0.74430962782934     -1.87017809713262
  H   -2.24051158019501     -0.91716327464695     -0.84391217331566
  H   -1.64572737167091      0.69434912668344     -1.26895923119792
  N   -1.30148642757047      0.08019467875117      1.38174300688309
  H   -1.60012349352084      1.04167231327228      1.27811218963411
  H   -0.80845993075527     -0.02442961600799      2.25988510852206
