16
Coordinates from ORCA-job run
  C   0.99693763447971      0.07232601640790      0.38752065619076
  C   -0.51388482995074     -0.21722499545641      0.53944181322571
  Cl  1.69654335427694      0.75340335325701      1.86068956573291
  H   -0.53752638233497     -1.03040409261628      1.27427546698678
  C   1.71274378726348     -1.15322252751486      0.04524619206616
  N   2.22050850286284     -2.18639216839917     -0.19126356173711
  N   1.26662673325070      1.08909358538011     -0.73361231188594
  O   0.42677224331767      1.96709504995985     -0.88531612602629
  O   2.31146438844098      0.96104032905174     -1.35664103742101
  C   -1.09256611013461     -0.73633792798955     -0.78057296570807
  H   -0.52903470219245     -1.57924576354331     -1.18804597041196
  H   -2.11554892896769     -1.07419646220302     -0.60232604967530
  H   -1.12971414612974      0.05992826393410     -1.52658122892864
  N   -1.20907213562595      0.90383343938504      1.13220572551944
  H   -2.04794360786357      0.58128950679971      1.59440334470509
  H   -1.45530580069261      1.58901439354715      0.43157648736747
