16
Coordinates from ORCA-job run
  C   0.90515504108619     -0.07546347934133      0.32806295109017
  C   -0.64880069988917     -0.07739893206369      0.33761984370314
  Cl  1.57794296470696     -1.20242323408287      1.51396870656773
  H   -0.92027453939941      0.08226811195756      1.38557494820280
  C   1.42657082499764     -0.36542088227321     -0.99958415543797
  N   1.76542305485230     -0.64165141509183     -2.09117551332522
  N   1.34143523888403      1.33874144175063      0.73242008836987
  O   1.96234239937133      1.99576827635106     -0.09377249958243
  O   0.96896641757010      1.70563555593786      1.83722240363528
  C   -1.19182526987228     -1.40973142246436     -0.15317302318328
  H   -2.27743698214473     -1.39054399138395     -0.05560153465601
  H   -0.94802947851007     -1.56110513727162     -1.20827939404883
  H   -0.79818711100140     -2.25035636892090      0.41798333677250
  N   -1.20917255693493      0.99738051351299     -0.44325235356754
  H   -0.98975006824472      1.91612543158044     -0.08347487743900
  H   -0.96335923547184      0.93817553180322     -1.42353892710118
