16
Coordinates from ORCA-job run
  C   0.92956952248047      0.21922717685026      0.29828567134726
  C   -0.47597693476092     -0.39006409487059      0.09188664983410
  Cl  0.85997891153023      1.74747363731778      1.16788006516762
  H   -0.28471718336881     -1.35363612997994     -0.39126649456678
  C   1.79971706165716     -0.71077219843306      1.00533949306960
  N   2.50287981846381     -1.46487199821851      1.56867813461351
  N   1.52526307791698      0.43211737311403     -1.10853504516092
  O   1.62939833954540      1.56535253024509     -1.54470637006377
  O   1.77390218300870     -0.61621970793509     -1.69254461756076
  C   -1.34552530699148      0.46782818655705     -0.82150168422420
  H   -2.32480214966896     -0.00684175194810     -0.91260650127536
  H   -1.48668912011254      1.46752365440220     -0.40508133230670
  H   -0.92939014949022      0.56742878496243     -1.82632513356903
  N   -1.01341276119438     -0.65509087602206      1.41244303050833
  H   -1.66347998148100     -1.42864943267593      1.38236910024949
  H   -1.49671532753442      0.15719484663445      1.77568503393764
