16
Coordinates from ORCA-job run
  C   0.97447762089395      0.04986249267864      0.43981820835244
  C   -0.54947948135552     -0.22233201508004      0.45489990433794
  Cl  1.51461712267222      0.52758451391449      2.05446411335321
  H   -0.68008061290567     -0.93245264379686      1.28621182644567
  C   1.73687826219572     -1.11257707296880      0.00645416173711
  N   2.32096856157427     -2.08255784526100     -0.30893552441748
  N   1.24783565702702      1.19458213602773     -0.55559626036448
  O   1.19948427669809      0.84111827139202     -1.72794701159138
  O   1.43496532571811      2.31474683773065     -0.12399552098275
  C   -1.06073681674085     -0.87214858181978     -0.82261364667662
  H   -0.50357674242648     -1.77501744797652     -1.07379259912285
  H   -2.10562801409064     -1.15562496373119     -0.66965075083203
  H   -1.00577637424116     -0.17642195568176     -1.65906726095760
  N   -1.21271742777961      1.05249052062470      0.65114233844801
  H   -1.11194747933448      1.38361764183788      1.60234839193771
  H   -2.19928387790498      0.96413011210984      0.44625963033311
