16
Coordinates from ORCA-job run
  C   0.95638335643079      0.01289938391625      0.47813823970442
  C   -0.57399467252407     -0.21549844279283      0.42777451093454
  Cl  1.44525780550774      0.44184615082495      2.12247691849555
  H   -0.75731078714315     -0.93825840257370      1.23796525462326
  C   1.70295449152141     -1.16167566976968      0.04991946974662
  N   2.28176305630490     -2.13807497219566     -0.25534614827129
  N   1.30068413981227      1.16943616807464     -0.48113927345127
  O   1.50205316567467      2.27468405429207     -0.01862028547091
  O   1.28903236348870      0.84137526943231     -1.66179649658745
  C   -1.05145882412506     -0.82469731538450     -0.88244652045910
  H   -2.10905279833622     -1.08141492579322     -0.77687389638764
  H   -0.50979934129375     -1.73796457887010     -1.13009859545775
  H   -0.94357559500392     -0.11451022123104     -1.70140549968251
  N   -1.20879921220656      1.07360946636122      0.62497216665387
  H   -2.18831447427606      1.01762726574006      0.37888107315616
  H   -1.13782267383170      1.38161676996924      1.58659908245349
