16
Coordinates from ORCA-job run
  C   0.95633768918516     -0.05347936621084      0.27825311042089
  C   -0.57936578655709     -0.03852792925988      0.34383106251827
  Cl  1.66295307293104     -1.12735455745178      1.50315284732238
  H   -0.82667949353444      0.15528063796519      1.39222288845451
  C   1.43295437031205     -0.42079045840503     -1.04683108853648
  N   1.75566423793686     -0.79342732955348     -2.11353144967137
  N   1.45636869537065      1.36111271470116      0.60518222185225
  O   0.87429228727940      1.92738382715686      1.51995895830105
  O   2.40180673807467      1.78485751000684     -0.04206936334022
  C   -1.16631643549316     -1.36959958849029     -0.09635654378058
  H   -0.96223323613590     -1.54512385445364     -1.15586562112819
  H   -2.24837929521022     -1.34697671881671      0.04977631961503
  H   -0.76248931885574     -2.20443948272718      0.47669749158450
  N   -0.98936194391922      1.04901049573489     -0.52775507678075
  H   -1.30026115075795      1.85682693320210     -0.00761356407946
  H   -1.70629043062611      0.76624716660181     -1.18005219275180
