16
Coordinates from ORCA-job run
  C   0.91363869232308     -0.04423669985483      0.31371746387987
  C   -0.63919516481949     -0.08954027011318      0.34935168051024
  Cl  1.63805413163553     -1.13465310222415      1.50369209237512
  H   -0.89879050772369      0.07918085267897      1.39894115827077
  C   1.42112647958682     -0.34010294762182     -1.01782768061121
  N   1.74030954886603     -0.63324091794395     -2.11067263373472
  N   1.31486637579479      1.38732800951700      0.68997101925838
  O   0.96007658772874      1.75593077157299      1.80001165571367
  O   1.88615661010909      2.05495279456763     -0.16302084478776
  C   -1.15314721640460     -1.44401978876007     -0.11117376113644
  H   -0.72394460527998     -2.26463757485061      0.46350697223421
  H   -0.92672239028360     -1.60403097330330     -1.16881552230981
  H   -2.23657771159620     -1.45454526236978      0.00928121010211
  N   -1.24244603048768      0.95643412985439     -0.43881237506099
  H   -1.00730081784238      0.89040515679719     -1.42124988694383
  H   -1.04610398160643      1.88677582205353     -0.09590054775962
