16
Coordinates from ORCA-job run
  C   0.83304014236153      0.38156949069393      0.20125383016700
  C   -0.52016266574808     -0.40451513576817      0.15101724777574
  Cl  0.58863805272277      2.10931467240203      0.42530959632294
  H   -0.21364940550127     -1.44844147590837      0.02575363500069
  C   1.66653194039589     -0.13871826560365      1.27666198975934
  N   2.26653011237789     -0.57947127582353      2.18644788163489
  N   1.55856148159556      0.10777749379388     -1.12621289834564
  O   1.95215955749563     -1.04857996860561     -1.23222704217533
  O   1.61453077893305      0.99096010639080     -1.96413668041360
  C   -1.36299226722218      0.01927729097132     -1.04117974540243
  H   -2.27375669659545     -0.57971514813002     -1.03355542158754
  H   -1.64293330124450      1.07258616973927     -0.97466984410682
  H   -0.85009332167309     -0.14119375934551     -1.99051685463345
  N   -1.28143474983554     -0.30815255036344      1.36862698527610
  H   -0.78044096451040     -0.67907361444549      2.16646709953144
  H   -1.55752869355182      0.64637597000254      1.56096022119668
