16
Coordinates from ORCA-job run
  C   0.96305128597386      0.01422812814193      0.46718701812612
  C   -0.56543013937784     -0.22907747478393      0.43123410032328
  Cl  1.46760949488007      0.41961825054040      2.11283302767508
  H   -0.73157336025824     -0.96792025357442      1.23058368154071
  C   1.71583933505726     -1.14503429847035      0.00940786776652
  N   2.29129158637588     -2.11254871991017     -0.32874387076542
  N   1.28393103209789      1.19075782330826     -0.47571549028283
  O   1.26123409418294      0.88316090129797     -1.66169481387228
  O   1.47896338651108      2.28994339184891      0.00370678438029
  C   -1.05337681356726     -0.81913518941314     -0.88385704309884
  H   -0.96564316540688     -0.09155158052191     -1.68982508394650
  H   -2.10623751620171     -1.09083957451201     -0.76907821581802
  H   -0.50415472590821     -1.72035301520282     -1.15718634159134
  N   -1.21070284598552      1.04969671168525      0.65929371737917
  H   -1.13008510410628      1.34199986354328      1.62503948734072
  H   -2.19271654426703      0.98805503602274      0.42481517484336
