19

C	0.0	0.0	0.0
C	-0.660973	0.177459	-1.356967
F	1.361854	0.0	0.0
H	-1.724042	0.414146	-1.101857
N	-0.309939	1.2569	0.833134
O	-0.723494	1.126385	1.976679
O	-0.032531	2.324221	0.292399
C	-0.543467	-1.204248	0.705645
H	-0.170119	-1.226893	1.728676
H	-0.215703	-2.103103	0.180894
H	-1.643934	-1.111891	0.689065
C	-0.620065	-1.073149	-2.21662
H	0.385848	-1.494751	-2.277301
H	-1.320768	-1.800717	-1.80644
H	-0.958348	-0.82204	-3.224334
N	-0.077047	1.287198	-2.166308
O	-0.825266	2.192801	-2.519906
O	1.104011	1.18318	-2.498768
H	-3.208854	0.0	0.0
