19

C	0.0	0.0	0.0
C	-0.229669	-0.048854	-1.547708
F	1.366398	0.0	0.0
H	0.464274	0.708518	-1.909175
N	-0.632943	1.228288	0.508018
O	-0.580348	2.223269	-0.281673
O	-0.632819	1.36473	1.763323
C	-0.305574	-1.189204	0.900164
H	0.20385	-0.990045	1.844754
H	0.106606	-2.095915	0.455068
H	-1.368909	-1.305796	1.068435
C	-1.561697	0.143143	-2.23641
H	-1.990419	1.078494	-1.887706
H	-2.247273	-0.672459	-2.032977
H	-1.366364	0.20969	-3.318137
N	0.361123	-1.339328	-2.046331
O	1.485483	-1.30709	-2.549486
O	-0.322249	-2.360522	-1.947577
H	-2.221233	0.0	0.0
