19

C	0.0	0.0	0.0
C	-0.232914	-0.030431	-1.546299
F	1.366232	0.0	0.0
H	0.493556	0.697841	-1.905289
N	-0.636174	1.21258	0.536447
O	-0.584416	2.22478	-0.23015
O	-0.635583	1.322761	1.793753
C	-0.291819	-1.214309	0.874286
H	0.181476	-1.006569	1.834918
H	-1.352666	-1.382038	1.010964
H	0.17559	-2.093561	0.429209
C	-1.553503	0.220895	-2.239198
H	-2.266228	-0.577075	-2.061781
H	-1.34742	0.305991	-3.317404
H	-1.955666	1.161931	-1.872297
N	0.305729	-1.344648	-2.045356
O	-0.426024	-2.33334	-1.967377
O	1.442616	-1.363348	-2.5192
H	-2.198825	0.0	0.0
