19

C	-0.312572	-0.034962	-1.469633
C	-0.010074	-0.002477	0.035976
F	-0.152361	-1.322898	-1.928275
H	1.086774	-0.029576	0.057206
N	-1.800342	0.250003	-1.666207
O	-2.587464	-0.677043	-1.462928
O	-2.137536	1.406858	-1.917397
C	0.5438	0.883341	-2.290923
H	0.329582	1.926667	-2.070596
H	1.582474	0.659285	-2.001127
H	0.372545	0.696565	-3.354435
N	-0.513103	-1.1621	0.761471
H	-1.465319	-1.366049	0.473985
H	0.053372	-1.958749	0.494812
C	-0.490991	1.278174	0.69671
H	-0.124589	2.168216	0.181818
H	-1.584999	1.328984	0.743774
H	-0.105806	1.286613	1.717394
H	2.957395	0.051953	-0.420144
