19

C	-0.549224	0.104508	-1.491068
C	0.130874	0.061128	-0.124836
F	-1.900347	-0.106703	-1.349401
H	1.204863	0.24523	-0.282468
N	-0.412763	1.509304	-2.056911
O	-1.41438	2.211966	-2.155572
O	0.729755	1.856463	-2.350889
C	-0.001879	-0.87682	-2.492809
H	-0.589456	-0.838108	-3.414016
H	-0.06931	-1.859328	-2.028878
H	1.04161	-0.649254	-2.705986
N	0.020111	-1.287663	0.392173
H	-0.788352	-1.334968	1.005605
H	0.885727	-1.390025	0.999642
C	-0.400787	1.1385	0.817456
H	0.146339	1.028552	1.755279
H	-1.470039	0.994254	1.001529
H	-0.248371	2.155441	0.440406
H	2.247472	-1.077351	1.761114
