12

C	-0.617341	0.026983	-1.382477
C	0.0	0.0	0.0
Br	0.07581	-1.581967	-2.405037
H	1.088762	0.0	0.0
H	-0.364983	0.878922	0.539299
H	-0.345867	-0.90122	0.515127
N	-2.044432	0.022631	-1.311816
H	-2.350698	-0.763921	-0.751771
H	-2.456592	-0.050637	-2.234179
C	-0.197693	1.183465	-2.178122
N	0.10818	2.142226	-2.783944
Cl	3.513427	0.0	0.0
