12

C	-0.3358	0.085217	-1.481215
C	0.0	0.0	0.0
Br	-2.24825	0.615807	-1.717723
H	1.09402	0.0	0.0
H	-0.416878	-0.882404	0.485942
H	-0.346277	0.905175	0.503974
N	0.472872	1.038792	-2.213552
H	0.375693	1.937864	-1.750057
H	1.445308	0.75509	-2.065213
C	-0.220399	-1.227379	-2.128763
N	-0.122163	-2.28551	-2.629824
Cl	3.438602	0.0	0.0
