12

C	-0.613277	0.033914	-1.386222
C	0.0	0.0	0.0
Br	-0.02478	-1.529561	-2.426157
H	1.089478	0.0	0.0
H	-0.372121	-0.890236	0.50993
H	-0.34171	0.889217	0.543134
N	-2.063259	-0.053338	-1.303582
H	-2.389337	0.696442	-0.701574
H	-2.475193	0.072646	-2.222102
C	-0.182122	1.21506	-2.154605
N	0.076827	2.201682	-2.738827
Cl	3.497425	0.0	0.0
