11
Coordinates from ORCA-job run
  C   0.01361206739313      0.40688723033965     -0.04421616177269
  C   -1.14779281227631     -0.56770954917683      0.00565960288313
  Br  -0.47935801892262      2.00931899192285     -1.01043887524714
  H   -1.42522831517358     -0.85847581677297     -1.00804959259340
  H   -0.86274949431058     -1.45230063434281      0.57302626275995
  H   -1.99746404132005     -0.08197810793643      0.48526618955375
  C   0.48542648402742      0.77590884827989      1.28482948709658
  N   0.84719869838148      1.04218847380772      2.37148362316517
  N   1.23279410656769     -0.26089489370201     -0.74515603145806
  O   2.00896376187528      0.45314564917631     -1.35450774629515
  O   1.32459756375812     -1.46709019159539     -0.55689675809214
