11
Coordinates from ORCA-job run
  C   0.06530965105304      0.37917349018868      0.03103321865862
  C   -1.17339382166749     -0.47531571533347     -0.12897100332016
  Br  -0.17840363840110      2.11954854427710     -0.80486364993498
  H   -0.98833394498901     -1.46196134569088      0.30270706278077
  H   -2.00442830499937     -0.00319991252841      0.39547877583033
  H   -1.41590516298704     -0.58151644599500     -1.18427469217631
  C   0.43045710558964      0.57194835189902      1.42678381286679
  N   0.64962810194887      0.70168459996271      2.57434749234391
  N   1.25855884857574     -0.27219697112029     -0.69343049879959
  O   2.36534896490075     -0.08292465757250     -0.20943036169329
  O   0.99116220097598     -0.89523993808696     -1.71038015655609
