11
Coordinates from ORCA-job run
  C   0.09335452946410      0.37279681026771      0.03030378624472
  C   -1.20414124458060     -0.38671322099250     -0.14267695701351
  Br  -0.00869581792701      2.12274709276060     -0.81552711927188
  H   -1.10020706899424     -1.38165109556477      0.29708413396263
  H   -2.00403555652545      0.15042173377984      0.36738551243923
  H   -1.43920688216476     -0.48109372856702     -1.20078166763148
  C   0.45386913366383      0.54461429398996      1.43000079689366
  N   0.66704749673920      0.66338910040934      2.57988010429429
  N   1.24348898743615     -0.36915466773932     -0.67583381631439
  O   0.94328278316865     -0.97623074704075     -1.69332156354719
  O   2.35524363972013     -0.26012557130310     -0.17851321005609
