11
Coordinates from ORCA-job run
  C   0.06897772151746      0.42926808541575      0.00641352726286
  C   -1.14428973479553     -0.48506698569762     -0.07432218459555
  Br  -0.28328637025016      2.12812429846502     -0.84498474232385
  H   -1.40162183396370     -0.65008079950900     -1.12171231658225
  H   -1.98737192001728     -0.02108718999690      0.43715188499985
  H   -0.90443167869111     -1.43591351561094      0.40727416219031
  C   0.49328449242879      0.67152025024565      1.37753472071163
  N   0.77699288100946      0.87760799303650      2.49943519928906
  N   1.21331356984334     -0.30287692970558     -0.72905042167154
  O   1.33115633016317     -0.11981446968798     -1.92781550500554
  O   1.83627654275555     -1.09268073695491     -0.02992432427498
