16

C	0.0	0.0	0.0
C	-0.563877	0.062041	-1.398397
F	1.359746	0.0	0.0
H	-1.623374	0.347142	-1.341519
H	-0.487243	-0.914296	-1.874365
N	-0.352636	1.280637	0.776271
O	-1.132767	2.082142	0.285492
O	0.212824	1.388397	1.863107
C	-0.552635	-1.166767	0.765722
H	-0.241962	-2.094527	0.279496
H	-0.160625	-1.139948	1.782429
H	-1.64489	-1.090506	0.765431
N	0.157283	1.003028	-2.301386
O	0.110431	0.734746	-3.501358
O	0.72609	1.977827	-1.817996
Cl	-3.773513	0.0	0.0
