16

C	0.0	0.0	0.0
C	-0.540513	0.057741	-1.415393
F	1.358987	0.0	0.0
H	-0.257429	0.985735	-1.899437
H	-1.630686	-0.064923	-1.374276
N	-0.335357	1.347936	0.672351
O	-0.062813	1.419639	1.866502
O	-0.750286	2.268744	-0.022838
C	-0.515582	-1.116029	0.85906
H	-0.083309	-1.018095	1.853821
H	-0.220275	-2.064251	0.413067
H	-1.6055	-1.052387	0.898633
N	0.061085	-1.02865	-2.235985
O	0.801557	-0.686564	-3.159636
O	-0.219978	-2.193614	-1.961198
Cl	-3.694836	0.0	0.0
