13

C	0.0	0.0	0.0
C	-0.517504	0.042473	-1.4349
F	1.376787	0.0	0.0
H	-1.618336	0.121033	-1.293687
H	-0.264231	-0.917566	-1.89252
C	-0.352809	1.274414	0.703291
N	-0.520226	2.259387	1.320765
N	-0.540697	-1.155876	0.62563
H	-1.575193	-0.963389	0.508746
H	-0.327209	-1.112845	1.617505
C	0.05064	1.131211	-2.214535
N	0.498166	2.00028	-2.866125
F	-2.773718	0.0	0.0
