13

C	0.0	0.0	0.0
C	-0.256279	0.112359	-1.524923
F	1.398291	0.0	0.0
H	0.313917	0.976962	-1.882489
H	0.234728	-0.770849	-1.952622
C	-0.416296	1.23903	0.693334
N	-0.548646	2.277063	1.225593
N	-0.498833	-1.134608	0.679967
H	-0.295031	-1.94918	0.107569
H	-1.538208	-0.924537	0.60347
C	-1.602111	0.196181	-2.100798
N	-2.433225	0.283938	-2.929759
F	-2.609877	0.0	0.0
