13

C	0.0	0.0	0.0
C	-0.26944	0.114179	-1.516247
F	1.381702	0.0	0.0
H	0.372237	-0.671777	-1.932698
H	0.148999	1.075572	-1.83433
C	-0.392093	1.245784	0.714574
N	-0.586019	2.288892	1.220405
N	-0.486675	-1.223436	0.527781
H	-1.526645	-1.035892	0.445056
H	-0.235397	-1.268972	1.508522
C	-1.598766	-0.008785	-2.122164
N	-2.446588	0.060095	-2.93711
F	-2.581695	0.0	0.0
