13

C	0.0	0.0	0.0
C	-0.518391	0.0626	-1.434188
F	1.37674	0.0	0.0
H	-1.619917	0.144644	-1.294188
H	-0.270558	-0.895845	-1.900811
C	-0.351193	1.266982	0.719061
N	-0.552254	2.26325	1.308197
N	-0.547063	-1.161389	0.608064
H	-1.581403	-0.961592	0.488548
H	-0.340544	-1.129981	1.602441
C	0.054238	1.155336	-2.204879
N	0.497443	2.032624	-2.848853
F	-2.779384	0.0	0.0
