14

C	0.0	0.0	0.0
C	-0.525911	-0.370096	-1.377099
Br	2.01712	0.0	0.0
H	-0.323998	-1.41907	-1.588092
H	-1.616591	-0.186582	-1.330211
C	-0.34831	1.357522	0.43218
N	-0.519014	2.432464	0.874586
N	-0.509796	-0.932806	0.908321
H	-0.538468	-0.635068	1.869307
H	-0.17249	-1.873801	0.783029
N	0.066863	0.408653	-2.486739
O	0.183866	1.62119	-2.334592
O	0.367465	-0.213291	-3.505532
Br	-3.74481	0.0	0.0
