13
Coordinates from ORCA-job run
  C   1.10803168951469     -0.44371549132725     -0.13406609272087
  C   -0.42265858394874     -0.46639323885891     -0.21991458041638
  Cl  1.71071608192291     -2.00518101984485      0.46274164301092
  H   -0.72346368895305     -1.31434712457440     -0.83781031024171
  H   1.51774355253564     -0.30099282611750     -1.13435459357073
  C   1.54366335750842      0.64495297345276      0.73523697650294
  N   1.84434066599578      1.53751615883116      1.43712982489457
  N   -0.78904781843322      0.76843891081579     -1.08535018668711
  O   -1.45438299029532      1.65285266598156     -0.55906508769589
  O   -0.37228545044910      0.75425467634088     -2.23988273927129
  N   -1.04112161933660     -0.50087085339224      1.03875554674200
  H   -0.88628623030355      0.34892692531698      1.56669864293141
  H   -2.03324896575784     -0.67644175662399      0.97088095652214
