13
Coordinates from ORCA-job run
  C   0.95763492610922      0.31963855683937      0.32479117743775
  C   -0.31778751904550     -0.05715279275332     -0.44529397551501
  Cl  1.87510467435798      1.57604541538692     -0.54005432277195
  H   -0.07383626872167     -0.32940077047828     -1.47203906736824
  H   0.66812329081595      0.73559948377193      1.29303401234780
  C   1.76609911103030     -0.87853104558387      0.51199822188793
  N   2.37684008367717     -1.87278181678531      0.64619149373850
  N   -1.15752934652315      1.19138313471156     -0.53393261609983
  O   -1.48580660036868      1.58495357693602     -1.64542163754742
  O   -1.46525484340003      1.69190859087783      0.54531497765047
  N   -1.12567408832664     -1.06003673721181      0.16831741536417
  H   -1.23917215915363     -0.90970114410230      1.16225831719629
  H   -0.77974126045133     -1.99092445160876     -0.01516399632046
