13
Coordinates from ORCA-job run
  C   1.01907104363993     -0.46301219506609     -0.17076544904547
  C   -0.52043990870729     -0.36146491564007     -0.30069987145070
  Cl  1.43306129480844     -2.07617160988745      0.46455169276569
  H   -0.84623336827237     -1.15933400058998     -0.96956291215008
  H   1.47602278900267     -0.37863249271322     -1.15848256778507
  C   1.52711721548839      0.57704652971580      0.71422560143175
  N   1.88652570503604      1.42863941055560      1.43930839092036
  N   -0.75072686519943      0.92757648790388     -1.06472060064562
  O   -0.44931355375741      0.89582786099335     -2.25541849986113
  O   -1.15524625864678      1.89768279703328     -0.43653913736182
  N   -1.29754095090274     -0.35764852103368      0.88199262080143
  H   -1.32468155103619     -1.27202507465897      1.30967840288719
  H   -0.99661559145326      0.34351572338756      1.54643232949348
