13
Coordinates from ORCA-job run
  C   1.10270340667813     -0.40700835320647     -0.04935392016875
  C   -0.40097295631908     -0.33478906836827     -0.30648928379319
  Cl  1.48779332897336     -2.02396753834815      0.61098677718387
  H   -0.66002012295243     -1.11670870941929     -1.03766959384305
  H   1.63967615587177     -0.31763032566290     -0.99209106564941
  C   1.54217226616734      0.64041627247623      0.86498600331444
  N   1.92443580579755      1.49430236926331      1.57405320715680
  N   -0.70302169983309      0.95805149448118     -1.04351973463559
  O   0.17811251097285      1.40623747213007     -1.77058305987842
  O   -1.83238960621141      1.41156793569093     -0.91031995927011
  N   -1.13965394725079     -0.32820243632203      0.91716787879219
  H   -2.12303217053325     -0.17790659621218      0.73505613694908
  H   -1.01580297136093     -1.20536251650243      1.40577661384213
