14

C	0.0	0.0	0.0
C	-0.48604	-0.076855	-1.47288
Br	2.004957	0.0	0.0
H	0.353922	0.041179	-2.167682
H	-0.275978	0.984102	0.364128
N	-0.450665	-0.99086	0.910647
H	-0.253239	-1.913559	0.535494
H	-1.485724	-0.80703	0.834285
N	-1.383669	1.082384	-1.842251
O	-2.210587	0.886351	-2.720193
O	-1.092714	2.169801	-1.361619
C	-1.14331	-1.343047	-1.764505
N	-1.48168	-2.435611	-2.031479
F	-2.558782	0.0	0.0
