14

C	0.0	0.0	0.0
C	-0.479913	-0.039825	-1.476462
Br	2.009874	0.0	0.0
H	0.36236	0.113614	-2.161664
H	-0.274557	0.97553	0.387614
N	-0.450491	-1.013554	0.885036
H	-0.25301	-1.925956	0.483267
H	-1.485544	-0.82809	0.810196
N	-1.393634	1.115383	-1.82047
O	-2.21472	0.926539	-2.70565
O	-1.120135	2.195678	-1.314474
C	-1.114047	-1.306692	-1.809874
N	-1.445452	-2.394663	-2.104486
F	-2.557222	0.0	0.0
