14

C	0.0	0.0	0.0
C	-0.478875	-0.097642	-1.474689
Br	2.009537	0.0	0.0
H	0.367348	0.005935	-2.162808
H	-0.279236	0.987445	0.351639
N	-0.446427	-0.982786	0.92206
H	-1.48169	-0.805523	0.838898
H	-0.240915	-1.90833	0.559309
N	-1.372382	1.053802	-1.869337
O	-2.197684	0.839753	-2.744142
O	-1.083158	2.150766	-1.409957
C	-1.128717	-1.371742	-1.753739
N	-1.482753	-2.462788	-2.006697
F	-2.552246	0.0	0.0
