14

C	0.0	0.0	0.0
C	-0.503882	-0.110255	-1.467997
Br	1.961438	0.0	0.0
H	0.329964	-2e-06	-2.17232
H	-0.289625	0.989535	0.339976
N	-0.463978	-0.967252	0.936568
H	-1.497339	-0.790922	0.844914
H	-0.258347	-1.900357	0.593139
N	-1.412407	1.035066	-1.855804
O	-2.247261	0.816887	-2.720483
O	-1.117521	2.135122	-1.406111
C	-1.149811	-1.388581	-1.729888
N	-1.522821	-2.474421	-1.977295
F	-2.574117	0.0	0.0
