17
Coordinates from ORCA-job run
  C   -0.53861360061267     -0.41057528101839      0.25907823612900
  C   0.74592754688023      0.43492224863870      0.29297526874202
  Br  -0.52485019348129     -1.22484013302839      2.19834626689429
  H   0.66145177117702      1.19475745538864      1.07573527210395
  N   -0.41846296316971     -1.36325159779329     -0.73920404668852
  H   -1.19276000407947     -2.00829155889964     -0.80116892800605
  H   0.48416835118335     -1.82314450847198     -0.72435256306188
  C   -1.84458102719836      0.35045844749076      0.20043272564412
  H   -2.67412995962733     -0.33963364145978      0.36606611451197
  H   -1.88453277113987      1.12452430652735      0.96590938890002
  H   -1.95417774941923      0.80986414072939     -0.78254901464246
  N   0.80623820633048      1.23380533163212     -0.99499821221749
  O   1.58587278852974      0.88030323862008     -1.87257128929660
  O   0.04669542789117      2.19731306002277     -1.05229171837382
  N   1.90261133353655     -0.42160712751795      0.34959641511919
  H   2.70997965205190      0.03601745997946     -0.05202565956652
  H   2.08816319114751     -0.67062184083985      1.31202174380877
