16

C	0.0	0.0	0.0
C	-0.325289	-0.335966	-1.523344
Br	1.939334	0.0	0.0
H	0.465439	-1.020985	-1.835906
N	-0.653612	1.104298	0.49172
H	-0.466309	1.212473	1.481996
H	-1.689966	0.856608	0.346216
N	-0.300397	-1.310279	0.825575
O	-0.17056	-2.393495	0.2632
O	-0.610722	-1.151084	1.998843
C	-0.106476	0.917377	-2.270478
N	0.059574	1.889127	-2.908257
N	-1.578819	-0.927716	-1.910549
H	-2.327185	-0.507854	-1.316592
H	-1.52871	-1.902206	-1.639608
F	-2.945339	0.0	0.0
