13

C	0.0	0.0	0.0
C	-0.503488	0.306172	-1.404568
Br	1.937463	0.0	0.0
H	-1.604942	0.23922	-1.339688
H	-0.118689	-0.455841	-2.084025
C	-0.436849	0.949069	1.01386
N	-0.646048	1.772031	1.827854
N	-0.405358	-1.423997	0.407473
O	-0.486445	-2.237469	-0.500091
O	-0.513848	-1.634841	1.60387
C	-0.08088	1.627523	-1.843232
N	0.260039	2.683679	-2.227355
Cl	-3.306551	0.0	0.0
