13

C	0.0	0.0	0.0
C	-0.527623	0.667837	-1.263871
Br	1.926353	0.0	0.0
H	-0.178416	0.104215	-2.130307
H	-1.629988	0.595379	-1.184921
C	-0.434285	0.644663	1.231896
N	-0.623798	1.169726	2.26706
N	-0.41439	-1.481595	0.019832
O	-0.497635	-2.005746	1.117628
O	-0.530648	-2.019228	-1.070332
C	-0.097062	2.054339	-1.351549
N	0.241985	3.174648	-1.447278
Cl	-3.339713	0.0	0.0
