13

C	0.0	0.0	0.0
C	-0.271414	-0.137242	-1.524031
Br	1.939045	0.0	0.0
H	0.474743	-0.841683	-1.895145
H	-0.019914	0.842448	-1.944926
C	-0.459186	1.214473	0.650686
N	-0.534027	2.278519	1.14979
N	-0.3835	-1.246045	0.783178
O	-0.426354	-2.284051	0.139906
O	-0.48754	-1.118051	1.992668
C	-1.529057	-0.588475	-2.12758
N	-2.187522	-1.013125	-3.009513
Cl	-2.948559	0.0	0.0
