13

C	0.0	0.0	0.0
C	-0.243985	-0.194485	-1.52351
Br	1.939782	0.0	0.0
H	0.428252	-0.999949	-1.823328
H	0.142021	0.719325	-1.984694
C	-0.447044	1.247499	0.592791
N	-0.532945	2.333201	1.03964
N	-0.391358	-1.21045	0.832399
O	-0.488307	-1.032288	2.035493
O	-0.440651	-2.273545	0.232123
C	-1.523225	-0.508749	-2.166355
N	-2.185867	-0.834317	-3.086052
Cl	-2.925341	0.0	0.0
