12

C	-0.23247	0.017673	-1.473713
C	0.0	0.0	0.0
Br	-2.114865	-0.018429	-2.076026
H	1.095446	0.0	0.0
H	0.221291	0.879217	-1.955688
H	-0.372296	-0.921466	0.448519
N	0.42013	-1.183648	-2.10546
O	1.035752	-0.985432	-3.148103
O	0.263192	-2.26684	-1.556132
C	-0.544294	1.170095	0.644675
N	-0.967998	2.128782	1.178068
F	2.49717	0.0	0.0
