12

C	-0.233502	0.042924	-1.472894
C	0.0	0.0	0.0
Br	-2.116371	0.02309	-2.073014
H	1.095528	0.0	0.0
H	0.223308	0.910633	-1.940511
H	-0.373629	-0.928292	0.432956
N	0.412614	-1.150361	-2.125178
O	0.255491	-2.241217	-1.591146
O	1.022654	-0.938302	-3.16869
C	-0.54239	1.159788	0.664769
N	-0.96346	2.108921	1.216976
F	2.497599	0.0	0.0
