14

C	-0.438411	0.016816	-1.466346
C	0.0	0.0	0.0
Cl	0.02242	-1.547609	-2.21829
H	1.093342	0.0	0.0
H	-0.36931	-0.904882	0.496708
C	-1.906809	0.120594	-1.540793
N	-3.076894	0.221981	-1.518652
N	0.16485	1.091725	-2.228895
H	1.1721	0.934132	-2.177863
H	-0.017158	1.926649	-1.673631
N	-0.454845	1.251135	0.606287
H	-1.313871	1.117984	1.123293
H	0.25827	1.5844	1.241931
Cl	3.410533	0.0	0.0
