14

C	-0.595169	-0.016773	-1.407248
C	0.0	0.0	0.0
Cl	0.136866	1.390339	-2.35374
H	1.094971	0.0	0.0
H	-0.359788	-0.911332	0.487478
C	-0.224508	-1.227076	-2.147339
N	0.003687	-2.214004	-2.741385
N	-2.011937	0.074752	-1.31664
H	-2.204251	0.82506	-0.658526
H	-2.429193	0.268157	-2.217322
N	-0.546865	1.170841	0.706102
H	0.121219	1.925358	0.593191
H	-0.569153	0.959199	1.695666
Cl	3.46427	0.0	0.0
