14

C	-0.564424	0.010968	-1.419542
C	0.0	0.0	0.0
Cl	-0.09458	1.493397	-2.295297
H	1.092484	0.0	0.0
H	-0.315734	-0.964698	0.434328
C	-0.041382	-1.134041	-2.191304
N	0.255466	-2.107609	-2.779396
N	-2.021555	-0.022136	-1.364208
H	-2.294067	-0.907405	-0.94644
H	-2.393743	-0.000181	-2.307899
N	-0.46577	1.158734	0.736918
H	-1.310064	0.966168	1.253349
H	0.262749	1.452499	1.371452
Cl	3.460052	0.0	0.0
