14

C	-0.59705	-0.022594	-1.408876
C	0.0	0.0	0.0
Cl	0.141865	1.382451	-2.358579
H	1.095007	0.0	0.0
H	-0.361256	-0.908133	0.491164
C	-0.22622	-1.231076	-2.150476
N	0.059473	-2.20309	-2.745373
N	-2.012119	0.077544	-1.319976
H	-2.430703	0.267672	-2.220868
H	-2.200587	0.832429	-0.665261
N	-0.545385	1.17469	0.699367
H	-0.558242	0.971805	1.691135
H	0.119121	1.931209	0.574614
Cl	3.467754	0.0	0.0
