14

C	-0.438762	0.016888	-1.466231
C	0.0	0.0	0.0
Cl	0.022341	-1.547277	-2.218549
H	1.093331	0.0	0.0
H	-0.369229	-0.904907	0.496721
C	-1.907223	0.120222	-1.54024
N	-3.07733	0.221307	-1.517867
N	0.163933	1.092109	-2.228806
H	-0.017913	1.926828	-1.673161
H	1.171237	0.93463	-2.178384
N	-0.454817	1.251071	0.606468
H	-1.313453	1.11775	1.124092
H	0.258667	1.584627	1.241561
Cl	3.410535	0.0	0.0
