17

C	-0.142199	-0.11124	-1.536516
C	0.0	0.0	0.0
F	-1.311992	-0.873465	-1.855377
H	1.095458	0.0	0.0
N	-0.198426	1.168318	-2.138379
H	-0.187754	1.046411	-3.144019
H	-1.012749	1.688644	-1.83628
N	0.971782	-0.824139	-2.113676
H	0.834718	-1.807945	-1.915914
H	1.800559	-0.529325	-1.560429
C	-0.458475	-1.257576	0.731913
H	-1.537472	-1.415465	0.660124
H	-0.171267	-1.195621	1.7843
H	0.053562	-2.122708	0.304943
C	-0.604391	1.190932	0.553878
N	-1.131035	2.140587	1.007901
F	2.654176	0.0	0.0
