17

C	-0.149401	0.0713	-1.53057
C	0.0	0.0	0.0
F	0.008871	-1.302061	-1.986786
H	1.096861	0.0	0.0
N	-1.425773	0.517872	-2.004412
H	-1.368134	0.672676	-3.004919
H	-2.102526	-0.218792	-1.839586
N	0.911972	0.861225	-2.025157
H	1.761758	0.629123	-1.474902
H	1.063881	0.664365	-3.007418
C	-0.584555	-1.240881	0.65902
H	-0.395447	-1.204685	1.734261
H	-0.095796	-2.124408	0.251559
H	-1.667252	-1.328901	0.508988
C	-0.491407	1.220226	0.615402
N	-0.880027	2.171532	1.186942
F	2.664446	0.0	0.0
