17

C	-0.15219	-0.084843	-1.538762
C	0.0	0.0	0.0
F	0.002627	1.244938	-2.008215
H	1.09678	0.0	0.0
N	0.886859	-0.931694	-1.985115
H	1.751865	-0.672101	-1.47581
H	0.988467	-0.837846	-2.987609
N	-1.415619	-0.493809	-2.113259
H	-1.619996	-1.431093	-1.792788
H	-2.138785	0.129847	-1.771806
C	-0.474398	-1.271445	0.697992
H	0.026656	-2.123084	0.23442
H	-0.192736	-1.243787	1.75247
H	-1.560457	-1.409283	0.636266
C	-0.632008	1.179358	0.547878
N	-1.206077	2.10131	1.000404
F	2.655428	0.0	0.0
