17

C	-0.135093	-0.015768	-1.537155
C	0.0	0.0	0.0
F	-1.338864	0.638106	-1.932427
H	1.09421	0.0	0.0
N	0.951851	0.690473	-2.16846
H	1.78806	0.45292	-1.599787
H	0.785254	1.68066	-2.020888
N	-0.131565	-1.353363	-2.024623
H	-1.004354	-1.810793	-1.791581
H	-0.024377	-1.300839	-3.030282
C	-0.585521	-1.184961	0.753062
H	-1.667449	-1.287797	0.603949
H	-0.08166	-2.092217	0.418479
H	-0.402107	-1.072384	1.824197
C	-0.467512	1.268127	0.530515
N	-0.845215	2.279979	0.995662
F	2.652288	0.0	0.0
