17

C	-0.131499	0.006466	-1.538
C	0.0	0.0	0.0
F	-1.337984	0.660419	-1.925976
H	1.094132	0.0	0.0
N	0.952028	0.726528	-2.158353
H	0.783116	1.71238	-1.989713
H	1.788889	0.480157	-1.596387
N	-0.120055	-1.324155	-2.044608
H	-0.010987	-1.25571	-3.048917
H	-0.991473	-1.788537	-1.820563
C	-0.587744	-1.196131	0.734079
H	-0.415567	-1.09519	1.808393
H	-0.076995	-2.097276	0.393518
H	-1.667672	-1.300703	0.572945
C	-0.468731	1.260681	0.547323
N	-0.846596	2.26648	1.025453
F	2.652982	0.0	0.0
