17

C	-0.153671	-0.106781	-1.533433
C	0.0	0.0	0.0
F	-1.327337	-0.868396	-1.844389
H	1.095482	0.0	0.0
N	-0.220935	1.174594	-2.130977
H	-1.05896	1.667219	-1.85002
H	-0.183345	1.05556	-3.135386
N	0.956145	-0.81989	-2.12168
H	0.808522	-1.805837	-1.938518
H	1.787451	-0.539542	-1.564974
C	-0.449191	-1.260678	0.733169
H	0.067644	-2.121956	0.303325
H	-0.155946	-1.196435	1.78376
H	-1.527653	-1.42662	0.667067
C	-0.606226	1.187923	0.56001
N	-1.134907	2.132935	1.021806
F	2.647753	0.0	0.0
