17

C	-0.217269	-0.0823	-1.516115
C	0.0	0.0	0.0
F	-1.453398	-0.750622	-1.785945
H	1.095349	0.0	0.0
N	-0.19706	1.199422	-2.11096
H	-0.275916	1.09711	-3.112621
H	-0.920377	1.796935	-1.740109
N	0.814105	-0.876711	-2.14275
H	0.611962	-1.850211	-1.941604
H	1.675569	-0.640242	-1.62336
C	-0.453886	-1.256202	0.737813
H	-0.034411	-2.136372	0.245779
H	-1.542204	-1.358978	0.771963
H	-0.060417	-1.238223	1.756244
C	-0.566646	1.191547	0.592963
N	-1.042163	2.161426	1.060044
F	2.619108	0.0	0.0
