13

C	-0.556231	0.183549	-1.392829
C	0.0	0.0	0.0
F	-0.355312	-0.955787	-2.18159
H	1.094896	0.0	0.0
H	-0.063192	1.026204	-1.877834
H	-1.637038	0.353437	-1.337832
N	-0.545218	-1.241872	0.568435
H	0.076947	-1.519406	1.322507
H	-0.452975	-1.962272	-0.142251
N	-0.435071	1.166237	0.763804
H	-1.272383	0.899871	1.270896
H	0.285518	1.407418	1.432425
Cl	3.559479	0.0	0.0
