13

C	-0.478829	-1e-05	-1.425301
C	0.0	0.0	0.0
F	-1.891726	-1.2e-05	-1.439141
H	1.09538	0.0	0.0
H	-0.148461	0.900464	-1.94246
H	-0.148459	-0.900489	-1.94245
N	-0.430655	-1.248529	0.634593
H	0.049049	-1.347104	1.522509
H	-1.429885	-1.208504	0.81173
N	-0.43065	1.248539	0.634579
H	-1.429867	1.208504	0.811765
H	0.049092	1.347146	1.522466
Cl	3.57054	0.0	0.0
