13

C	-0.516033	-0.241974	-1.404876
C	0.0	0.0	0.0
F	-0.18585	-1.523489	-1.842953
H	1.095744	0.0	0.0
H	-0.089613	0.472245	-2.115107
H	-1.608957	-0.15823	-1.404361
N	-0.4521	-1.001626	0.951245
H	0.156037	-1.806743	0.874016
H	-1.395298	-1.296916	0.718705
N	-0.547558	1.301452	0.421062
H	-0.417141	1.321402	1.427017
H	0.059128	2.02564	0.046899
Cl	3.576793	0.0	0.0
