13

C	-0.517341	0.286944	-1.395938
C	0.0	0.0	0.0
F	-0.188189	1.581903	-1.793142
H	1.095743	0.0	0.0
H	-0.091527	-0.404068	-2.128974
H	-1.610205	0.202332	-1.396548
N	-0.546324	-1.31531	0.377242
H	0.060767	-2.025941	-0.022636
H	-0.415871	-1.369912	1.382338
N	-0.453077	0.968663	0.98423
H	0.155804	1.77533	0.935493
H	-1.395574	1.271236	0.762346
Cl	3.576869	0.0	0.0
