18

C	-0.427087	0.050076	-1.472575
C	0.0	0.0	0.0
Cl	-0.053962	-1.531697	-2.243945
H	1.091494	0.0	0.0
C	-1.856017	0.313741	-1.664012
N	-2.971394	0.611448	-1.884529
C	0.39938	1.117489	-2.191197
H	0.200986	1.075338	-3.263186
H	1.457966	0.93079	-1.992657
H	0.129857	2.110277	-1.825248
N	-0.519076	-1.233009	0.661041
O	-1.718886	-1.475639	0.50998
O	0.257134	-1.889151	1.347005
C	-0.499273	1.185172	0.812954
H	-0.159701	1.061652	1.843769
H	-1.589088	1.259429	0.795159
H	-0.056422	2.107966	0.437142
Br	3.510137	0.0	0.0
