18

C	-0.415195	-0.002456	-1.465868
C	0.0	0.0	0.0
Cl	-2.221674	0.136209	-1.670081
H	1.092913	0.0	0.0
C	0.157188	1.200619	-2.084318
N	0.640218	2.155177	-2.571837
C	0.043845	-1.240723	-2.231858
H	-0.194569	-1.125672	-3.291519
H	1.120884	-1.356897	-2.094449
H	-0.467641	-2.125356	-1.851221
N	-0.363453	-1.287873	0.670128
O	0.424914	-2.237631	0.500092
O	-1.536447	-1.452943	1.034257
C	-0.554233	1.132707	0.825074
H	-1.641741	1.09799	0.896319
H	-0.131727	1.075345	1.832345
H	-0.242875	2.085451	0.389743
Br	2.927881	0.0	0.0
