18

C	-0.422063	0.053208	-1.47269
C	0.0	0.0	0.0
Cl	-0.022822	-1.514947	-2.258444
H	1.09152	0.0	0.0
C	-1.8527	0.306599	-1.667043
N	-2.970093	0.607616	-1.873474
C	0.397529	1.135721	-2.179386
H	0.116726	2.12403	-1.809276
H	1.457208	0.956943	-1.9776
H	0.205389	1.097951	-3.252567
N	-0.515184	-1.227738	0.674021
O	0.207754	-1.758011	1.51005
O	-1.662728	-1.58216	0.396698
C	-0.497361	1.184538	0.816309
H	-0.062495	2.109636	0.437927
H	-0.149749	1.060281	1.843994
H	-1.588119	1.254901	0.80483
Br	3.501177	0.0	0.0
