18

C	-0.451228	0.035183	-1.464882
C	0.0	0.0	0.0
Cl	0.032524	-1.506995	-2.254492
H	1.091493	0.0	0.0
C	-1.900708	0.183814	-1.632331
N	-3.042444	0.393414	-1.817293
C	0.270536	1.173362	-2.186893
H	0.061439	1.118757	-3.256358
H	-0.083025	2.136666	-1.81298
H	1.344031	1.076075	-2.005448
N	-0.471243	-1.260181	0.655546
O	0.346661	-1.919286	1.287734
O	-1.67131	-1.525489	0.551686
C	-0.531938	1.157875	0.826896
H	-1.623954	1.193118	0.814523
H	-0.124299	2.09953	0.459085
H	-0.185459	1.035421	1.855576
Br	3.499948	0.0	0.0
