18

C	-0.388245	0.032266	-1.502543
C	0.0	0.0	0.0
Cl	-2.130644	0.511196	-1.761737
H	1.107628	0.0	0.0
C	0.487807	0.985355	-2.161178
N	1.466376	1.47342	-2.594591
C	-0.151627	-1.325463	-2.176031
H	-0.810209	-2.092	-1.762486
H	0.892812	-1.600747	-2.008445
H	-0.348573	-1.229192	-3.243696
N	-0.512717	-1.269916	0.563736
O	0.320634	-2.171363	0.781543
O	-1.679192	-1.316758	0.861943
C	-0.466887	1.193581	0.791049
H	-0.007049	1.169848	1.779618
H	-1.549685	1.254682	0.874286
H	-0.082434	2.080804	0.281525
Br	3.277566	0.0	0.0
