18

C	-0.356486	-0.183282	-1.486453
C	0.0	0.0	0.0
Cl	-2.151439	-0.334397	-1.720649
H	1.094351	0.0	0.0
C	0.043628	1.031354	-2.202958
N	0.346258	1.989094	-2.81281
C	0.331605	-1.389323	-2.115062
H	0.166653	-1.385779	-3.193603
H	1.400088	-1.325907	-1.889376
H	-0.066535	-2.310118	-1.692434
N	-0.452451	-1.213387	0.749902
O	-1.509112	-1.139574	1.382472
O	0.25394	-2.218692	0.680609
C	-0.542997	1.253556	0.643619
H	-0.244171	1.27183	1.692936
H	-1.629775	1.306467	0.586322
H	-0.098453	2.122355	0.155318
Br	3.443097	0.0	0.0
