14
Coordinates from ORCA-job run
  C   -0.61067296741774      0.21357199481175     -0.31487955827967
  C   0.66621382997635     -0.59587320769880     -0.51237220000905
  F   -1.32940399424531      0.09710440231331     -1.52052504783335
  H   1.16318189879894     -0.22271360119310     -1.41117715371822
  H   0.38995073295906     -1.64623405429587     -0.69578034588610
  N   -1.33774420257669     -0.30540259177414      0.78918303914901
  H   -1.67002776287528     -1.24106777402045      0.59189694638966
  H   -2.12007995207598      0.30596378058843      0.98514046809612
  N   -0.41941224956599      1.62182446311099     -0.10238367086110
  H   0.33732028364439      1.72300935472916      0.56565303380820
  H   -0.12067246767775      2.03581797438008     -0.97723982225942
  N   1.53076401957860     -0.37795332030308      0.64117280969252
  H   1.09229497412273     -0.78259205984670      1.45892782613182
  H   2.42728785735466     -0.82545536080157      0.50338367557959
