14
Coordinates from ORCA-job run
  C   -0.48658458530818      0.19271464572615     -0.39361713041722
  C   0.95276929202052     -0.08747505778587      0.02900793009776
  F   -0.75939859117250     -0.74734996425458     -1.39333959544020
  H   1.60269453257088      0.13030136968372     -0.82863796218579
  H   1.21646584953944      0.59304168059661      0.84515984602822
  N   -1.48291222868093     -0.04864285948321      0.61748237564995
  H   -1.28598069266060     -0.94553228448262      1.05020100144821
  H   -1.40803857425159      0.66536085895681      1.33154593927381
  N   -0.59458158902826      1.49011686556703     -0.97555600290557
  H   -1.57104880001408      1.74993677763094     -1.04022497212297
  H   -0.08940624600014      2.18392129359451     -0.44217829791250
  N   1.03320797676633     -1.45864751617003      0.52238310231564
  H   1.93817165752847     -1.62680699456286      0.94148952232856
  H   0.93464199869064     -2.08993881501660     -0.26271575615790
