14
Coordinates from ORCA-job run
  C   -0.51912385247085      0.20787029266062     -0.43574684287862
  C   0.72539654534485     -0.66216520654496     -0.47975191928615
  F   -1.21017022901611     -0.01053456566122     -1.64257681593709
  H   1.28717274196805     -0.37937870130335     -1.37127838908007
  H   0.40265497732118     -1.70751893438443     -0.59519402861845
  N   -1.35014762549052     -0.20922605777813      0.66315131272763
  H   -1.74479278648393     -1.12150770975169      0.46017468407597
  H   -2.12022581651885      0.43899532433040      0.78234622178197
  N   -0.14116964977205      1.57823618834742     -0.39468550631178
  H   -0.91818570754964      2.17751870124834     -0.14695527990828
  H   0.60559015138863      1.67415121714838      0.28269571016109
  N   1.52753144612712     -0.39044520132334      0.70735564602489
  H   2.42154665686673     -0.85935529116619      0.64759355851519
  H   1.03492314828539     -0.73464005582187      1.52187164873368
