14
Coordinates from ORCA-job run
  C   -0.52942784406052      0.23618727275727     -0.24504889212856
  C   0.48449786129322     -0.73229425717892      0.35092244572708
  F   -0.36886129579023      0.08114129514714     -1.65260810277533
  H   0.39153333834502     -0.68999255917852      1.43847072413672
  H   0.20836129275293     -1.74384120967698      0.01855932630302
  N   -1.91113130491229     -0.05454965728220     -0.00253985030403
  H   -2.12231000506184      0.09636900233725      0.97407355101378
  H   -2.12941509424000     -1.00778461237294     -0.26171385279233
  N   -0.25988231268955      1.54962045844009      0.18508161548584
  H   0.72887513143418      1.74016582265520      0.08440124092886
  H   -0.81850405697146      2.20842074787166     -0.34086923015263
  N   1.83312438082829     -0.32166364482721     -0.02903941816857
  H   2.52375379519899     -0.84532353230379      0.49227040058335
  H   1.96838611387325     -0.51645512638805     -1.01295995785719
