14
Coordinates from ORCA-job run
  C   -0.48379418251252      0.19030446508425     -0.35294273334973
  C   0.48558984496277     -0.82592314298618      0.23996582813357
  F   -0.59224587230870     -0.05261362248649     -1.70658877737621
  H   0.04983916916653     -1.81882392850147      0.08996472016452
  H   0.50757549721557     -0.64165569659961      1.32891911160261
  N   -1.84191153601761      0.09615510922723      0.14454328694947
  H   -2.22780089248165     -0.81381246129319     -0.08209868379662
  H   -1.85361478219263      0.20628172370459      1.15108656740105
  N   0.05980147688194      1.51276761282165     -0.20765864369078
  H   0.20801295221308      1.72668577842139      0.77124320479213
  H   -0.61360100233329      2.17238146645995     -0.58107922720023
  N   1.78207085676001     -0.75715763459715     -0.41559460009126
  H   2.03561529447635      0.21627751549635     -0.52884480935638
  H   2.48646317617015     -1.21186718475132      0.15008475581784
