14
Coordinates from ORCA-job run
  C   -0.34680322997698      0.51007756865872     -0.06268819069247
  C   0.71290973313113     -0.55804561507274     -0.30720752025081
  F   0.32059451850705      1.47947882985472      0.73523633389549
  H   1.52821480156798     -0.11732866674697     -0.90157737513507
  H   0.25437632019159     -1.35396364890368     -0.89778858958329
  N   -0.80852410017437      1.06495330925004     -1.28104495215016
  H   -0.04166526314634      1.46175928491702     -1.80769055516595
  H   -1.48187614635996      1.79270456931966     -1.07392157375317
  N   -1.47780263271828      0.09270470607485      0.70522459765094
  H   -2.06421176660063     -0.48995450424974      0.12149503700355
  H   -1.13920780048950     -0.46213367162012      1.48324884760034
  N   1.13770642462248     -1.09654937548072      0.98006236589858
  H   1.70866942840032     -1.92019752366052      0.84625896622419
  H   1.69561971304550     -0.40250526234051      1.46039260845784
