14
Coordinates from ORCA-job run
  C   -0.53034706714202      0.18074207672094     -0.08984549784195
  C   0.56616299609192     -0.74707664119258      0.39768390450576
  F   -0.50256456593582      0.04277684921563     -1.53479950431923
  H   0.59746553396344     -0.66434903839990      1.48468270667298
  H   0.27623615389120     -1.77488678434418      0.13825267436880
  N   -1.80492373575154     -0.23348580876542      0.38449398342390
  H   -2.47572657393777      0.52076191844768      0.31910256001985
  H   -2.13513440661111     -1.01971051993584     -0.15955787394647
  N   -0.25213849410055      1.51771554502940      0.27058152825360
  H   -0.79198509313731      2.15441104347456     -0.30287194727322
  H   0.73573058144835      1.67994400355418      0.11033315463296
  N   1.84370601555425     -0.31630521193286     -0.16106926559862
  H   2.60717906261852     -0.80130778373103      0.29078048890570
  H   1.86633959304844     -0.53922964814058     -1.14776691180406
