14
Coordinates from ORCA-job run
  C   -0.52940159192612      0.32141599181709     -0.26438788204421
  C   0.90879704735515     -0.16694991259151     -0.11309350532314
  F   -0.99973171441941     -0.24831148063475     -1.46578723441540
  H   1.40142475823670      0.46296355114566      0.63509352811492
  H   1.40355151268594      0.00626487155348     -1.07347587181103
  N   -1.29240332642411     -0.08234539901308      0.85364510446935
  H   -1.21514800926304     -1.08896044786717      0.93904286122218
  H   -2.25900315547057      0.17949256004173      0.70533737722879
  N   -0.68731623600029      1.74040777461144     -0.44077888657329
  H   -0.13472650466586      2.06049397380840     -1.22634289570878
  H   -0.38606892795617      2.21639001676079      0.39918675281142
  N   0.94821437061210     -1.58446738057729      0.24658922593300
  H   1.30005090396463     -1.70799022761790      1.18491379316599
  H   1.54076087327107     -2.10740389143689     -0.37994236706982
