14
Coordinates from ORCA-job run
  C   -0.60858658326006      0.21708134830327     -0.31621552695475
  C   0.67549016740457     -0.57949386689657     -0.51952197397331
  F   -1.31451621865391      0.12485525615716     -1.53116644969613
  H   1.17901735202793     -0.18193511202942     -1.40412150542388
  H   0.40826447373646     -1.62702096250643     -0.73044755828372
  N   -1.34335201988205     -0.33249446129818      0.76801430212303
  H   -2.13113927545295      0.26975149795109      0.97040393978830
  H   -1.66846232675797     -1.26479537180383      0.54450763467768
  N   -0.42820617466686      1.62097253198826     -0.06840735191818
  H   0.32188472268577      1.71117414589091      0.60856531388763
  H   -0.12550540639693      2.05806627232426     -0.93051661596378
  N   1.52661411279399     -0.38353647565369      0.64780639697103
  H   1.08145325247859     -0.80866566023273      1.45141389759968
  H   2.42704392394342     -0.82295914219410      0.50968549716641
