14
Coordinates from ORCA-job run
  C   -0.53617314664045      0.12508868699503     -0.46880026330669
  C   0.66263940854585     -0.80565288635966     -0.42911493135756
  F   -1.06652330510217      0.06449236174789     -1.75460855348146
  H   1.30008371213554     -0.54247780361006     -1.28131837069959
  H   0.30707644448901     -1.83072096546039     -0.55193270480512
  N   -1.52014194726130     -0.33992673484358      0.45180119293330
  H   -1.05230146724172     -0.60908953569255      1.30892576258911
  H   -2.22000038257368      0.36631703601867      0.63906649825663
  N   -0.08345082496139      1.50491349334664     -0.30069263276512
  H   -0.50903096488329      2.08305667125043     -1.01377782210268
  H   -0.35815045246515      1.85105796051885      0.60814650287308
  N   1.30038375880960     -0.66179646679819      0.87741588342046
  H   1.95867764995629     -1.41379369770561      1.03247345753400
  H   1.81691151719286      0.20953188059254      0.88341598091164
