14
Coordinates from ORCA-job run
  C   -0.51992308806277      0.14502786391713     -0.48123475846489
  C   0.78165714559726     -0.63615692184947     -0.50666385514475
  F   -1.20090427225438     -0.14420841766408     -1.66057968017218
  H   0.52496005474553     -1.67789616422584     -0.73190135547102
  H   1.40548452762304     -0.24000710655107     -1.31051604965476
  N   -1.37011648227108     -0.36578413607534      0.59272083441902
  H   -2.30116593296530     -0.52698594696643      0.23075333775110
  H   -1.42310228205570      0.30916537063859      1.34298905010745
  N   -0.22785611995214      1.53999404217199     -0.45467424121713
  H   0.52738983664191      1.69474078904110      0.20232064278564
  H   -1.03861435878040      2.08661629313556     -0.19481916611026
  N   1.45104314967149     -0.43629401597496      0.77646284915038
  H   2.41184441832770     -0.74783329277097      0.72451904284141
  H   0.97830340373484     -1.00137835682620      1.47162334917999
