14
Coordinates from ORCA-job run
  C   -0.57373093805336      0.23499029596006     -0.53249900237780
  C   0.68397376503260     -0.62629244953234     -0.46247582394380
  F   -1.16216924810428     -0.06066989153129     -1.75826275577174
  H   0.39109030038705     -1.66384306244354     -0.66661976542707
  H   1.34632412639468     -0.30016470884929     -1.26688905048881
  N   -1.59232018677553     -0.06816737620106      0.44827252507274
  H   -1.89291654714499     -1.03302438730777      0.37181547948368
  H   -1.22623608482849      0.09990463147650      1.37669476394120
  N   -0.20534733329014      1.60737292915308     -0.50248676642618
  H   0.52442820582341      1.73387633271232      0.18772508915314
  H   -1.01132211539754      2.16905965594334     -0.25820087953445
  N   1.34388130317496     -0.43047527272345      0.82943670874485
  H   1.02920835455516     -1.12264234679981      1.49626744880187
  H   2.34413639822647     -0.53992434985676      0.73622202877238
