14
Coordinates from ORCA-job run
  C   -0.65612373040563      0.11057509645710     -0.47381448182371
  C   0.64674334148730     -0.68281285449264     -0.43600133534067
  F   -1.15469717887842     -0.05011577145443     -1.76295886060548
  H   1.26426277631584     -0.35546489349396     -1.28193924767535
  H   0.39138268918087     -1.73268817727165     -0.59324473444292
  N   -1.57086196472091     -0.44455437240430      0.46120061285734
  H   -1.07141662731087     -0.66830509711073      1.31289430421730
  H   -2.30430904912650      0.22513835944031      0.65668548910726
  N   -0.52121942392884      1.54122011180622     -0.30747259719018
  H   0.08176622813204      1.93294780677366     -1.02172539320823
  H   -0.13585924176896      1.73953101482505      0.60709736095791
  N   1.28332774117863     -0.52329369004792      0.87264725742529
  H   1.92846726054042      0.25562424285311      0.85808959495454
  H   1.81853717930503     -1.34780177587983      1.10754203076689
