14
Coordinates from ORCA-job run
  C   -0.63623213745977      0.23892529303651     -0.45420443051534
  C   0.62895260693890     -0.60845992657546     -0.55484868013916
  F   -1.36569773669172     -0.03905728136686     -1.60604971665902
  H   1.18586214967892     -0.25788586713073     -1.42613811842301
  H   0.32388783623927     -1.64524735041348     -0.74422983484131
  N   -1.52590331252282     -0.09631747111905      0.63567894794325
  H   -1.82548916334341     -1.06255646634667      0.57431334554425
  H   -1.05088155643120      0.05583746802815      1.51628559464567
  N   -0.27977449934199      1.61466940594260     -0.43939147762612
  H   0.52655010525029      1.73556494589261      0.16081640498021
  H   -1.05555954610254      2.16171426959679     -0.08773384050507
  N   1.43837465939218     -0.43034924697410      0.65199548744460
  H   1.21390864437401     -1.14023996856979      1.33649314113686
  H   2.42100195001989     -0.52559780400050      0.43601317701420
