14
Coordinates from ORCA-job run
  C   -0.47842299394555      0.14077892104606      0.02459249009452
  C   0.60525823976437     -0.87395749025078     -0.31566556010163
  F   -0.77500437849782     -0.08283606747331      1.42128199544674
  H   0.21623465449023     -1.87368492818007     -0.09587449591666
  H   0.78844341715008     -0.80512594775413     -1.38921942813993
  N   -0.00539345416335      1.47728197149369     -0.12965288023353
  H   0.54121846775565      1.73434963142583      0.68098518336470
  H   -0.77623124693876      2.12683834132235     -0.21703047455308
  N   -1.64129097144286     -0.06720310283397     -0.75785294591448
  H   -1.90485928225838     -1.04366037462681     -0.73130391049338
  H   -2.41400704001872      0.47484181865797     -0.38844423948246
  N   1.85923591367298     -0.70192870575181      0.39404454175690
  H   2.29851144126292      0.16504581198706      0.11322084400382
  H   1.68730723316922     -0.67173987906208      1.39091888016846
