14
Coordinates from ORCA-job run
  C   -0.51260283877611      0.17041752239514     -0.20274539903862
  C   0.51657282501332     -0.83837104022732      0.30713217672678
  F   -0.51868622610413      0.00125371373628     -1.61161646426309
  H   0.17556076973825     -1.82789172326737     -0.01420222635018
  H   0.49800723368311     -0.81932793512513      1.39973635471689
  N   -1.86870782486364     -0.06327249646099      0.20673706975560
  H   -2.15235952690183     -1.00129787709418     -0.04624161530614
  H   -1.94386390794975      0.05210033926604      1.20886398770164
  N   -0.17418974783682      1.49542442387610      0.16279088211646
  H   0.73864464662466      1.74014830301415     -0.19524759738429
  H   -0.86467699948818      2.12880769478268     -0.22097313587058
  N   1.88693816317352     -0.65609226917280     -0.14371204678946
  H   2.31545961041263      0.14618367987317      0.29781458198440
  H   1.90390382327497     -0.52908233559578     -1.14733656799940
