14
Coordinates from ORCA-job run
  C   -0.54398728363766      0.11772048636695      0.13896803958349
  C   0.58595366013474     -0.76255919594968     -0.40162620909434
  F   -0.68264674334877     -0.26622415553348      1.49818404346584
  H   0.74580007162820     -0.50326780586351     -1.45110916211329
  H   0.25022331419770     -1.80481958000119     -0.36933923826212
  N   -0.30215493328751      1.53279194225435      0.19008109108576
  H   0.51101967898730      1.73049509818416      0.75735918626257
  H   -0.16425851942764      1.89021157999415     -0.74603583425059
  N   -1.72979396338716     -0.08676752149486     -0.60197125163051
  H   -2.47641529912653      0.46862097591070     -0.20357989483099
  H   -1.99340061723222     -1.06283828413473     -0.61212427893945
  N   1.84798064338325     -0.67515393459587      0.31288205015973
  H   1.68408864988133     -0.81485487379044      1.30175392591384
  H   2.26959134123497      0.23564526865346      0.18655753265004
