14
Coordinates from ORCA-job run
  C   -0.40492658155918      0.30914149861559     -0.35703277666397
  C   1.01092522515970     -0.19153363347245     -0.05070850910825
  F   -0.83499036819366     -0.44736209498565     -1.45840968744923
  H   1.64859509471294      0.08993984064581     -0.89382546728697
  H   1.38208671350865      0.33256297611415      0.83709871471664
  N   -1.41359216811932      0.04840848257322      0.64598842788061
  H   -1.56394906428680     -0.94678788276579      0.75147018596975
  H   -1.13438336193881      0.44311752811832      1.53536557586472
  N   -0.37628787393008      1.67988112974955     -0.70802053905781
  H   -1.25085611401176      2.13528116368080     -0.49241865050318
  H   0.41433296964787      2.18349405749299     -0.33768435065519
  N   1.14176329172020     -1.62069978874248      0.16432148209186
  H   0.74812752415413     -2.11160281895297     -0.62848777565403
  H   0.63415471313612     -1.90484045807110      0.99234336985506
