14
Coordinates from ORCA-job run
  C   -0.57202125566881      0.17744784593574     -0.32915211713861
  C   0.65361430372555     -0.71252463941743     -0.54831415825385
  F   -1.28914110824124      0.11072982669494     -1.54118316597804
  H   0.30614953485530     -1.73327464533351     -0.74187745854065
  H   1.15439846098441     -0.37352252507795     -1.45915220514998
  N   -1.33271103155784     -0.29317678250165      0.77244427228516
  H   -1.64735906849678     -1.24108987447676      0.60987562847150
  H   -2.13367380353002      0.31165044244852      0.90688272806938
  N   -0.32677025606609      1.57648313523413     -0.11310707229543
  H   0.18523756388475      1.70806380819988      0.74820672730490
  H   0.19775875972355      1.96440640015042     -0.88657135355736
  N   1.61042226073423     -0.73915392756902      0.54556361957981
  H   2.07687753753354      0.15506430715175      0.62594809761976
  H   1.11721810211943     -0.91010337143907      1.41343645758340
