14
Coordinates from ORCA-job run
  C   0.74460906462450     -0.04162196401930      0.58292269883508
  C   -0.36780043682707     -0.20252158925756     -0.44187219020313
  Cl  1.84083025924049     -1.48388458087137      0.43274614608667
  H   0.04963274095803     -0.40699033830277     -1.43469669398850
  H   0.30940088583864     -0.10297185082679      1.57850640523076
  N   1.39637012455001      1.21024842907770      0.40262092116118
  H   1.94581171530961      1.21874113876967     -0.44870553687276
  H   2.00597347293282      1.42081586272645      1.18151041214664
  N   -1.27837298288703      0.89755677593302     -0.34880853982350
  H   -1.79595638920962      1.02134253949020     -1.20828834559330
  H   -0.76204366611671      1.73914569339261     -0.12819545342925
  N   -1.15359935210621     -1.45963944147076     -0.12453355275177
  O   -1.40310244104279     -1.69714301140133      1.05040300302461
  O   -1.53175299526467     -2.11307766323978     -1.09460927382272
