14
Coordinates from ORCA-job run
  C   0.76671081624731     -0.11048190292932      0.60030381598731
  C   -0.26108882582519     -0.11057719396349     -0.52678109519917
  Cl  1.79117907874922     -1.61982635845669      0.34299045729545
  H   0.20127978418874     -0.36099072117658     -1.48228386384302
  H   0.26930138642496     -0.29902687613442      1.55066457289819
  N   1.48142733019628      1.10072591354394      0.65711721046653
  H   2.19152829558974      1.08485253858528      1.37619737418640
  H   1.89041514779095      1.35765957286483     -0.23115520436998
  N   -0.95383920099842      1.12542744784706     -0.61358041957326
  H   -1.33386365401254      1.40900393773673      0.27970247893448
  H   -1.68375050957011      1.09820398402472     -1.31378676362586
  N   -1.20455603347338     -1.28865549406988     -0.26830389781469
  O   -1.77808263930606     -1.30431070514322      0.81888494989528
  O   -1.37866097600150     -2.08100414272896     -1.18996961523767
