14
Coordinates from ORCA-job run
  C   0.81927736284579     -0.16987066264202      0.57572378908854
  C   -0.24860319254854     -0.13929228489570     -0.51047090823782
  Cl  1.60086124920265     -1.77704380726179      0.59530253075566
  H   0.20611110124633     -0.35592654605036     -1.47635152374771
  H   0.33067117679081     -0.08108106370389      1.55395775641906
  N   1.79127981052901      0.83628584939640      0.25605155877023
  H   1.30604109392799      1.71082311257271      0.09369023256553
  H   2.45485193871425      0.94481246836277      1.01199317412970
  N   -0.89221455503974      1.13689817330682     -0.50751058809351
  H   -1.48073998783634      1.22775067343487      0.31298073160963
  H   -1.45562239412709      1.26995876672867     -1.33725245351565
  N   -1.22995954139644     -1.26759044727683     -0.25571536411225
  O   -1.32352048617083     -2.15290317924951     -1.09936638140177
  O   -1.87843357613782     -1.18482105272215      0.78696744577040
