14
Coordinates from ORCA-job run
  C   0.84003859224350     -0.07084580363447      0.63992235478812
  C   -0.25417702889619     -0.26150341725126     -0.40599970652442
  Cl  1.95903076899577     -1.46515327863646      0.47834425368337
  H   0.18866171192626     -0.48450374559947     -1.38426676420461
  H   0.38439843530653     -0.14030520270596      1.62612538862235
  N   1.56745866715100      1.15284092785103      0.53656841259421
  H   1.10210568849329      1.92369548688642      0.99120988707189
  H   1.86251654344980      1.38043706492950     -0.40235750730714
  N   -1.17825249289493      0.84739139686823     -0.36625958890246
  H   -1.88640736367227      0.72786476910482     -1.08222063348523
  H   -0.67817410921979      1.70375214099893     -0.56589457951661
  N   -1.08101185199172     -1.48243946191130     -0.08977565348022
  O   -1.27236637510408     -1.76393371114913      1.08704050185820
  O   -1.55382118578718     -2.06829716575089     -1.06243636519745
