14
Coordinates from ORCA-job run
  C   0.74792431847703     -0.08130830780363      0.65999389525807
  C   -0.24126204733300     -0.23931507232875     -0.50419993106087
  Cl  1.84625519811497     -1.49231729017955      0.65359261229751
  H   0.29979489454267     -0.34871645860927     -1.44539755891048
  H   0.18506642011573     -0.11853995449580      1.59525872442878
  N   1.52375672787973      1.12276054030419      0.62387693565640
  H   0.96096626829306      1.93121192676311      0.84941374931741
  H   1.98533371126287      1.24986838749209     -0.26802549445876
  N   -1.22302285416654      0.80095224525428     -0.61139370317232
  H   -0.84833012491394      1.62718870485016     -1.05251484428809
  H   -1.63231021548401      1.02597600234181      0.28611782818340
  N   -1.00519070576594     -1.51910588546459     -0.31651265203502
  O   -0.91614973369246     -2.38545023527804     -1.17769977308908
  O   -1.68283185733017     -1.57420460284601      0.70849021187305
