14
Coordinates from ORCA-job run
  C   0.84652617505018      0.56822569194027     -0.02340027338232
  C   -0.54161319573980      0.15497496575925     -0.52731821071223
  Cl  0.83991861928784      2.35215445303198      0.11321359231875
  H   -0.82447001840228      0.76257093421041     -1.38669421715056
  H   1.59889122233767      0.33602041634145     -0.78498004864479
  N   1.09791644263449      0.01556149088999      1.28457167509915
  H   1.94224894917341      0.41229672891281      1.67673867024976
  H   1.21141033959410     -0.98741863287632      1.18746438463085
  N   -1.53868852960537      0.13635098357624      0.48124243287132
  H   -1.11496493563826      0.21842763640968      1.39706711169529
  H   -2.25372936613970      0.82952775197801      0.33464066253847
  N   -0.43266325795836     -1.24981933413530     -1.11579572200430
  O   -1.12011724034194     -1.48760000107047     -2.10170376469578
  O   0.29033479574798     -2.06027308496795     -0.53504629281359
