14
Coordinates from ORCA-job run
  C   0.80541082313911     -0.09377380481952      0.68771683581238
  C   -0.21861062682822     -0.13557559534772     -0.45330773070360
  Cl  1.71105436216218     -1.62457071353187      0.70359116437489
  H   0.28279957417242     -0.28064698729488     -1.41092669513842
  H   0.25981692990537     -0.03677998939956      1.63307870851121
  N   1.72797321826410      1.00489962615895      0.59901221189777
  H   1.19214053595267      1.86087788813997      0.50547154525175
  H   2.30773433520687      0.90159630135709     -0.22657010693383
  N   -0.97503501911828      1.07639606968235     -0.44122114194818
  H   -1.58920237488805      1.09334594028061      0.36532248835545
  H   -1.53148226446626      1.17593274424270     -1.28051468498080
  N   -1.10148641978679     -1.35576705554954     -0.27632615433715
  O   -1.79812341974419     -1.36279729688754      0.73846709663020
  O   -1.07298965397094     -2.22413712703105     -1.14279353679168
