14
Coordinates from ORCA-job run
  C   0.66961798227139      0.01088495239652      0.60379051923210
  C   -0.30950784102417     -0.19679061788040     -0.55290971812810
  Cl  1.79604099352681     -1.42011300890100      0.67776391960441
  H   0.23404641453018     -0.28861891331833     -1.49511365747775
  H   0.11692626922918     -0.00568487227362      1.54330461731551
  N   1.32690087132041      1.26040833584286      0.43767460962780
  H   1.83074453755920      1.52534594294828      1.27356566946667
  H   1.98411417787025      1.22358913690178     -0.33284684894883
  N   -1.33551079418789      0.80457861990662     -0.65517271157204
  H   -1.84077670757211      0.85313737275506      0.22314567313561
  H   -0.89431628899131      1.70218069684794     -0.81182979944294
  N   -1.01155600462090     -1.50647736079655     -0.35861746228685
  O   -1.68492275014566     -1.59378934886553      0.66679530992501
  O   -0.88180085976543     -2.36865093556360     -1.21855012045061
