14
Coordinates from ORCA-job run
  C   0.68105524439667      0.45365401604520      0.48740253878308
  C   -0.48632584874660      0.18728363223976     -0.47749373323292
  Cl  0.24899229443216     -0.32289610376718      2.10797668144402
  H   -0.15517271830934      0.51542969979267     -1.46509910979981
  H   0.66393460180995      1.52020866039607      0.71451155207191
  N   1.93546454424248      0.09680205206803     -0.03874644569893
  H   1.97743934143917     -0.87669786477781     -0.30913163537277
  H   2.69221626673991      0.32633448020850      0.59036564092943
  N   -1.74075614687635      0.77480632682657     -0.16044059069885
  H   -2.00209367608494      0.61595145641238      0.80321242340991
  H   -1.74203270997824      1.76223534058802     -0.37199331306574
  N   -0.66397449716535     -1.31444105454773     -0.60157827393489
  O   0.25668994447314     -1.91599872685571     -1.15713799480897
  O   -1.66543664037264     -1.82267191462878     -0.12184774002547
