14
Coordinates from ORCA-job run
  C   0.84043426925884     -0.10951698140529      0.56066564893878
  C   -0.24569669396957     -0.15613651673132     -0.50671912463372
  Cl  1.74367713360743     -1.65195171449344      0.55674263416571
  H   0.20725036613886     -0.33388051078778     -1.48132635999338
  H   0.36388626584387     -0.06412111881097      1.54778920124613
  N   1.72601024531072      0.97003222147695      0.23072970796232
  H   1.17217540884637      1.80457144343004      0.07810301420345
  H   2.39147334789821      1.12742914009396      0.97619837435129
  N   -0.98387755807178      1.06770679826821     -0.48623276265834
  H   -1.56126120572788      1.11167864687377      0.34598180122452
  H   -1.57248373377180      1.15945511836839     -1.30404771945018
  N   -1.13427919947883     -1.35619553329932     -0.24100663276048
  O   -1.17828332382416     -2.24112951563980     -1.08917068711732
  O   -1.77002532206027     -1.32594147734340      0.81229290452122
