14
Coordinates from ORCA-job run
  C   0.71320712171297      0.53838088506244      0.51113838381063
  C   -0.35253932942708      0.22028000973719     -0.53431712097195
  Cl  0.02150932967199      0.02841991035441      2.15471168615524
  H   0.10738090193525      0.33491084313129     -1.51878656352550
  H   0.75790756092443      1.62342159964328      0.58598535010452
  N   1.98089934912111      0.01408655381203      0.20770468436784
  H   1.96858109180966     -0.99296179510812      0.12085638028724
  H   2.67865239314141      0.30865135836646      0.87649730509465
  N   -1.47866337287760      1.06072767974934     -0.39900655356997
  H   -2.15314693928020      0.89503189364010     -1.13301967981097
  H   -1.93185632784071      0.91659179601497      0.49451212338381
  N   -0.69272141633172     -1.28427398507609     -0.46436467901818
  O   -1.86189570950389     -1.59605321848441     -0.27990119961268
  O   0.24168534694435     -2.06721353084287     -0.62301011669465
