14
Coordinates from ORCA-job run
  C   0.85719542346199     -0.17915430050279      0.51597108297045
  C   -0.26969503509978     -0.10777565343399     -0.50698319722435
  Cl  1.70590240553347     -1.74432611344933      0.35602537264975
  H   0.13932670540334     -0.22174329373940     -1.51015631042006
  H   0.42020445588522     -0.19667579660466      1.52208370426134
  N   1.76629112352917      0.89481114424994      0.23527353485234
  H   1.23536868283884      1.75522885422650      0.16868496281476
  H   2.46227301474446      0.97382799583319      0.96523909953299
  N   -0.96507818988507      1.13249368715690     -0.36136080160027
  H   -1.51022887513361      1.12724006285165      0.49340300327616
  H   -1.57900785463647      1.30769507072098     -1.14622966937129
  N   -1.18699781703626     -1.29783402324583     -0.29944689669966
  O   -1.29120549378895     -2.11216275736869     -1.21064993122533
  O   -1.78234854581631     -1.33062487669445      0.77714604618318
