14
Coordinates from ORCA-job run
  C   0.84747791233327     -0.12046151897970      0.63255390661777
  C   -0.23665773287348     -0.10513357872986     -0.45222358880743
  Cl  1.81131653690436     -1.60609657819399      0.45821264844756
  H   0.21589497000838     -0.14265995817745     -1.44388679448409
  H   0.35479248460520     -0.17341180969773      1.60670245987899
  N   1.72013587392422      1.02033702137185      0.59812406609524
  H   1.14942890027263      1.85772392037853      0.63502908754579
  H   2.24060726926054      1.03042392172228     -0.27217375666546
  N   -1.03812179674596      1.06664845243471     -0.29223590200776
  H   -1.60714401432272      0.98641410945086      0.54303766599960
  H   -1.64314526347904      1.21452568938255     -1.08969666648777
  N   -1.06066019557021     -1.37330213772379     -0.34058540872419
  O   -1.70229401326483     -1.49775635700830      0.70257249252321
  O   -1.05163093105232     -2.15725117622992     -1.28443020993147
