14
Coordinates from ORCA-job run
  C   0.89042422483491      0.47471329319384     -0.06625269740702
  C   -0.54056358715291      0.22026094987326     -0.56092301821145
  Cl  0.98488571649569      2.28097918749739      0.27997540976401
  H   -0.72616553977976      0.85842652451803     -1.42550486474097
  H   1.59005035785175      0.31707883689186     -0.88526443601672
  N   1.21411168866921     -0.35537106289783      1.02438656381115
  H   2.19952877961518     -0.33287094612574      1.24610180852516
  H   0.68094012486836     -0.12699006522929      1.85266011194238
  N   -1.61332007093935      0.33569772391515      0.37171469372648
  H   -1.67761430229196      1.27733173339616      0.73261729206823
  H   -1.54171808269129     -0.34169994757049      1.11811630599479
  N   -0.51448805268079     -1.19139749981625     -1.09936188079193
  O   0.12841513623200     -1.34807088259448     -2.13429207897484
  O   -1.07348639303105     -2.06808784505165     -0.45397320968927
