14
Coordinates from ORCA-job run
  C   0.78988286585175     -0.09949155202444      0.60478470488151
  C   -0.26259999836668     -0.21061044829241     -0.50822510363699
  Cl  1.93617073132275     -1.46067800590576      0.42426157458750
  H   0.22316256166851     -0.23019482051030     -1.48509184345908
  H   0.28807521336276     -0.23016578339702      1.56600773162488
  N   1.51744383159790      1.13440133940277      0.61649863812496
  H   1.91502250697677      1.35049195599101     -0.28889833950208
  H   0.94442631862375      1.89916102041523      0.94473345716591
  N   -1.28588517734673      0.79507174884047     -0.47993959179922
  H   -0.95831061001917      1.67185377789283     -0.85689953857756
  H   -1.65707788195907      0.92281720772772      0.45286070025178
  N   -0.96913348136966     -1.52900839903859     -0.37288518618569
  O   -0.90006775619696     -2.32766322063326     -1.29888901396310
  O   -1.58110912414587     -1.68498482046826      0.68268181048719
