14
Coordinates from ORCA-job run
  C   0.68068401863598      0.45257087983411      0.48884063654355
  C   -0.48301581257798      0.18838649642322     -0.48105947402704
  Cl  0.23742069726062     -0.31612534237970      2.11045352717684
  H   -0.14496998803388      0.51264203412016     -1.46763549445497
  H   0.66776918837634      1.51989443616826      0.71250044173775
  N   1.93582633261214      0.08746394623956     -0.02979785757512
  H   1.97468852495383     -0.88714417945987     -0.29660084950228
  H   2.69042026790911      0.31555694233197      0.60241902890199
  N   -1.73719301841647      0.78206554060333     -0.17253367795739
  H   -1.72824138948585      1.77125358089130     -0.37632457628465
  H   -2.00657345226717      0.61968592334766      0.78844667605852
  N   -0.66692200870343     -1.31217118209533     -0.60156762932724
  O   0.25168539006995     -1.91959965728865     -1.15419052843025
  O   -1.67157875033321     -1.81447941873598     -0.12195022285973
