14
Coordinates from ORCA-job run
  C   0.77816750323844      0.53199105560056      0.41573831580787
  C   -0.44505674307163      0.23951014941472     -0.44953349292150
  Cl  0.39646570355179     -0.09904601540194      2.11664601820827
  H   -0.16629463474168      0.42977618409554     -1.48867836967035
  H   0.80806492087944      1.61165805433452      0.55117904430584
  N   1.98626559378875      0.07173530638134     -0.13534502773870
  H   2.78190961106242      0.34529518583349      0.42425057616700
  H   1.98139924596105     -0.92764503778365     -0.28754862422364
  N   -1.55110571314929      1.02932966260320     -0.06806956987107
  H   -1.84515098993997      0.80913510411898      0.87505536339203
  H   -2.33483181443847      0.89227612311083     -0.69103705139786
  N   -0.73044083509658     -1.27759199821731     -0.42023626174247
  O   -1.83814382553398     -1.64207025673877     -0.04827146611229
  O   0.17875197748969     -2.01535351735154     -0.79514945420314
