14
Coordinates from ORCA-job run
  C   0.96964409749418      0.48194029508216     -0.04054272184919
  C   -0.43716769229008      0.20817626023797     -0.63176355147324
  Cl  1.12637040303813      2.26902928163738      0.03707036248892
  H   -0.50030574045574      0.66993843074899     -1.61741639903171
  H   1.71768105792631      0.13598724145616     -0.75640346689253
  N   1.25259534904590     -0.08268951490347      1.23706742395999
  H   1.42973824138550     -1.07638558912830      1.18163152958473
  H   0.52779228972455      0.11034925999419      1.91477275288770
  N   -1.58362994163213      0.55415406299452      0.14264188797063
  H   -1.65513519029125      1.55724251987399      0.24271549722178
  H   -1.57983027261104      0.10542333134626      1.04818722843644
  N   -0.45257592206479     -1.27602865091477     -0.87423147793978
  O   -0.95268526905573     -1.98548445348489     -0.00494867707216
  O   0.13650858978615     -1.67065247494017     -1.87778038829158
