13

C	0.0	0.0	0.0
C	-0.406064	-0.560408	-1.391922
Br	2.04807	0.0	0.0
H	-0.590596	-1.637732	-1.262752
H	-0.199108	-0.712578	0.797689
H	0.426761	-0.451831	-2.087935
N	-0.514776	1.268916	0.275597
H	-1.138001	1.263323	1.068966
H	-1.004731	1.611642	-0.545101
N	-1.526817	0.196588	-1.926495
H	-2.394255	2.6e-05	-1.419791
H	-1.666635	-0.040965	-2.900162
Br	-4.320358	0.0	0.0
