13

C	0.0	0.0	0.0
C	-0.515012	0.044349	-1.430418
Br	2.021005	0.0	0.0
H	0.201829	-0.444928	-2.093484
H	-0.211725	-0.985403	0.408931
H	-0.576826	1.106543	-1.734575
N	-0.583707	0.986991	0.793894
H	-0.419787	0.896896	1.783855
H	-0.423852	1.9288	0.468069
N	-1.76182	-0.703929	-1.458204
H	-2.471892	-0.30777	-0.840292
H	-2.159589	-0.675126	-2.388941
Br	-4.888902	0.0	0.0
