13

C	0.0	0.0	0.0
C	-0.410604	0.53472	-1.37827
Br	2.02523	0.0	0.0
H	-0.151277	1.601503	-1.401764
H	-0.237671	-1.058891	0.100226
H	0.207814	0.048951	-2.136257
N	-0.579436	0.723353	1.038461
H	-0.362562	1.70805	1.029816
H	-0.491225	0.319424	1.956837
N	-1.799911	0.368431	-1.722857
H	-2.44141	0.700945	-1.00639
H	-2.033783	-0.610557	-1.834215
Br	-4.79625	0.0	0.0
