13

C	0.0	0.0	0.0
C	-0.480634	0.512932	-1.351087
Br	2.039812	0.0	0.0
H	-0.111213	1.535464	-1.490363
H	-0.218388	-1.060373	0.119589
H	-1.571993	0.542183	-1.25549
N	-0.520479	0.728489	1.053134
H	-0.428388	1.728171	0.98554
H	-0.361062	0.368792	1.977897
N	-0.121326	-0.288809	-2.509326
H	0.867012	-0.509809	-2.478525
H	-0.641089	-1.157467	-2.47548
Br	-4.043318	0.0	0.0
