13

C	0.0	0.0	0.0
C	-0.337054	-0.24686	-1.491361
Br	1.954106	0.0	0.0
H	0.222088	0.503235	-2.058581
H	-0.260514	-0.872146	0.610957
H	0.08496	-1.223891	-1.750903
N	-0.547534	1.243781	0.456759
H	-0.431724	1.327312	1.459939
H	-1.552873	1.193078	0.282736
N	-1.713908	-0.191846	-1.911176
H	-2.344116	-0.723734	-1.32102
H	-2.074284	0.75201	-1.879451
Br	-4.410689	0.0	0.0
