14

C	0.0	0.0	0.0
C	-0.559426	-0.1518	-1.38951
Br	2.017094	0.0	0.0
H	-1.674851	-0.258894	-1.157692
H	-0.373511	0.750816	-1.964991
N	-0.551632	1.22021	0.489218
H	-1.594388	1.020081	0.403617
H	-0.34907	1.297428	1.48281
C	-0.289177	-1.150338	0.8838
N	-0.46835	-1.970755	1.707404
N	-0.075819	-1.295008	-2.163328
O	0.077906	-2.370552	-1.583147
O	0.092037	-1.123876	-3.376055
H	-2.869734	0.0	0.0
