14

C	0.0	0.0	0.0
C	-0.522222	-0.023402	-1.430139
Br	1.966112	0.0	0.0
H	-0.315941	0.9294	-1.914992
H	-1.628666	-0.160542	-1.256142
N	-0.547458	1.120344	0.705537
H	-0.376323	1.956932	0.151376
H	-1.584162	0.907712	0.652547
C	-0.349379	-1.222471	0.749505
N	-0.536845	-2.194523	1.383489
N	0.014983	-1.073347	-2.305529
O	0.393539	-0.735788	-3.433106
O	0.017116	-2.230499	-1.882659
H	-2.867678	0.0	0.0
