14

C	0.0	0.0	0.0
C	-0.56841	-0.19778	-1.40432
Br	1.9475	0.0	0.0
H	-0.31794	-1.16523	-1.835369
H	-1.691657	-0.116243	-1.162132
N	-0.500651	1.124942	0.734523
H	-0.335317	1.944887	0.159315
H	-1.529532	0.948456	0.717386
C	-0.351551	-1.234086	0.735463
N	-0.529479	-2.248615	1.30135
N	-0.174503	0.815979	-2.375276
O	0.005075	0.445377	-3.541286
O	-0.098039	1.996702	-2.011882
H	-2.864543	0.0	0.0
