14

C	0.0	0.0	0.0
C	-0.54597	-0.07278	-1.411368
Br	1.951007	0.0	0.0
H	-1.655722	-0.191279	-1.224769
H	-0.328716	0.856999	-1.930137
N	-0.553025	1.20857	0.539219
H	-1.591788	1.011326	0.457181
H	-0.339712	1.246683	1.532263
C	-0.335431	-1.190153	0.818952
N	-0.516303	-2.055169	1.595356
N	-0.036135	-1.176798	-2.229981
O	0.044321	-2.292939	-1.714666
O	0.231489	-0.928779	-3.410354
H	-2.880311	0.0	0.0
