16

C	-0.483033	-0.024526	-1.46311
C	0.0	0.0	0.0
Cl	0.172369	1.441932	-2.27909
H	1.092117	0.0	0.0
C	0.004715	-1.180218	-2.221276
N	0.373018	-2.073683	-2.890228
C	-1.946451	0.046035	-1.552061
N	-3.11453	0.164248	-1.607841
N	-0.445974	-1.257731	0.678421
O	-1.101012	-2.076637	0.027752
O	-0.125267	-1.386973	1.853999
C	-0.50642	1.181576	0.805181
H	-0.084861	1.103661	1.806501
H	-1.598643	1.196062	0.868297
H	-0.151288	2.110216	0.36169
Br	3.353735	0.0	0.0
