16

C	-0.471818	0.084939	-1.457568
C	0.0	0.0	0.0
Cl	0.117518	-1.319826	-2.3968
H	1.091273	0.0	0.0
C	-1.93159	0.189225	-1.599215
N	-3.083257	0.363233	-1.756765
C	0.103828	1.29659	-2.057464
N	0.53479	2.266071	-2.562516
N	-0.489452	-1.256912	0.637176
O	-1.49323	-1.798333	0.167903
O	0.117514	-1.628868	1.634869
C	-0.482497	1.168683	0.845247
H	-0.07384	1.044342	1.848881
H	-0.085229	2.100615	0.440338
H	-1.574096	1.21955	0.894425
Br	3.36979	0.0	0.0
