16

C	0.0	0.0	0.0
C	-0.358874	0.012666	-1.524415
Br	1.906347	0.0	0.0
H	0.08831	-0.908984	-1.894374
N	-0.563809	1.184934	0.664756
O	-0.585125	1.243221	1.908637
O	-0.710377	2.184279	-0.093812
N	-0.630708	-1.219024	0.549629
O	-0.77202	-2.167493	-0.294569
O	-0.631523	-1.406598	1.782116
C	0.207672	1.124421	-2.286692
N	0.591766	1.925393	-3.05565
N	-1.806475	-0.036733	-1.683467
H	-2.104089	-0.969456	-1.926642
H	-2.18495	0.686997	-2.27748
H	-1.846002	0.0	0.0
