14

C	-0.457366	-0.031727	-1.457006
C	0.0	0.0	0.0
Br	0.273303	1.543278	-2.398525
H	1.092701	0.0	0.0
H	-0.314435	-0.942171	0.468115
C	0.109932	-1.21223	-2.110102
N	0.454675	-2.203102	-2.639795
C	-1.970407	-0.023504	-1.654898
H	-2.389091	0.877746	-1.204415
H	-2.230679	-0.051332	-2.71456
H	-2.396093	-0.901139	-1.158118
C	-0.589784	1.107467	0.720897
N	-1.075262	2.003929	1.308368
F	2.522087	0.0	0.0
