14

C	-0.235349	-0.062645	-1.504275
C	0.0	0.0	0.0
Br	-2.129844	-0.544497	-1.964134
H	1.095824	0.0	0.0
H	-0.325679	-0.944749	0.445703
C	-0.008077	1.241821	-2.125997
N	0.185793	2.292394	-2.61925
C	0.716565	-1.103969	-2.092808
H	0.698846	-1.097555	-3.182314
H	1.705972	-0.850742	-1.686973
H	0.424926	-2.093574	-1.730426
C	-0.626679	1.114702	0.672799
N	-1.126503	2.014121	1.242393
F	2.579321	0.0	0.0
