14

C	-0.474825	-0.002399	-1.452168
C	0.0	0.0	0.0
Br	0.301758	1.551878	-2.392472
H	1.092677	0.0	0.0
H	-0.32142	-0.945789	0.456502
C	0.040483	-1.19805	-2.121976
N	0.359148	-2.196191	-2.654951
C	-1.990419	0.06694	-1.628995
H	-2.365531	0.984212	-1.172422
H	-2.444426	-0.792225	-1.125347
H	-2.266464	0.050891	-2.684956
C	-0.573868	1.102329	0.744047
N	-1.036002	1.999842	1.348436
F	2.518878	0.0	0.0
