15
Coordinates from ORCA-job run
  C   0.79104865799010     -0.14930605586780      0.39649893484474
  C   -0.72749696013114     -0.09482300718628      0.15510624688525
  Br  1.30920884685146     -1.85085870655799      1.17174875888708
  H   -1.20121287601062     -0.30116093164482      1.11943295935312
  C   1.54581799650186      0.08084457474801     -0.82308232278562
  N   2.09746096898342      0.23472553240644     -1.85064781554468
  N   1.16497516531167      0.92713063710408      1.43805090221290
  O   0.41152238767980      1.00825547221468      2.39587106106690
  O   2.17759693071028      1.57544564871010      1.22303392156337
  C   -1.19993252092199     -1.08885324213685     -0.90806687308097
  H   -0.97775350051972     -2.11094020484679     -0.60181166161015
  H   -2.27935199194310     -0.99112761736058     -1.03274730862127
  H   -0.72303733318725     -0.88819230571213     -1.86897978952399
  C   -1.06339793800634      1.27747256809702     -0.23677535693186
  N   -1.32544783330844      2.37138763803290     -0.57563165671482
