15
Coordinates from ORCA-job run
  C   0.78299522363642     -0.14749889131554      0.41396878970673
  C   -0.72944387585400     -0.10192397021553      0.13551544464608
  Br  1.29526027213692     -1.85459491888748      1.18106796670734
  H   -1.22532931269330     -0.32362556476645      1.08521523337645
  C   1.56583673455184      0.10320406965371     -0.78360242582361
  N   2.14134134103480      0.27018928096163     -1.79592211111897
  N   1.12192210049304      0.91862978121800      1.47726924307193
  O   2.13290512621966      1.57926430136411      1.29424750712005
  O   0.34489026931667      0.98154140049519      2.41743264213334
  C   -1.16781655929332     -1.08668889268369     -0.95064944949312
  H   -0.66743548131452     -0.87260127843312     -1.89666487948989
  H   -2.24424102846090     -0.99387001607574     -1.10217271223015
  H   -0.94739129915326     -2.11078099148602     -0.64965408977398
  C   -1.06772440720071      1.27235733736651     -0.24727054506079
  N   -1.33576910341933      2.36739835280442     -0.57778061377142
