15
Coordinates from ORCA-job run
  C   0.78816632368610     -0.16367225297287      0.40003109704051
  C   -0.72824686785444     -0.09035917288586      0.14918871518822
  Br  1.28304611841705     -1.88262997963902      1.15175314248606
  H   -1.21043774824698     -0.30953112294811      1.10645004616600
  C   1.55308153215973      0.07702919674428     -0.81133054748568
  N   2.11076342917258      0.23671134590870     -1.83466254956195
  N   1.16494385344927      0.89264184059527      1.45991875725495
  O   0.40723989377615      0.96433062397000      2.41515468531334
  O   2.18281693824787      1.53748698723494      1.25954708699993
  C   -1.20249430495834     -1.06024543110234     -0.93512681789019
  H   -0.98919208408802     -2.08967849730654     -0.64785898787095
  H   -2.28055603263256     -0.95223574374860     -1.06308874023553
  H   -0.71956235989067     -0.84424950741459     -1.88956793262263
  C   -1.05055567519296      1.29150370986787     -0.22008797608198
  N   -1.30901301604476      2.39189800369687     -0.54031997870008
