15
Coordinates from ORCA-job run
  C   0.65183093579985     -0.17622104965400      0.64390325595451
  C   -0.37092128501983     -0.34073268799656     -0.50627116675377
  Br  -0.16470611926873     -0.26646513297676      2.38168635922006
  H   0.22939743254245     -0.34950938418932     -1.42412369620062
  C   1.70848300334281     -1.17232306684826      0.55409894084616
  N   2.54673790195741     -1.99270351224428      0.46577089511968
  N   1.30227157012347      1.21153447687620      0.40598895511563
  O   1.06091210099556      2.12031895301067      1.17866940828730
  O   1.96948230578130      1.25605766821408     -0.62014851310689
  C   -1.38972387272285      0.79863083566028     -0.57588471743051
  H   -1.95641309680124      0.87651671284575      0.35204467723514
  H   -0.89275762157004      1.74949909020404     -0.77564675274006
  H   -2.08590600572227      0.60257341009582     -1.39273644322160
  C   -1.02624101441327     -1.64158728303049     -0.38237600223419
  N   -1.58144623502463     -2.67358902996719     -0.30397520009084
