15
Coordinates from ORCA-job run
  C   0.65521549742507      0.08321733031217      0.65915294965459
  C   -0.37719928163961     -0.50827934788138     -0.33062209670070
  Br  -0.14906797935263      0.68784234194623      2.29691423757184
  H   0.21612572239048     -0.88213775556752     -1.17399521261120
  C   1.70441681738256     -0.87811781896227      0.96189722878335
  N   2.53508158088220     -1.67628681664236      1.19938358676074
  N   1.31359697611640      1.26156802256213     -0.10568328265416
  O   1.97412584635525      0.89479968926683     -1.06964169974314
  O   1.08367005584640      2.40234464566766      0.25051349780160
  C   -1.38749415693204      0.52294871455524     -0.83741950818689
  H   -2.09047554497422      0.02974089742489     -1.51022050221295
  H   -1.94705654909619      0.96381278100274     -0.01237721440882
  H   -0.88441464993342      1.31449376348745     -1.39528742873540
  C   -1.04205285849629     -1.65010140673237      0.29472386049089
  N   -1.60347147597397     -2.56384504043943      0.77366158419027
