15
Coordinates from ORCA-job run
  C   0.74389457570501     -0.26253995679957      0.66188837179863
  C   -0.71453784076848     -0.41524390221369      0.17090796772680
  Br  0.89458855581388     -0.60811521364962      2.55399800477746
  H   -0.96545520679076     -1.47001454856362      0.33409886214455
  C   1.61429123406838     -1.17916771943286     -0.05805721187097
  N   2.26619855846463     -1.96898092992269     -0.63627201460915
  N   1.18735375224515      1.18239788586636      0.36184512503581
  O   0.76812065963017      2.04826231061112      1.11143729474723
  O   1.85239104476519      1.32925206632405     -0.65658116049463
  C   -0.85893748679918     -0.07671998835018     -1.31833552262581
  H   -0.69184095448812      0.98542354205103     -1.50081250700314
  H   -0.15421304196100     -0.65614484302162     -1.91679007754028
  H   -1.87259702913508     -0.32133410003752     -1.63899350892934
  C   -1.63607432311265      0.38870307138336      0.97466348122524
  N   -2.43318249763724      1.02322232575547      1.55900289561757
