15
Coordinates from ORCA-job run
  C   0.76085805894127     -0.15239829698778      0.45156894269481
  C   -0.73724625894791     -0.07958907269934      0.10858244666364
  Br  1.19691034471288     -1.84417719952531      1.29593988921456
  H   -1.27725325377448     -0.25723581727198      1.04330855857149
  C   1.59849320544481      0.03742061732631     -0.71985632649225
  N   2.22000894433079      0.15824949127296     -1.71131708987076
  N   1.08405292682128      0.94071095142838      1.49208776567528
  O   2.12241707310531      1.56404411304072      1.33418969372757
  O   0.26853931378474      1.05822859431236      2.39380204155167
  C   -1.15471716196756     -1.08901894867167     -0.96312926215157
  H   -2.22230588105107     -0.97933590498898     -1.15924300634998
  H   -0.96789221943050     -2.10755521672731     -0.62334025623205
  H   -0.61410454708685     -0.91428600999285     -1.89489760520320
  C   -1.02439926572642      1.28847449729723     -0.33361860641657
  N   -1.25336127915620      2.37646820218727     -0.71307718538260
