15
Coordinates from ORCA-job run
  C   0.78646667466434     -0.15566119853082      0.40380061647861
  C   -0.72882981792143     -0.09724229914750      0.14507800934467
  Br  1.29472510268774     -1.86954750992019      1.15905317989893
  H   -1.21429866938805     -0.32001979523268      1.09986204476423
  C   1.55658738340591      0.09237768756190     -0.80242531319447
  N   2.12354082194180      0.26068946821204     -1.81930403933949
  N   1.14773312205196      0.90421648337226      1.46666257433235
  O   0.38302996968864      0.96961423033810      2.41671846517068
  O   2.16222819969327      1.55646470215312      1.27392430584660
  C   -1.18806865222024     -1.07279859436009     -0.94080791149922
  H   -2.26630081498842     -0.97477506945471     -1.07510545771672
  H   -0.96705729981189     -2.09985957909642     -0.65078812492845
  H   -0.70148533657276     -0.85374302102704     -1.89278081812284
  C   -1.06187302350614      1.28115463548076     -0.22784394231284
  N   -1.32639765972472      2.37712985965126     -0.55804358872201
