15
Coordinates from ORCA-job run
  C   0.74536501228204     -0.22918745218968      0.63669006397630
  C   -0.71082614314412     -0.42479104011443      0.17029236482144
  Br  0.94035579073251     -0.49490236307758      2.54420969783446
  H   -0.90961808965581     -1.49599720501978      0.29787084067423
  C   1.61632673311294     -1.16243037902231     -0.06264914582039
  N   2.25384029513823     -1.96534207280556     -0.63890084090000
  N   1.20442876199110      1.20523426919514      0.32311415726943
  O   2.29214557135611      1.33101087103605     -0.22223350422341
  O   0.42904258948583      2.08848098355999      0.65436296938736
  C   -0.87458616904510     -0.05259209756864     -1.30949689209720
  H   -1.86166715333811     -0.36741957921887     -1.65072445837271
  H   -0.79480223843170      1.02594884318145     -1.44949334900640
  H   -0.12370867425003     -0.55677396450065     -1.92126251917406
  C   -1.67832271064147      0.28875813079801      1.00415483925529
  N   -2.52797357559242      0.81100305574684      1.62406577637573
