15
Coordinates from ORCA-job run
  C   0.74046364996898     -0.14838456090008      0.48300255372351
  C   -0.74320388460834     -0.04721560325451      0.08936891727157
  Br  1.09122534877168     -1.79603086527106      1.44617067636613
  H   -1.31664657699311     -0.14464347262041      1.01593229688128
  C   1.61832382859076     -0.06249780350875     -0.67112787456243
  N   2.27586702084642     -0.02791695441031     -1.64592296611729
  N   1.07344784028871      0.99720146998924      1.46235655394783
  O   2.14185702827585      1.56713931194867      1.30231720123442
  O   0.23379344492419      1.20626367790942      2.32436837241671
  C   -1.16550281401069     -1.10985087358379     -0.92764071891204
  H   -0.59039410358524     -1.01671825623770     -1.85047105251363
  H   -2.22169060724695     -0.97544946831820     -1.16564457920102
  H   -1.02772535523173     -2.10965294845055     -0.51632873174552
  C   -0.96762850893971      1.29829339184546     -0.44832771795658
  N   -1.14218631105090      2.36946295486258     -0.89805293083297
