15
Coordinates from ORCA-job run
  C   0.71856479846508     -0.15531942094642      0.51536333293836
  C   -0.74510220029774     -0.05835791128281      0.05147330123294
  Br  1.04186074404280     -1.82928874407581      1.44281222419951
  H   -1.36186788647146     -0.19369717659877      0.94490496815905
  C   1.65177310135845     -0.02422394983595     -0.59004213436845
  N   2.35391736287863      0.04480348713178     -1.53133378523589
  N   0.98571802011112      0.96308864581449      1.54435694180274
  O   2.04396363677693      1.56490211329889      1.44451115724131
  O   0.10809791681696      1.12273757586695      2.37875618369870
  C   -1.10275251276055     -1.09122530799218     -1.01943487263047
  H   -0.48473549839026     -0.96060990178883     -1.90936516208717
  H   -2.14784625539170     -0.96175302767699     -1.30451061976166
  H   -0.97155661031849     -2.10237836249977     -0.63451318783769
  C   -0.96072707934404      1.30151000374943     -0.45261303383494
  N   -1.12930753747569      2.38181197683600     -0.88236531351630
