15
Coordinates from ORCA-job run
  C   0.72427280846415     -0.15941757028713      0.50624405719249
  C   -0.74487607191840     -0.05056082834317      0.06269405197477
  Br  1.04276626323132     -1.82631375811159      1.44582276951087
  H   -1.35005634759387     -0.16936957044970      0.96635740854207
  C   1.64232813518599     -0.04798597148144     -0.61393373037855
  N   2.33597561800677      0.01047372406397     -1.56220368980430
  N   1.01797396846270      0.96741859857513      1.52017155742470
  O   0.15441699983893      1.14458398375543      2.36538023238473
  O   2.08098587729925      1.55663105995317      1.39876485265254
  C   -1.12947039459293     -1.09010109556866     -0.99244703045935
  H   -0.52335423485692     -0.97397093914770     -1.89255029003707
  H   -1.00303129082296     -2.09907364151082     -0.60031487682872
  H   -2.17725745209416     -0.95206875841629     -1.26324515805252
  C   -0.95310007695079      1.30627183927412     -0.45260057510200
  N   -1.11757380165905      2.38448292769471     -0.88913957901960
