15
Coordinates from ORCA-job run
  C   0.72632999813793     -0.26041221472549      0.67326174154030
  C   -0.72675850832970     -0.40742199357756      0.16142605829904
  Br  0.84559655343408     -0.60759149932293      2.56671816192413
  H   -0.99180070378886     -1.45497586354188      0.34692289626214
  C   1.60235271459409     -1.18252633108463     -0.03292426637825
  N   2.27201344409346     -1.97856271867586     -0.58153791450907
  N   1.18527553632360      1.18149765332796      0.37546129204583
  O   1.80870429670658      1.32366996877077     -0.66987691603531
  O   0.82065932488507      2.04809619618906      1.15161032314840
  C   -0.84960442040997     -0.10666724627028     -1.33809489207268
  H   -1.86305640255615     -0.34724756422801     -1.66279492754539
  H   -0.66554704047981      0.94727772467036     -1.54808450618562
  H   -0.14661387321177     -0.71149250229856     -1.91277810997968
  C   -1.64333313061287      0.43090725437635      0.93468413345983
  N   -2.37521778878568      1.12444913639071      1.53700692602633
