17

C	0.0	0.0	0.0
C	-0.55113	-0.130192	-1.430594
Cl	1.796995	0.0	0.0
H	-1.644676	-0.195821	-1.318249
C	-0.388832	1.328257	0.490349
N	-0.649251	2.385753	0.930004
C	-0.49614	-1.068977	0.963253
H	-0.095763	-2.044114	0.692091
H	-1.588241	-1.081637	0.91895
H	-0.169177	-0.813255	1.972572
N	-0.101934	-1.479225	-2.002872
O	0.789502	-1.465744	-2.852514
O	-0.666446	-2.487844	-1.588589
N	-0.169555	0.960745	-2.245331
H	-0.774503	1.028909	-3.05197
H	0.791117	0.868044	-2.547462
Br	-3.842752	0.0	0.0
