17

C	0.0	0.0	0.0
C	-0.564495	-0.146417	-1.419663
Cl	1.796458	0.0	0.0
H	-1.657003	-0.214578	-1.291337
C	-0.384971	1.332848	0.481801
N	-0.625464	2.397787	0.914559
C	-0.482837	-1.062249	0.980747
H	-1.575834	-1.06721	0.956532
H	-0.13138	-0.805042	1.981297
H	-0.095234	-2.040953	0.702087
N	-0.11621	-1.49747	-1.986415
O	-0.67031	-2.505901	-1.55838
O	0.766986	-1.48763	-2.845184
N	-0.19538	0.939504	-2.249215
H	-0.812236	1.000668	-3.047401
H	0.760716	0.841861	-2.565935
Br	-3.821213	0.0	0.0
