17

C	0.0	0.0	0.0
C	-0.573231	0.034296	-1.424073
Cl	1.796846	0.0	0.0
H	-1.664048	-0.064452	-1.297661
C	-0.383372	1.261043	0.648772
N	-0.619183	2.262637	1.214604
C	-0.483156	-1.174038	0.842395
H	-1.57638	-1.166082	0.827685
H	-0.120928	-1.04923	1.864044
H	-0.109189	-2.112912	0.438108
N	-0.112598	-1.224546	-2.166187
O	-0.644293	-2.289528	-1.866272
O	0.757646	-1.088351	-3.026959
N	-0.230589	1.224494	-2.10785
H	0.717264	1.181014	-2.45961
H	-0.871551	1.390418	-2.871606
Br	-3.831797	0.0	0.0
