17

C	0.0	0.0	0.0
C	-0.313602	-0.079314	-1.557789
Cl	1.794384	0.0	0.0
H	0.463901	0.57037	-2.02249
C	-0.394288	1.266557	0.620812
N	-0.681148	2.309629	1.079068
C	-0.337095	-1.261876	0.84761
H	0.081898	-1.115525	1.84796
H	-1.417569	-1.41986	0.907262
H	0.154165	-2.097545	0.350111
N	-1.580461	0.588275	-2.318645
O	-2.140227	-0.164006	-3.105029
O	-1.729895	1.796509	-2.231983
N	-0.155539	-1.411792	-1.968307
H	-0.096168	-1.457617	-2.979345
H	-0.967126	-1.953668	-1.696266
Br	-3.479424	0.0	0.0
