16
Coordinates from ORCA-job run
  C   -0.60327567875795     -0.47114064681885      0.12902432517787
  C   0.47409091223009      0.54541611828303     -0.28799151638862
  Br  -0.52419677349226     -0.70773730808283      2.14161998159153
  H   0.36785071158017      0.67416894272525     -1.36739204720615
  N   -1.84397391389726      0.07573065734931     -0.28703026200906
  H   -2.62064764974740     -0.50067555031201      0.01216659584165
  H   -1.95305323646032      1.02099612424957      0.06299949717278
  N   -0.30159377614455     -1.77083009027806     -0.39021696173636
  H   -0.41821606278579     -1.75696454094788     -1.39856586017009
  H   -0.91256891728284     -2.47153240369975      0.00926601415088
  N   1.85884403713262     -0.06817357583008     -0.13396576623726
  O   2.43627659479656      0.11058611066686      0.93436593941952
  O   2.29936903881041     -0.67161716696377     -1.10729850801976
  N   0.30613133509897      1.78674880568453      0.37898117768835
  H   0.56871255517217      1.69543111950512      1.35350128909301
  H   0.86725082374738      2.51059340446957     -0.05046389836827
