16
Coordinates from ORCA-job run
  C   -0.59412906667730     -0.34499924884959     -0.28507319845697
  C   0.74006204794709      0.43431871369735     -0.36738740345975
  Br  -1.49155731747878      0.05184971006906     -2.06767624994319
  H   1.30570515595411      0.11931177309263     -1.24377964275002
  N   -0.34589418194669     -1.71771087964557     -0.08857265596055
  H   -1.19699086601989     -2.26205619284514     -0.03988424825263
  H   0.28920135718133     -2.11833312557574     -0.76827794914486
  N   -1.45971053160758      0.24583021978992      0.69625117592588
  H   -2.42363965226889     -0.02559596362400      0.55557941603485
  H   -1.14509980453596     -0.03224090663868      1.62023350426355
  N   1.56682256627758     -0.05660670390263      0.81029231504987
  O   2.51628200189624     -0.79298670914972      0.55916314296600
  O   1.20816155280100      0.30757651174853      1.92506363911031
  N   0.62964939239011      1.84563657753727     -0.29237687648811
  H   0.62280766346915      2.25407878667803     -1.21492851606773
  H   -0.22067031738150      2.09092743761828      0.20237354717335
