16
Coordinates from ORCA-job run
  C   -0.62699904800407     -0.49483894345518     -0.18290146140954
  C   0.62241067517951      0.36457242283446     -0.41264819474414
  Br  -1.71048560384454     -0.14916938411479     -1.93497612850433
  H   1.14200476824194     -0.02141794063989     -1.29888098607516
  N   -0.35897393855926     -1.89972169723215     -0.27124432086571
  H   -1.19884597097499     -2.41443912925637     -0.49906524240113
  H   0.01785261026964     -2.20872172104211      0.61659403991489
  N   -1.28986597489899     -0.05098088700871      0.95691372904157
  H   -2.16900673843066     -0.51716982323140      1.13043097303112
  H   -1.36782788606480      0.95871758122785      0.98551299745038
  N   1.62900027055945      0.16817692140934      0.71834835093971
  O   1.63021586932461     -0.89017128399550      1.33428310010598
  O   2.43118371454123      1.08218933257435      0.88745313888771
  N   0.28580669102029      1.76650895382409     -0.41366124515414
  H   1.13296510872056      2.31376431746524     -0.32756540639025
  H   -0.16943454707993      1.99270128064077     -1.28859334382696
