16
Coordinates from ORCA-job run
  C   -0.55514187548860     -0.40751044195416      0.20842880579217
  C   0.55866386978752      0.56983578328453     -0.26000679283125
  Br  -0.40341892133623     -0.62491632329507      2.20802312154694
  H   0.34388685242377      0.75462987441704     -1.31624047245846
  N   -1.80685283750762      0.31311992837149      0.01273083558542
  H   -2.19445716587076      0.04798740168745     -0.88614748737827
  H   -2.47717319558436      0.10427808862587      0.73961204123683
  N   -0.42959828906847     -1.64956928290666     -0.42464695758766
  H   0.19805903517594     -1.71688500992805     -1.21000336647818
  H   -1.26401888192655     -2.20818831469954     -0.48280636004045
  N   1.88694003068331     -0.12995285312187     -0.25394724612871
  O   2.16810498687532     -0.78556329983233     -1.25977275890516
  O   2.58240395280242     -0.01839025509562      0.74727526597218
  N   0.69023018422367      1.81195875945155      0.42178537900689
  H   0.89933494832698      1.64609085766417      1.39906982595142
  H   -0.19896269351633      2.29307508733119      0.35764616671633
