16
Coordinates from ORCA-job run
  C   -0.59707147981722     -0.46798921705326      0.16340514006672
  C   0.46919941673865      0.52642547353569     -0.32891577257041
  Br  -0.53564862934551     -0.53240686016938      2.18883830500843
  H   0.37183085575451      0.56087831543617     -1.41625784965223
  N   -1.84125115254243      0.02154746129801     -0.30944837437450
  H   -1.96816012619360      0.99176867053863     -0.04390323868592
  H   -2.61309958487223     -0.53867505414157      0.03014317890217
  N   -0.27066777723138     -1.80215443950723     -0.24176292817439
  H   -0.87042038029921     -2.47677596058618      0.21540050432947
  H   -0.38533537634606     -1.87647482876712     -1.24769570812627
  N   1.86104937473459     -0.04923260109466     -0.11055292813549
  O   2.32260997273491     -0.72372806094528     -1.02577507829155
  O   2.42296197645128      0.22630268215814      0.94555583471880
  N   0.27541221223382      1.81725606247770      0.22832497493881
  H   0.52858078843946      1.81333586116709      1.20955719889575
  H   0.83000990956041      2.51092249565323     -0.25591325884939
