16
Coordinates from ORCA-job run
  C   -0.62931301334316     -0.34105106641306     -0.15433795510609
  C   0.60341189751987      0.57031631326666     -0.32566208781825
  Br  -0.57442468927854     -1.62982051781733     -1.82308268321477
  H   0.49251093461595      1.13819116735206     -1.24875929557135
  N   -0.60940022433070     -1.06106311387724      1.04714624035523
  H   -1.40949861798242     -1.67336052727843      1.14042356293053
  H   0.24824981636170     -1.58909753333771      1.14597687748661
  N   -1.78161606473565      0.47891480178470     -0.24392856551617
  H   -2.60398223256251      0.01340770727438      0.11873328845655
  H   -1.95867613183726      0.75753986120208     -1.20011174302656
  N   1.86112068735903     -0.23111722300847     -0.51277931585232
  O   2.53475772195253     -0.01169750307406     -1.50990434270468
  O   2.14671439620877     -1.01570188910057      0.39265027196073
  N   0.83506085808728      1.45228254881705      0.78112959779454
  H   0.15419093791969      2.19967726831441      0.74561608534392
  H   0.69189372404541      0.94457970589554      1.64689006448207
