16
Coordinates from ORCA-job run
  C   -0.59502718357637     -0.34323865359341     -0.38722699160162
  C   0.72183581698073      0.45508294603395     -0.37711448994589
  Br  -1.40482302542594      0.02743653138273     -2.14220168323624
  H   1.29673116524650      0.19625735128314     -1.26472005390584
  N   -0.28077750284970     -1.75637515699335     -0.37974479308474
  H   -1.07549549407812     -2.30014375546750     -0.69287839560905
  H   -0.05221005794496     -2.03385688820238      0.56939160017222
  N   -1.50585539647040      0.19825140945955      0.59445013246911
  H   -2.42966222724900     -0.20245601740761      0.48954648873409
  H   -1.14146876813143     -0.01248970185311      1.51801298479593
  N   1.59474591766219     -0.06771723853324      0.76523961164418
  O   1.03776816222202     -0.38499234729611      1.81997737866871
  O   2.80225199172696     -0.07642143976395      0.57288923183412
  N   0.57254587287673      1.85363311006011     -0.18980047317979
  H   0.82533097486971      2.37963209661930     -1.01058139194639
  H   -0.36889024585891      2.06739775427187      0.11476084419119
