16
Coordinates from ORCA-job run
  C   -0.65347367773014     -0.32451639243159     -0.40799145954371
  C   0.69010306207395      0.44314669913276     -0.34299392080027
  Br  -1.33613561344686      0.05724192025480     -2.23414676792198
  H   1.31579564473552      0.15755898371505     -1.18797876212990
  N   -0.55868262646960     -1.75468575541409     -0.30861930975568
  H   -0.32598789280965     -2.02661120973564      0.63989348833150
  H   0.11281331219493     -2.14850583214786     -0.95709147697153
  N   -1.56960843655072      0.24339009433990      0.53023357043735
  H   -2.44293458028849     -0.26891661456126      0.50748232235080
  H   -1.16829571346861      0.21473823106849      1.46257196619143
  N   1.43777055502707     -0.14234385889479      0.85419389460934
  O   2.44647590447580     -0.80264390310070      0.62015150273459
  O   0.95885607480091      0.05828271828101      1.96932085792330
  N   0.58015070515296      1.84701350130295     -0.18930513813773
  H   -0.36516162741386      2.10763888278052      0.06011329916917
  H   0.88031490971680      2.33921253541045     -1.01583406648668
