16
Coordinates from ORCA-job run
  C   -0.61374169715491     -0.49598308168190     -0.26842459561637
  C   0.53633420647119      0.50439220668773     -0.52243060414719
  Br  -1.56610019943021     -0.64138794847300     -2.06152496845658
  H   0.91668399904033      0.38580144418075     -1.53308040668050
  N   -0.08567067848402     -1.80951424113953     -0.01666759121622
  H   0.12345087087106     -1.89083905828861      0.97345233597892
  H   -0.73853901290657     -2.53078207897609     -0.28912235505238
  N   -1.47085876569464     -0.01508914644773      0.74269517832236
  H   -2.20500990799613     -0.68101595950911      0.94667303805274
  H   -1.87333267303689      0.88016881241473      0.49218932645290
  N   1.71058111019079      0.07939473360566      0.35669804957173
  O   1.57475417656820      0.23964122255676      1.56967724062042
  O   2.70329761531117     -0.37040216394040     -0.20474265537938
  N   0.13032946766258      1.84240223651997     -0.25706413255853
  H   0.09282969003136      1.99157951735967      0.74509587983469
  H   0.76399179855670      2.51063350513109     -0.67442373972661
