16
Coordinates from ORCA-job run
  C   -0.60508115156604     -0.48576778530319      0.04030249214268
  C   0.57115912413628      0.50385901272155     -0.22648541009073
  Br  -0.43750508783201     -0.98029625850185      2.02811295141067
  H   0.57855282522201      0.65807569517869     -1.30956886009517
  N   -1.90118461291042      0.11201712455202     -0.05781786836270
  H   -2.07866301397475      0.38496726532620     -1.01781972845318
  H   -2.01860518009592      0.88860232781131      0.57699235652086
  N   -0.57730798955631     -1.57222885339313     -0.83693536065526
  H   0.32071235862896     -2.03166018214062     -0.89155550409774
  H   -1.33157210428038     -2.21717369482610     -0.64335295833043
  N   1.89509114997737     -0.17612909260544      0.07399878798121
  O   2.54526302835518      0.21714857043758      1.03009276273878
  O   2.20524672553608     -1.10545327444981     -0.67427012128452
  N   0.54749722074889      1.75565846932725      0.43948294767069
  H   -0.12444991466346      2.38652959066903      0.03073263699155
  H   0.41184662227453      1.66085108519649      1.43709087591329
