16
Coordinates from ORCA-job run
  C   -0.61662122891473     -0.44256741614308      0.07580954909088
  C   0.48848384815299      0.57334898795944     -0.28775800939353
  Br  -0.17487895520245     -1.15929676914618      1.94320572532451
  H   0.49454895836939      0.67062698782999     -1.37865585799582
  N   -1.85290449464968      0.25178119638759      0.27594158816939
  H   -2.59150644769313     -0.40707842480994      0.49288840715148
  H   -2.08988044500594      0.76050339514756     -0.56930845249767
  N   -0.66833049042422     -1.47693839587519     -0.88745700345003
  H   0.23626627462096     -1.91323855879785     -1.02175063776634
  H   -1.35698182800951     -2.17580589176607     -0.63713642390443
  N   1.87577309727326     -0.06042482719213     -0.01457461523691
  O   2.62906808795209      0.53058145267843      0.74645322058840
  O   2.14187230323723     -1.09119990183134     -0.62937479019539
  N   0.29709831850547      1.81781219242690      0.33820382270693
  H   1.10727528441287      2.41271582990042      0.23101145322857
  H   0.08071771737541      1.70718014323146      1.32050202417997
