16
Coordinates from ORCA-job run
  C   -0.61804676396939     -0.37929556893594     -0.45020139838017
  C   0.59154101613379      0.56519204750376     -0.43398052174794
  Br  -1.59856295982517      0.03237829553891     -2.09517304591942
  H   1.16468709087126      0.43513542503664     -1.35128542764577
  N   -0.13067415520217     -1.73622483413163     -0.60258067252036
  H   -0.87053547857877     -2.34016257856420     -0.93822351463693
  H   0.18276088946531     -2.07632106694061      0.30027641645612
  N   -1.50375955750264     -0.05972898559400      0.65211837905067
  H   -1.09724276377970     -0.43093258666936      1.50407080791672
  H   -2.41688748352115     -0.47154020236082      0.50632072299894
  N   1.58094989476832      0.08711729626698      0.65205291511273
  O   2.75047628438443      0.41469494586334      0.48054973170833
  O   1.15022862654796     -0.49717350386729      1.65064506687109
  N   0.21809135848262      1.91006981253065     -0.23378714715576
  H   1.00718768754821      2.53863144851809     -0.19215573094243
  H   -0.41121368582292      2.00816005580550      0.55135341883419
