16
Coordinates from ORCA-job run
  C   -0.57345409547827     -0.51747175672071      0.08328241119774
  C   0.51824663188276      0.54166967509816     -0.26354384626119
  Br  -0.16428244461708     -1.08211606699170      2.01706285042699
  H   0.39903527347595      0.73995149313042     -1.33282612129279
  N   -1.89916121880602      0.01543380482170      0.15358269495976
  H   -2.19509320989139      0.31544715131371     -0.76833956322345
  H   -1.98277337073685      0.75910068964961      0.83160939191122
  N   -0.59137529110127     -1.56497297352354     -0.84020749731717
  H   -1.28837261306618     -2.25537342665466     -0.59556283843602
  H   0.31584564725237     -1.97439513431537     -1.01281490969946
  N   1.89778402249015     -0.08057610230994     -0.13959911259655
  O   2.63039176071796      0.30677833475497      0.75742560037772
  O   2.16669744126255     -0.96142211501107     -0.95905962747346
  N   0.50938912742461      1.76259365768895      0.45790154648409
  H   0.48839228425259      1.62043475455623      1.45889183930795
  H   -0.23226994506188      2.37391801451326      0.15319718163463
