16
Coordinates from ORCA-job run
  C   -0.59191124941564     -0.59379561576461     -0.35206341112515
  C   0.41707514812886      0.57934595709888     -0.28815876021783
  Br  -0.38515965805075     -1.56122678386313     -2.03941300777501
  H   0.21915462870346      1.25323328997604     -1.12158893324134
  N   -0.31410065283417     -1.50377762132726      0.72206492026945
  H   -0.47177739823717     -1.01826079383716      1.60039000528791
  H   -0.98931579516747     -2.25922873410229      0.67335676510497
  N   -1.95536500619616     -0.10230576206677     -0.33510925919212
  H   -2.02891176991330      0.56145025512320      0.43134679810218
  H   -2.18610423859920      0.37240328076682     -1.20082851231792
  N   1.85275266349431      0.11795924280159     -0.49343450158352
  O   2.29054559931427      0.15480379161746     -1.63928923160138
  O   2.47042668832503     -0.24015813966208      0.50610465783880
  N   0.26055501746738      1.24368644163409      0.97441519210929
  H   0.85686885095541      0.78614574189023      1.65668704360663
  H   0.55426717202514      2.20972544971500      0.90652023473503
