16
Coordinates from ORCA-job run
  C   -0.68764970891837     -0.46321601474923     -0.31883502179535
  C   0.54032519810253      0.48463538036728     -0.44121080352500
  Br  -1.53517244625857     -0.34202264809445     -2.17907676916488
  H   1.01312010212081      0.35955289629280     -1.41250642437695
  N   -0.43713923542047     -1.85144055914900     -0.11249067889155
  H   -0.07460403581180     -2.00045816620864      0.82228367384205
  H   0.19825646019183     -2.23374555735221     -0.79900097933113
  N   -1.53200934893911     -0.00741155659024      0.70485780178350
  H   -1.85590190372051      0.93390390426101      0.52535247104556
  H   -2.31617508312046     -0.63822571369761      0.81380384497214
  N   1.58660454838488     -0.04040055397943      0.54503375876517
  O   1.55811392201208      0.39833393182112      1.69189174679514
  O   2.35884683819300     -0.89812423884526      0.12104375501448
  N   0.18749206136076      1.83586362226269     -0.18873010164992
  H   0.13117078266432      1.98831347389511      0.81192560099342
  H   0.86272184915907      2.47544179976607     -0.58434187447669
