16
Coordinates from ORCA-job run
  C   -0.65676085807640     -0.40341226729225     -0.36592274292616
  C   0.61041209372265      0.44554999864976     -0.53556758965114
  Br  -1.66884555361643     -0.19629705090753     -2.03055707185008
  H   1.14036138456493      0.12978149147308     -1.43350422530603
  N   -0.26321923242337     -1.79755825664230     -0.30671472399015
  H   0.05948200233534     -2.00850588651576      0.63157620413261
  H   -1.05182794823276     -2.39489840428182     -0.52124577148195
  N   -1.47943887936685      0.15066705935159      0.69148386703071
  H   -1.06559319569568     -0.10440434166024      1.58179328980275
  H   -2.42103374356602     -0.21733777924078      0.63965258912090
  N   1.60618252811464      0.08162998265584      0.58864754241100
  O   1.17561844278211     -0.30293685185292      1.67986426547845
  O   2.78721099721066      0.29605189224641      0.33629210038407
  N   0.33130531142463      1.82756511354417     -0.54906682832334
  H   1.16009695466420      2.39850303062461     -0.63048929503394
  H   -0.26195030384165      2.09460226984814      0.22475839020230
