16
Coordinates from ORCA-job run
  C   -0.63362754313256     -0.47558110926296      0.11988483639234
  C   0.52860460741827      0.49253020523106     -0.19375730419937
  Br  -0.69401317539008     -0.73605464487790      2.14342626195211
  H   0.42215705992993      0.73349266711919     -1.25462370478215
  N   -1.91502999055273      0.09402639237057     -0.19565422927364
  H   -1.96737989859587      0.25663642098818     -1.19603874837219
  H   -2.07384508718533      0.95509935601713      0.30932959728417
  N   -0.51083793981769     -1.66832453125278     -0.60987121589894
  H   -1.35143404271951     -2.22261314443042     -0.50550262941020
  H   0.30649310252309     -2.19798361673893     -0.33916556238089
  N   1.90488528197446     -0.18772839941153     -0.15912398299623
  O   2.78624306192315      0.40832844864224     -0.76405143984570
  O   2.04901099899234     -1.23449824695423      0.47057718560894
  N   0.60617356312818      1.67883624899457      0.57202865218566
  H   0.24000362237618      1.59214717243877      1.50755837765111
  H   0.30359637912815      2.50968678112704      0.09498390608499
