16
Coordinates from ORCA-job run
  C   -0.69825838883927     -0.37498433387429     -0.42739311483327
  C   0.63989580266510      0.40066311047445     -0.48228248080963
  Br  -1.46486690756980     -0.22326146995093     -2.23794862758724
  H   1.27155021975995      0.00050542661645     -1.27662716601385
  N   -0.57516142913009     -1.78650689433597     -0.16954850587176
  H   -0.27266794209693     -1.95046104374697      0.78414114028661
  H   0.06336121585036     -2.24163762024201     -0.81120998804427
  N   -1.58212407765015      0.28141246566968      0.49115925264793
  H   -2.46457239213229     -0.21565698509595      0.51516549831586
  H   -1.17008543131490      0.28789427983524      1.41947336170154
  N   1.40040773146687     -0.02904433944678      0.79417684088804
  O   2.31286508403113     -0.84091602186450      0.65943027864291
  O   1.02699080064267      0.45463322069101      1.86426061944502
  N   0.45288934877501      1.78532544617268     -0.59823047930698
  H   1.30864888220744      2.31895263818594     -0.56404513668313
  H   -0.24887251666509      2.13208212091196      0.03947850722222
