16
Coordinates from ORCA-job run
  C   -0.57331860163245     -0.46277622102424     -0.25331871172803
  C   0.64904178077599      0.46556454194545     -0.49009038394318
  Br  -1.85962583505789      0.00482720696640     -1.77650392705558
  H   1.14040573081803      0.10730753091599     -1.39502776989469
  N   -0.22691021256742     -1.82542969336494     -0.50737443537904
  H   -1.04087504216105     -2.42583556903312     -0.47006418929820
  H   0.46915257236354     -2.13690455436051      0.16058690920260
  N   -1.14287270332581     -0.21275051308387      1.01371009659063
  H   -1.92443786230464     -0.82571002190767      1.20711909006318
  H   -1.43309982292834      0.74958358981018      1.13483590543328
  N   1.60582817004785      0.18144362708296      0.64963005913839
  O   1.62303247628718      0.97047312388535      1.58632653953747
  O   2.26827303352168     -0.85109714063174      0.56913562064663
  N   0.46153932423873      1.88019429563902     -0.53402457495716
  H   0.18000717658665      2.25314167694451      0.36207305377138
  H   -0.19714018466206      2.12896812021623     -1.25801328212769
