16
Coordinates from ORCA-job run
  C   -0.61261173074394     -0.50304761952233     -0.20291109413292
  C   0.50104806072824      0.56113442078517     -0.33584076303383
  Br  -0.49653170404689     -1.62233912523360     -1.88996956119249
  H   0.31900330362002      1.15370978157382     -1.23177367958357
  N   -0.48209760868388     -1.22550863932594      0.99512192862459
  H   -1.25813894053863     -1.86449619623027      1.10732321229734
  H   0.41165549299440     -1.69265301846096      1.07351728478321
  N   -1.93601744623415      0.05629236938336     -0.22681605744509
  H   -2.13322994729754      0.51659162371044     -1.10565775675799
  H   -2.03792274182139      0.70518074409774      0.54531871364516
  N   1.85284439668251     -0.08030422151809     -0.58847725851678
  O   2.23523948594798     -0.91290749167263      0.23174723333900
  O   2.48800728957603      0.31278411014604     -1.55965556310597
  N   0.62682392090447      1.38246993961514      0.82251856720868
  H   0.29791592396060      0.91405265988785      1.65516851470996
  H   0.22601224495219      2.29904066276425      0.71038627916070
