16
Coordinates from ORCA-job run
  C   -0.58166426380800     -0.61326949964920     -0.33335409142999
  C   0.41317419212849      0.57292393380017     -0.30654018528962
  Br  -0.34537755262891     -1.64604521109449     -1.97755858884542
  H   0.21491601947396      1.21273148155213     -1.16632187758614
  N   -0.30590263596663     -1.47552721447097      0.77996621756435
  H   -0.48241389327882     -0.95764630664257      1.63593982935226
  H   -0.96932362295143     -2.24239124478340      0.75292006166322
  N   -1.95084013619212     -0.13779423951328     -0.35084941084040
  H   -2.04188077865553      0.55269576431628      0.38966807125302
  H   -2.17647939223225      0.30181626020874     -1.23623193526334
  N   1.85597697486564      0.12068126854470     -0.48398221509554
  O   2.30295646006481      0.12353649975787     -1.62694646038086
  O   2.46919055947929     -0.19522829756211      0.53235877149535
  N   0.23964524457744      1.28226474579739      0.92867972519557
  H   0.52637106310390      2.24756997818094      0.82830885260762
  H   0.83265176202013      0.85468208155782      1.63294323559994
