16
Coordinates from ORCA-job run
  C   -0.58039229872836     -0.43150516209457     -0.09183474722105
  C   0.67011632611831      0.39925638981150     -0.44590620403397
  Br  -1.76589420829332     -0.03183337740532     -1.93315541995097
  H   1.04077764641115      0.07666459117904     -1.41728948154575
  N   -0.32004952184794     -1.78500477974900      0.00048882049064
  H   0.28570194502446     -2.13417692377334     -0.72816267308750
  H   -1.14461838438565     -2.36176807628081      0.09388180303236
  N   -1.28904300067683      0.07352233116742      0.98844455306348
  H   -1.66647176269960      0.99197714727047      0.80857113881688
  H   -2.01412227900263     -0.54513314957000      1.32519899480339
  N   1.74048339440707     -0.01079235953943      0.54281437198019
  O   1.77366693547578      0.58376662771443      1.61323521124223
  O   2.47981812591036     -0.92790664907762      0.19439181879029
  N   0.56239577883693      1.81815235999047     -0.39710798787747
  H   0.32595998548167      2.13558701499528      0.53360703729966
  H   -0.09732868203140      2.15019401536149     -1.08717723580242
