16
Coordinates from ORCA-job run
  C   -0.58079558256559     -0.35580765690666      0.15989234293733
  C   0.54996876466489      0.61210713617188     -0.27756273537641
  Br  -0.51891952416123     -0.62307443754233      2.15826653030082
  H   0.29979860862436      0.87926875134653     -1.30609019769306
  N   -1.81459104170042      0.36090094772052     -0.07809521904997
  H   -2.06692514658119      0.23317342580207     -1.05374959148632
  H   -2.56195240030353      0.01181543453117      0.50734880005781
  N   -0.50247595746978     -1.57144551013285     -0.56171275193215
  H   0.34760605517156     -2.09252574703985     -0.38187886471361
  H   -1.29987819896134     -2.16395228217440     -0.36575526993721
  N   1.84474441985278     -0.13522189416203     -0.37940329058173
  O   2.24362176687132     -0.43255225624239     -1.50332566630628
  O   2.39958082541657     -0.41464727348518      0.68143317589834
  N   0.77455697054428      1.79018604682552      0.49175862859491
  H   0.94835883139468      1.54107036951559      1.45843320806836
  H   -0.06169839079734      2.35970494577244      0.45044090121917
