16
Coordinates from ORCA-job run
  C   -0.61197186568866     -0.47130041773157     -0.08238081953685
  C   0.61228055966127      0.49543999143364     -0.10623410707474
  Br  -0.81290858106381     -1.01991600185093      1.88824219917994
  H   0.81634037818860      0.67642777790780     -1.16573054082815
  N   -1.85771129296778      0.16001404543315     -0.39261550238942
  H   -1.85527417213703      0.46102840800061     -1.36060423650778
  H   -2.07227644512019      0.92265624601923      0.23364547610786
  N   -0.44873417356797     -1.53551102307813     -0.97202173112647
  H   0.43548656895548     -2.01513347190699     -0.87890161859594
  H   -1.23777932108022     -2.16669728457427     -0.93520597488348
  N   1.84721732936988     -0.22410249369090      0.40536334054198
  O   2.32226706892061      0.12769812129006      1.47407740921898
  O   2.26894975239477     -1.14058690896514     -0.30315556938566
  N   0.49500583379539      1.73062746626954      0.58106193326304
  H   0.18263385797831      1.61321375693114      1.53574467395382
  H   -0.08352549763865      2.38614178851276      0.07871506806288
