16
Coordinates from ORCA-job run
  C   -0.58727211310973     -0.40696724699668     -0.05759258145314
  C   0.59776895116206      0.56858126872429     -0.26379856441815
  Br  -0.30940567247604     -1.14875590075679      1.92974321783888
  H   0.58289354257140      0.80062614700946     -1.33227741667451
  N   -1.78698834301427      0.34058793721334     -0.08128452811765
  H   -1.94589137241472      0.82307967178874      0.79163340972259
  H   -2.58441173976473     -0.24400073349366     -0.29504324737692
  N   -0.61790636259060     -1.44448555351766     -0.98580440722259
  H   -1.30987666624471     -2.14803752212374     -0.76416064761567
  H   0.29140758802787     -1.86314410505392     -1.12784139524542
  N   1.91006476932812     -0.15228017010221     -0.03628662888815
  O   2.16715955511448     -1.05894439473399     -0.83165854637841
  O   2.61206796852932      0.19378321321128      0.90035725400228
  N   0.59399798952989      1.76824873344660      0.49188880123826
  H   0.52858167037951      1.58987425658136      1.48579165216160
  H   -0.14218976502787      2.38283439880357      0.17633362842702
