16
Coordinates from ORCA-job run
  C   -0.63716677258331     -0.35537658670882     -0.29904484283223
  C   0.64701408624331      0.47621866350825     -0.47477012366831
  Br  -1.70445458829624      0.00434635943740     -1.91286309488554
  H   1.09147418942205      0.23748958791188     -1.43952678739199
  N   -0.29034219114175     -1.76015990477729     -0.35095147066265
  H   0.07760144121911     -2.03822793638798      0.55316428092535
  H   -1.10757388337521     -2.32247137012731     -0.55398660964598
  N   -1.40623958750981      0.15641451933804      0.81111063996504
  H   -0.90299923310043     -0.04727605124613      1.66868778610785
  H   -2.32387114066474     -0.27033739234560      0.84105847382524
  N   1.69057768952648     -0.03286623540825      0.52136096749774
  O   2.85594514910864     -0.01715452844476      0.15130164314453
  O   1.30353560836408     -0.36596312161122      1.64496795357492
  N   0.49348398139465      1.86901746233768     -0.25317906802866
  H   0.61030897979928      2.40736261921866     -1.09627551681750
  H   -0.39729372840612      2.05798391530544      0.18894576889221
