16
Coordinates from ORCA-job run
  C   -0.67756969297934     -0.48971578704155      0.06940863169621
  C   0.46368076224095      0.50247751476820     -0.27311716906907
  Br  -0.54556080514927     -0.73430870834600      2.11467811854342
  H   0.50775889501286      0.55197126042272     -1.36468099912944
  N   -1.87100876691285      0.10652443158431     -0.35095131496595
  H   -1.95671436241657      1.06183405702495     -0.03305141920881
  H   -2.66974765809827     -0.46175245922131     -0.10288685867318
  N   -0.62806309988723     -1.81301754701883     -0.45205423290192
  H   -0.73663567490613     -1.76866870473215     -1.45932822753290
  H   0.23948883086100     -2.27794774935836     -0.22342705901767
  N   1.82111052962388     -0.08794712003688      0.12001879238056
  O   2.17337171643595     -1.09890812364162     -0.48539910797144
  O   2.46736407623996      0.49058650496309      0.98538809676253
  N   0.22120046824624      1.78394387556596      0.27872277106945
  H   0.34117733304449      1.75837522493716      1.28463805425279
  H   0.85014744864434      2.47555333013032     -0.10695807623456
