13

C	0.0	0.0	0.0
C	-0.252244	-0.377852	-1.493794
Cl	1.790105	0.0	0.0
H	0.474908	0.190904	-2.077422
H	0.042776	-1.430532	-1.556818
C	-0.375606	1.401947	0.276142
N	-0.567541	2.530713	0.542981
N	-0.526364	-0.982891	0.886657
H	-1.548194	-0.967621	0.728983
H	-0.371293	-0.683271	1.844192
C	-1.509607	-0.209477	-2.22893
N	-2.233543	-0.143161	-3.154665
Br	-3.566605	0.0	0.0
