13

C	0.0	0.0	0.0
C	-0.503976	0.192216	-1.433761
Cl	1.785578	0.0	0.0
H	-1.604656	0.214929	-1.381847
H	-0.191289	-0.689661	-1.999129
C	-0.354818	1.170369	0.837454
N	-0.596031	2.086251	1.533839
N	-0.506802	-1.252767	0.47915
H	-1.532889	-1.185802	0.422347
H	-0.257538	-1.363306	1.456011
C	0.000918	1.401291	-2.070041
N	0.393448	2.365702	-2.612577
Br	-3.672602	0.0	0.0
