13

C	0.0	0.0	0.0
C	-0.474621	-0.105663	-1.465946
Cl	1.794007	0.0	0.0
H	-0.076846	0.719227	-2.062764
H	-1.573411	-0.042826	-1.4263
C	-0.383997	1.327782	0.513279
N	-0.618327	2.39304	0.947359
N	-0.48841	-1.012864	0.885985
H	-1.509009	-0.896317	0.915825
H	-0.28312	-1.924113	0.487003
C	-0.073686	-1.378687	-2.051346
N	0.231153	-2.414254	-2.51312
Br	-3.645552	0.0	0.0
