13

C	0.0	0.0	0.0
C	-0.513087	-0.20765	-1.429048
Cl	1.832514	0.0	0.0
H	-1.615028	-0.119718	-1.353651
H	-0.265733	-1.227992	-1.739343
C	-0.361875	1.334242	0.497601
N	-0.556105	2.424342	0.888358
N	-0.539736	-0.997479	0.826357
H	-0.187182	-1.921856	0.629778
H	-0.530113	-0.776854	1.80871
C	0.034976	0.739159	-2.392292
N	0.455192	1.486448	-3.195526
Br	-3.778186	0.0	0.0
