15

C	-0.544947	-0.000212	-1.428012
C	0.0	0.0	0.0
Cl	0.124056	-1.408887	-2.265853
H	1.092871	0.0	0.0
C	-2.001708	-0.038362	-1.49047
N	-3.174242	-0.122684	-1.515428
N	-0.059371	1.240144	-2.209103
O	0.959455	1.771491	-1.807069
O	-0.724689	1.522805	-3.196542
C	-0.484545	-1.166016	0.721982
N	-0.887844	-2.108096	1.296748
N	-0.464263	1.224702	0.748884
O	-0.142208	1.282129	1.925611
O	-1.105315	2.065874	0.119175
Br	3.281054	0.0	0.0
