15

C	-0.504521	0.082752	-1.445942
C	0.0	0.0	0.0
Cl	-2.251526	0.352898	-1.497769
H	1.092548	0.0	0.0
C	0.165791	1.0781	-2.271478
N	0.621306	1.844129	-3.038553
N	-0.18359	-1.30924	-2.089869
O	-1.069371	-2.146669	-2.08523
O	0.960203	-1.418094	-2.501748
C	-0.531232	-1.163743	0.685326
N	-0.93026	-2.130196	1.222071
N	-0.395796	1.256988	0.727133
O	-0.907042	1.144373	1.834807
O	-0.130122	2.305161	0.151864
Br	3.230917	0.0	0.0
