15

C	-0.536623	0.001923	-1.431246
C	0.0	0.0	0.0
Cl	0.122152	-1.416747	-2.260875
H	1.092904	0.0	0.0
C	-1.992782	-0.01952	-1.504963
N	-3.165752	-0.09019	-1.540943
N	-0.033062	1.233571	-2.215188
O	0.998893	1.743832	-1.821146
O	-0.700233	1.530519	-3.197539
C	-0.491899	-1.1598	0.725559
N	-0.901328	-2.098006	1.302616
N	-0.445122	1.235726	0.738759
O	-0.135626	1.292334	1.919195
O	-1.056942	2.089206	0.097855
Br	3.278706	0.0	0.0
