15

C	-0.492363	0.010329	-1.440035
C	0.0	0.0	0.0
Cl	0.142627	-1.436433	-2.247064
H	1.092921	0.0	0.0
C	-1.940832	0.040506	-1.563274
N	-3.114117	0.000691	-1.637091
N	0.098353	1.227719	-2.196479
O	1.213279	1.570638	-1.852475
O	-0.576711	1.688559	-3.102023
C	-0.521108	-1.125397	0.736142
N	-0.944517	-2.050812	1.331962
N	-0.425175	1.255133	0.711289
O	-0.050019	1.351913	1.873744
O	-0.992035	2.124791	0.044992
Br	2.740676	0.0	0.0
