13

C	-0.147242	0.172208	-1.521055
C	0.0	0.0	0.0
F	-1.350605	0.794594	-1.890386
H	1.094343	0.0	0.0
H	-0.422764	-0.93744	0.361815
N	0.957024	0.943231	-1.960792
H	1.126656	0.838225	-2.950879
H	1.793508	0.694158	-1.388818
C	-0.225665	-1.169624	-2.169764
N	-0.216535	-2.214074	-2.710712
C	-0.542113	1.130122	0.724816
N	-0.971642	2.029269	1.346846
F	2.635307	0.0	0.0
