13

C	-0.091534	0.150669	-1.528063
C	0.0	0.0	0.0
F	-1.320993	0.655064	-1.948414
H	1.093292	0.0	0.0
H	-0.442319	-0.919527	0.38385
N	0.958523	1.00014	-2.03755
H	1.801809	0.714694	-1.496475
H	0.734538	1.939423	-1.720069
C	0.042398	-1.196474	-2.139368
N	0.118137	-2.270226	-2.607569
C	-0.523084	1.173562	0.665909
N	-0.928849	2.133809	1.208704
F	2.614455	0.0	0.0
