13

C	-0.495575	-0.067664	-1.426137
C	0.0	0.0	0.0
F	-1.88146	-0.450187	-1.43691
H	1.092118	0.0	0.0
H	-0.320164	-0.913042	0.509103
N	-0.3117	1.143066	-2.130676
H	-0.641106	1.928391	-1.584263
H	-0.781624	1.112436	-3.024468
C	0.176357	-1.16415	-2.15896
N	0.629281	-2.051533	-2.778948
C	-0.565067	1.151413	0.670807
N	-1.022674	2.110111	1.176725
F	2.515331	0.0	0.0
