13

C	-0.465298	0.052608	-1.441772
C	0.0	0.0	0.0
F	0.037108	-1.074605	-2.111881
H	1.091973	0.0	0.0
H	-0.329336	0.9127	0.505436
N	-1.888435	0.114746	-1.577572
H	-2.142354	0.010401	-2.553384
H	-2.294477	-0.652613	-1.049918
C	0.109581	1.231806	-2.128954
N	0.501212	2.172595	-2.710278
C	-0.579862	-1.15421	0.654517
N	-1.073384	-2.090172	1.168965
F	2.526446	0.0	0.0
