13

C	-0.480236	-0.008969	-1.44445
C	0.0	0.0	0.0
F	-0.027861	-1.169391	-2.043389
H	1.092851	0.0	0.0
H	-0.309791	0.942806	0.464992
N	-1.912737	0.017919	-1.68523
H	-2.285827	0.895917	-1.34432
H	-2.32044	-0.724117	-1.122039
C	0.11444	1.145336	-2.164755
N	0.564592	2.063555	-2.738994
C	-0.594783	-1.10786	0.716646
N	-1.109717	-2.006506	1.275027
F	2.524188	0.0	0.0
