13

C	-0.16232	0.139836	-1.530703
C	0.0	0.0	0.0
F	-0.303063	1.504744	-1.815194
H	1.09277	0.0	0.0
H	-0.316069	-1.001953	0.304266
N	0.990924	-0.356222	-2.201386
H	0.863009	-1.296366	-2.543868
H	1.801945	-0.295678	-1.54882
C	-1.391353	-0.507316	-2.049039
N	-2.353969	-1.055266	-2.439331
C	-0.660646	1.007988	0.796137
N	-1.202333	1.806103	1.467408
F	2.630857	0.0	0.0
