13

C	-0.468931	0.014041	-1.448187
C	0.0	0.0	0.0
F	-0.031627	-1.149519	-2.05106
H	1.092867	0.0	0.0
H	-0.313898	0.936609	0.475744
N	-1.897983	0.073372	-1.704289
H	-2.334755	-0.646978	-1.13588
H	-2.248899	0.970504	-1.388976
C	0.148268	1.167137	-2.148366
N	0.554277	2.115358	-2.707193
C	-0.605646	-1.115996	0.693964
N	-1.125065	-2.024406	1.231684
F	2.523438	0.0	0.0
