17

C	0.0	0.0	0.0
C	-0.596059	-0.080314	-1.403317
F	1.391669	0.0	0.0
H	-1.602089	-0.497697	-1.234275
C	-0.512511	1.174162	0.796569
H	-0.184904	2.095532	0.312622
H	-1.610092	1.096311	0.799586
H	-0.120565	1.130784	1.815622
C	-0.331362	-1.270072	0.698026
N	-0.481442	-2.278718	1.279247
N	0.203575	-0.985608	-2.198849
H	1.063049	-0.520346	-2.465848
H	-0.303929	-1.243088	-3.035223
N	-0.708374	1.270187	-1.983699
H	-0.942262	1.131306	-2.962865
H	-1.553559	1.665728	-1.567063
H	-3.29516	0.0	0.0
