17

C	0.0	0.0	0.0
C	-0.490708	-0.01108	-1.436109
F	1.40572	0.0	0.0
H	-1.591183	-0.036051	-1.333331
C	-0.521313	1.176041	0.784341
H	-0.147596	1.13378	1.810836
H	-0.206405	2.097955	0.296658
H	-1.619499	1.084901	0.763744
C	-0.358024	-1.267117	0.676667
N	-0.485002	-2.253127	1.300929
N	-0.030688	-1.241405	-2.072398
H	-0.454739	-1.326992	-2.987971
H	0.976713	-1.204206	-2.187858
N	-0.089127	1.24488	-2.07128
H	0.905498	1.207724	-2.271053
H	-0.583059	1.339145	-2.950557
H	-3.275506	0.0	0.0
