17

C	0.0	0.0	0.0
C	-0.541339	-0.083388	-1.423522
F	1.403591	0.0	0.0
H	-1.615575	-0.289714	-1.269765
C	-0.528629	1.185336	0.765097
H	-1.628428	1.093648	0.730979
H	-0.169636	1.159015	1.796547
H	-0.201956	2.114232	0.292933
C	-0.342097	-1.249152	0.721277
N	-0.502448	-2.23093	1.343735
N	0.107022	-1.198393	-2.091435
H	-0.294151	-1.258693	-3.019085
H	1.089649	-0.977667	-2.206725
N	-0.448677	1.170184	-2.17403
H	0.413894	1.656298	-1.951534
H	-1.226276	1.760211	-1.896543
H	-3.254404	0.0	0.0
