17

C	0.0	0.0	0.0
C	-0.511794	0.036721	-1.439456
F	1.403717	0.0	0.0
H	-1.60176	0.159359	-1.322311
C	-0.506855	1.1618	0.816877
H	-0.097904	1.117379	1.830083
H	-1.603359	1.068533	0.82884
H	-0.210168	2.087697	0.324463
C	-0.361492	-1.287009	0.63467
N	-0.495795	-2.331327	1.155249
N	-0.273209	-1.200924	-2.185997
H	0.626739	-1.594345	-1.924409
H	-0.986358	-1.8725	-1.916619
N	0.069442	1.204282	-2.085978
H	-0.321956	1.235548	-3.021401
H	1.067814	1.041987	-2.191244
H	-3.238887	0.0	0.0
