17

C	0.0	0.0	0.0
C	-0.594332	-0.083216	-1.404586
F	1.391472	0.0	0.0
H	-1.599662	-0.501685	-1.236767
C	-0.511992	1.176547	0.79385
H	-0.120051	1.135179	1.812986
H	-1.609508	1.099763	0.797586
H	-0.183797	2.096542	0.307644
C	-0.332606	-1.268387	0.700042
N	-0.484246	-2.273956	1.286528
N	0.207017	-0.989283	-2.197034
H	-0.297883	-1.244727	-3.036339
H	1.068574	-0.524933	-2.460394
N	-0.707384	1.265879	-1.986628
H	-0.935127	1.125997	-2.967095
H	-1.55483	1.659525	-1.573743
H	-3.298418	0.0	0.0
