12

C	-0.108981	-0.028498	0.000679
C	-0.523821	-0.041022	-1.45549
Br	1.806857	0.278547	0.211573
H	-1.613764	-0.16171	-1.444627
H	-0.656716	0.709729	0.581177
H	-0.052465	-0.876256	-1.975388
N	-0.394202	-1.360697	0.645829
O	-0.424859	-1.372335	1.868163
O	-0.529907	-2.334067	-0.09031
C	-0.185007	1.210073	-2.123204
N	0.085268	2.199411	-2.693671
Cl	-3.205565	0.507283	0.300766
