12

C	-0.115215	-0.027425	0.00158
C	-0.534646	-0.159468	-1.447323
Br	1.801583	0.293557	0.180607
H	-1.624695	-0.277296	-1.423177
H	-0.660429	0.756817	0.520895
H	-0.065962	-1.0355	-1.897874
N	-0.399794	-1.301515	0.755272
O	-0.426703	-1.212194	1.974495
O	-0.538772	-2.332142	0.102399
C	-0.196501	1.031737	-2.217097
N	0.072418	1.970257	-2.868353
Cl	-3.210407	0.5354	0.265606
