16

C	0.0	0.0	0.0
C	-0.365062	-0.030265	-1.501698
F	1.386582	0.0	0.0
H	-1.442038	0.126858	-1.511044
C	-0.474626	1.248462	0.614282
N	-0.627031	2.300529	1.116206
C	-0.462336	-1.171163	0.764019
N	-0.515405	-2.152676	1.411252
C	-0.022102	-1.380434	-2.122014
H	-0.588175	-2.184898	-1.642681
H	-0.279977	-1.3714	-3.188585
H	1.048622	-1.602247	-2.037239
N	0.316655	1.113706	-2.103286
H	1.280523	0.887254	-2.319613
H	-0.157652	1.366535	-2.958914
F	-2.431058	0.0	0.0
