16

C	0.0	0.0	0.0
C	-0.353226	0.02181	-1.558527
F	1.38328	0.0	0.0
H	0.628788	-0.175463	-2.008107
C	-0.460315	1.15729	0.773541
N	-0.552766	2.159393	1.382433
C	-0.4317	-1.259756	0.621515
N	-0.570787	-2.335633	1.073724
C	-0.842453	1.397932	-1.97647
H	-0.967217	1.407018	-3.061594
H	-0.140859	2.187463	-1.690227
H	-1.802469	1.560799	-1.486758
N	-1.271742	-0.986816	-2.035829
H	-2.077861	-0.855082	-1.404136
H	-0.883894	-1.905764	-1.845335
F	-2.435315	0.0	0.0
