16

C	0.0	0.0	0.0
C	-0.343507	-0.100288	-1.527247
F	1.390047	0.0	0.0
H	-1.429533	-0.119115	-1.553969
C	-0.457572	1.269551	0.576008
N	-0.549495	2.339898	1.055086
C	-0.46243	-1.152808	0.777718
N	-0.544014	-2.154758	1.388892
C	0.26015	-1.366767	-2.113805
H	-0.018772	-1.421643	-3.168118
H	1.351294	-1.361778	-2.046238
H	-0.115166	-2.256553	-1.602506
N	0.151479	1.064479	-2.253288
H	1.116741	1.234785	-1.991949
H	-0.38658	1.875796	-1.969798
F	-2.373476	0.0	0.0
