16

C	0.0	0.0	0.0
C	-0.350728	-0.159661	-1.519585
F	1.385812	0.0	0.0
H	-1.437258	-0.1697	-1.538536
C	-0.473948	1.286593	0.519256
N	-0.544337	2.40308	0.884664
C	-0.45343	-1.123851	0.826217
N	-0.575333	-2.069092	1.515712
C	0.237986	-1.455022	-2.056039
H	-0.038724	-1.546536	-3.108378
H	-0.150912	-2.320141	-1.513732
H	1.329407	-1.462069	-1.985862
N	0.150852	0.969056	-2.295236
H	1.117552	1.147949	-2.043692
H	-0.381482	1.795466	-2.046261
F	-2.379651	0.0	0.0
