16

C	0.0	0.0	0.0
C	-0.46791	-0.236599	-1.481296
F	1.358856	0.0	0.0
H	-1.204843	-1.040457	-1.425125
C	-0.44721	1.277962	0.581749
N	-0.552176	2.318224	1.118583
C	-0.435853	-1.122718	0.853262
N	-0.539484	-2.082498	1.522723
C	0.695314	-0.651514	-2.373258
H	0.302153	-0.860558	-3.373692
H	1.18008	-1.561175	-2.006847
H	1.441553	0.141073	-2.454038
N	-1.086539	0.99391	-1.965229
H	-1.938391	0.995528	-1.387191
H	-1.367552	0.836714	-2.929881
F	-2.454062	0.0	0.0
