17

C	0.0	0.0	0.0
C	-0.491592	-0.140162	-1.451962
F	1.378911	0.0	0.0
H	-1.58372	-0.276254	-1.285578
N	-0.544009	1.05931	0.740114
H	-0.308182	1.926875	0.270753
H	-1.581754	0.864752	0.620364
N	-0.335965	-1.296029	0.778963
O	0.075975	-1.326399	1.932692
O	-0.915969	-2.213464	0.210648
C	0.185514	-1.21892	-2.300569
H	1.265481	-1.062718	-2.338786
H	-0.202015	-1.182509	-3.321804
H	-0.02212	-2.202758	-1.889348
C	-0.271414	1.155324	-2.092819
N	-0.049031	2.169912	-2.642714
F	-2.768278	0.0	0.0
