17

C	0.0	0.0	0.0
C	-0.490554	0.117281	-1.454067
F	1.38312	0.0	0.0
H	-1.579499	-0.068988	-1.317258
N	-0.552931	0.899963	0.918241
H	-0.326703	1.840715	0.61327
H	-1.591683	0.72144	0.756278
N	-0.328096	-1.419091	0.532107
O	0.086594	-1.655299	1.661509
O	-0.905368	-2.222646	-0.19206
C	0.209668	-0.772636	-2.482178
H	-0.196438	-0.57696	-3.478112
H	1.28304	-0.571718	-2.504469
H	0.04399	-1.820875	-2.244557
C	-0.31489	1.514995	-1.843596
N	-0.152671	2.631071	-2.175567
F	-2.772002	0.0	0.0
