17

C	0.0	0.0	0.0
C	-0.264737	-0.00216	-1.557013
F	1.356371	0.0	0.0
H	0.010041	1.03472	-1.788662
N	-0.621458	1.03482	0.655494
H	-0.440616	0.939734	1.652631
H	-1.675048	0.775461	0.454386
N	-0.320454	-1.39489	0.616668
O	-0.355073	-1.436751	1.844357
O	-0.451083	-2.358162	-0.130547
C	-1.60641	-0.30145	-2.23248
H	-1.445341	-0.25328	-3.315262
H	-1.955035	-1.293005	-1.95721
H	-2.367494	0.392328	-1.898279
C	0.758731	-0.83192	-2.212789
N	1.548698	-1.46431	-2.806866
F	-2.805829	0.0	0.0
