17

C	0.0	0.0	0.0
C	-0.49004	-0.235444	-1.441413
F	1.376482	0.0	0.0
H	-1.575313	-0.403094	-1.265389
N	-0.546291	1.100112	0.670785
H	-1.58583	0.899109	0.55511
H	-0.302073	1.939242	0.155971
N	-0.339095	-1.246605	0.857901
O	-0.855554	-2.224078	0.327666
O	0.012512	-1.183491	2.029781
C	0.232199	-1.325095	-2.237284
H	-0.188676	-1.385756	-3.244414
H	1.298394	-1.102011	-2.324295
H	0.10471	-2.290345	-1.752608
C	-0.34327	1.034495	-2.150258
N	-0.200525	2.034987	-2.750459
F	-2.760296	0.0	0.0
