14
Coordinates from ORCA-job run
  C   -0.56137300444744     -0.04786598204049      0.28521119124487
  C   0.69214423244566     -0.75920511994265     -0.28958569721880
  F   -0.99507021242408     -0.88616133697868      1.32055052122336
  H   0.37335248478709     -1.78089016952374     -0.51697004684115
  N   -0.22713730937505      1.24810465689222      0.73462457492348
  H   0.49539770747063      1.23846375653199      1.44488925948191
  H   -1.04542303736699      1.72810570227242      1.08738360832165
  N   -1.59806187151069     -0.07115237060598     -0.70277640021323
  H   -1.58950691886953      0.78006873516958     -1.24889609328370
  H   -2.49627371595771     -0.19674022443343     -0.25534107103478
  C   1.78156681438263     -0.78983559639566      0.68954464996245
  N   2.62540552622790     -0.78504180737204      1.50557883548086
  C   1.11405886080332     -0.10243562224518     -1.52745666042076
  N   1.43092044383427      0.42458537867163     -2.52675667162614
