14
Coordinates from ORCA-job run
  C   -0.46803233212844     -0.00016193883055      0.30189021241763
  C   0.85658918094665     -0.18239258118939     -0.48106961598599
  F   -0.74649633253322     -1.18173774294929      0.93860135299073
  H   1.07748127411930      0.76169442428441     -0.99683844992586
  N   -0.24528008470969      0.96782313407472      1.34328023071785
  H   -0.20690669688340      1.90764416317233      0.96859216282680
  H   -0.99591135898559      0.91456320506115      2.02205633196696
  N   -1.53086630984678      0.19344580138977     -0.65065749046997
  H   -1.53699391736063      1.14209476972977     -1.00392446977794
  H   -2.42163607023523      0.00163501328995     -0.20736302630379
  C   0.72315817366534     -1.23698737229755     -1.49001319508335
  N   0.65242354009098     -2.08072274579499     -2.30202720050829
  C   1.96633888633288     -0.48066345222311      0.42883172310906
  N   2.87613204752783     -0.72623467771723      1.12764143402618
