14
Coordinates from ORCA-job run
  C   -0.55282300647383     -0.05724296988566      0.29951020543645
  C   0.67857435809994     -0.74954852931889     -0.34260338530153
  F   -0.95820613663170     -0.93549940569453      1.31278694930376
  H   0.34681225557016     -1.75898333837123     -0.60380916921620
  N   -0.19737906840637      1.21788402833649      0.79112997123243
  H   -1.00227482424939      1.68703678076093      1.18673160271049
  H   0.54530856097442      1.17548658037891      1.47910820832353
  N   -1.61989575477469     -0.03563747214838     -0.65504044308420
  H   -1.62212419296759      0.83578687071462     -1.16856049194947
  H   -2.50468937169861     -0.17310740800294     -0.18484555647500
  C   1.79529114727657     -0.82703096124931      0.60267433668307
  N   2.66186005397986     -0.86065032471172      1.39381349887456
  C   1.06892739986416     -0.04292771478673     -1.56323192025919
  N   1.36161857943707      0.52443386397842     -2.54766380627870
