14
Coordinates from ORCA-job run
  C   -0.48486907192620      0.15326746524528      0.21464591742459
  C   0.87787341822547     -0.12929222900573     -0.46838685813517
  F   -0.74691231499269     -1.00289173890781      0.99574385019959
  H   1.10447922580269      0.75025592790287     -1.07854523595343
  N   -0.36073705516778      1.30366068044921      1.02901763046195
  H   0.22983862772565      1.10480219088372      1.82762780711967
  H   -1.26488231011551      1.60888265741364      1.36754747611270
  N   -1.47111486342159      0.33010511694244     -0.78437089337808
  H   -1.66039639712916     -0.55007151000680     -1.24867749773503
  H   -2.33583171829242      0.67436353785298     -0.38570593758541
  C   0.78070731926871     -1.30655014999011     -1.33407168950467
  N   0.65552093861681     -2.23240798553943     -2.04419789693230
  C   1.92732500968855     -0.30335020074296      0.53819291985479
  N   2.74699919171747     -0.40177376249730      1.37218040805079
