14
Coordinates from ORCA-job run
  C   -0.55945199691976     -0.06157678649734      0.28677738875224
  C   0.70242459638167     -0.74416216067664     -0.30486998418535
  F   -0.97396128274726     -0.92218076159881      1.31159685671143
  H   0.39829515694908     -1.76703697762646     -0.54663848387155
  N   -0.24338761800760      1.23272296606613      0.75418446999813
  H   0.48222083819285      1.22373233035164      1.46132045597229
  H   -1.06767149129806      1.69437605185566      1.11737571455546
  N   -1.60056335425978     -0.08634172743913     -0.69613851778934
  H   -1.60808014163780      0.77270667737009     -1.22980195517694
  H   -2.49456655717320     -0.23326169938982     -0.24692437144471
  C   1.79622147084104     -0.77321791361721      0.66936846938139
  N   2.64472827091642     -0.76488730226095      1.48054031690649
  C   1.10883673365852     -0.06184284652448     -1.53392775797169
  N   1.41595537510390      0.48997014998729     -2.52286260183782
