14
Coordinates from ORCA-job run
  C   -0.46498993556371      0.19140790402357      0.22843281077533
  C   0.85376919044406     -0.19627018365589     -0.48870115280011
  F   -0.82215573132598     -0.95868055187818      0.98020034499872
  H   1.15107410453275      0.67641711784090     -1.07800903222318
  N   -0.21880663097560      1.29892617074488      1.07384645609607
  H   -1.08404266936186      1.68495116239140      1.43072475899061
  H   0.35571529653610      1.01848020864201      1.85948320831726
  N   -1.44625777475847      0.49138730677795     -0.74564805048369
  H   -1.71910667540685     -0.35087573199145     -1.23787208211771
  H   -2.27153969579259      0.89377997733033     -0.31871006758960
  C   0.63362394913967     -1.33361171746326     -1.38469052287582
  N   0.41132968488926     -2.22360917761415     -2.11658104296243
  C   1.89925537098315     -0.49632035028257      0.49198529175739
  N   2.72113151666005     -0.69598213486554      1.30553908011716
