14
Coordinates from ORCA-job run
  C   -0.42272294720572      0.15770416975362      0.44301151158081
  C   1.01433234357335     -0.31682785061018      0.09893489132963
  F   -0.68307803488260     -0.39950165432190      1.70157581622369
  H   1.63093350303331     -0.03229776561570      0.95688061038483
  N   -0.40511465152605      1.57664893604492      0.63542077150390
  H   -0.63475459905564      2.05581304225367     -0.22522586547405
  H   -1.05487562073971      1.83239298940426      1.36703682747444
  N   -1.33262725939212     -0.27665926388822     -0.54542396133199
  H   -1.34097449922060     -1.28442160791066     -0.64987949699753
  H   -2.26778751000308      0.05341061346885     -0.34318635302414
  C   1.49844468947329      0.38123229366222     -1.09244408336375
  N   1.87916173881150      0.95698854175707     -2.04132864369261
  C   1.06408852433291     -1.76954065119474     -0.08286166975670
  N   1.05397432280115     -2.93494179280322     -0.22351035485655
