14
Coordinates from ORCA-job run
  C   -0.30848008050288      0.25262706928522      0.48968945893545
  C   0.98131544160528     -0.41448584943496     -0.05768007490315
  F   -0.35528094606938     -0.13032469073569      1.83652825783770
  H   1.78324496370037     -0.10442821577513      0.61907601769358
  N   -0.12919895261190      1.67341927140554      0.48753946857847
  H   -0.57509494082371      2.07761510433949      1.30024422055228
  H   -0.50331351575910      2.07847661988157     -0.36029337047849
  N   -1.43471767755059     -0.18349450121693     -0.24192393985515
  H   -1.54778294719334     -1.19010285181148     -0.21623488606455
  H   -2.27749678488376      0.26213455039961      0.09830242290824
  C   1.26987475660494      0.08583021920649     -1.40225448102926
  N   1.49756151734041      0.50751757786361     -2.47330675692244
  C   0.86829757914888     -1.87512122060192     -0.05025377303685
  N   0.73007158699481     -3.04066308280544     -0.02943256421586
