14
Coordinates from ORCA-job run
  C   -0.44617513465954      0.24276325164572      0.21562998482413
  C   0.72988323459503     -0.42871292333289     -0.53867816011307
  F   -0.03912877547692      0.26706894877788      1.57568827276522
  H   0.44234094058675     -0.45807671529350     -1.59403711688386
  N   -0.62699084665225      1.55259305709800     -0.28797694425444
  H   0.15269274208655      2.14103875905761     -0.01968150560436
  H   -1.47827455456126      1.96619183716554      0.07194721921429
  N   -1.60994213871688     -0.54331255813810      0.04398682247673
  H   -2.43195281672512     -0.05582809031692      0.37825112512271
  H   -1.52295586864995     -1.41361887010080      0.55492077411504
  C   0.93312257946077     -1.79558410350750     -0.05379455561715
  N   1.04776474540562     -2.89454670523533      0.34154978442093
  C   1.95117475581665      0.36664423304782     -0.39387186762168
  N   2.89744113749049      1.05337987913249     -0.29293383284449
