14
Coordinates from ORCA-job run
  C   -0.42915958493566      0.30742976766295      0.16387230274068
  C   0.67676424949564     -0.68704398950519     -0.27409551486989
  F   0.15485212943627      1.59180454737671      0.00384889480542
  H   0.25275715857864     -1.68931646423906     -0.15949474192188
  N   -1.54735341143114      0.15085208377029     -0.68998448937782
  H   -2.38347978237854      0.55340646939227     -0.28741730658274
  H   -1.36894988270743      0.58421518956250     -1.58744391764799
  N   -0.77099006493570      0.06010868985597      1.51289833803184
  H   0.02784354915079      0.21887100522229      2.11524247634478
  H   -1.51746766445950      0.67695053731729      1.81048235243081
  C   1.85974412611035     -0.55769052438401      0.57959089725694
  N   2.77148832454596     -0.45229031718633      1.31108187236848
  C   1.01915674568896     -0.47012265689907     -1.68133353594600
  N   1.25379410784132     -0.28617433794657     -2.81624762763267
