14
Coordinates from ORCA-job run
  C   -0.56923907443857     -0.06370391821762      0.31273824884230
  C   0.76766538513238     -0.13413482964117     -0.49626468624497
  F   -0.67889616191302     -1.28979091050732      0.93375076995798
  H   0.89980352370170      0.81821713870408     -1.02531705753650
  N   -0.58773466396458      0.89712452916125      1.37190820479541
  H   -0.51196987423340      1.84431445780945      1.02771756458528
  H   0.12212980507852      0.71474214907366      2.07098887091096
  N   -1.63797182897794      0.08472576263042     -0.60954071551008
  H   -2.48975994531783      0.31191012612649     -0.11218857981913
  H   -1.45904418209827      0.76703896001474     -1.33238472096625
  C   0.74897324333033     -1.21615259270382     -1.48350390094554
  N   0.74559650557095     -2.05706889645336     -2.30213216373803
  C   1.88830554498095     -0.29249812479443      0.43296023647968
  N   2.76114172314876     -0.38372385120238      1.21226792918892
