14
Coordinates from ORCA-job run
  C   -0.48110659911346      0.21043871279455      0.17033170735511
  C   0.81411487158561     -0.35838123596990     -0.46392292217741
  F   -0.26576334144997      0.13024524403026      1.57124321189849
  H   0.67422373719269     -0.30709544598295     -1.54794276845053
  N   -0.64509308830341      1.55263324005240     -0.24637026025879
  H   0.06316797326030      2.13956986430916      0.17789390278065
  H   -1.55561738795778      1.90744483052652      0.01872856389240
  N   -1.57690819455170     -0.59219110952760     -0.22574733212236
  H   -2.45606771533389     -0.16267913384104      0.03449846543383
  H   -1.52154919023405     -1.50230027721931      0.21550820844072
  C   1.00672209359193     -1.75477066739630     -0.06673466573414
  N   1.10904600341596     -2.88159497010568      0.24468463537698
  C   1.96935576311396      0.45893335429377     -0.08670519364100
  N   2.86447507478381      1.15974759403607      0.20453444720605
