14
Coordinates from ORCA-job run
  C   -0.49231089766097      0.11966751014073      0.22015987292346
  C   0.87222312354297     -0.08024362348248     -0.48895574080487
  F   -0.63843602303381     -1.01857029883064      1.05415890093043
  H   1.01162100028423      0.78917074515807     -1.13852740815331
  N   -0.45336082926187      1.31385642200234      0.97626345233018
  H   0.25236538438398      1.25040037700866      1.70033169309671
  H   -1.34717421270476      1.48130643620362      1.42300321873490
  N   -1.51283795413271      0.16227667627646     -0.76054415456813
  H   -1.71821371160737     -0.77054926999123     -1.09626038027574
  H   -2.36063968491903      0.57940304543852     -0.39943248153405
  C   0.83992408493742     -1.29338657322059     -1.30809642254955
  N   0.77455711239981     -2.26003711538936     -1.97008556293078
  C   1.96189660441816     -0.13681345981131      0.48852207552923
  N   2.80938600335394     -0.13748087150281      1.30046293727151
