14
Coordinates from ORCA-job run
  C   -0.46693134642220      0.00930302198806      0.30527632434800
  C   0.84829070378795     -0.20503268684875     -0.48555956500206
  F   -0.77423077273086     -1.16706019176718      0.93843261403114
  H   1.09532766673099      0.73696283144288     -0.99326893142432
  N   -0.21217482237093      0.96503726857885      1.35127511572150
  H   -0.17014599849070      1.90753109300651      0.98396702803799
  H   -0.95014658981542      0.91425842939520      2.04392834091617
  N   -1.52834046502949      0.23692324691932     -0.64027321558457
  H   -2.42317186156482      0.09903755967543     -0.18506758112428
  H   -1.49075375790128      1.17717476299009     -1.01375550539727
  C   0.68115686191463     -1.24567293099233     -1.50398471724568
  N   0.58277949136166     -2.07265221509236     -2.33024869301705
  C   1.95153458303553     -0.54283034927881      0.41821181308224
  N   2.85780630749495     -0.81397984001693      1.11206697265820
