14
Coordinates from ORCA-job run
  C   -0.53629244178772      0.13006851863991      0.43223290480616
  C   0.94218950575268     -0.28773105657314      0.12830279138161
  F   -0.77075548123187     -0.45205435322229      1.68641886118952
  H   1.53678037169297     -0.00021202328400      1.00255578324321
  N   -0.74682049174857      1.52609284121039      0.59639994640507
  H   -0.57825252750585      2.03008888784850     -0.26362254115046
  H   -0.19592952135825      1.90627358704361      1.35364290978431
  N   -1.38311674943399     -0.33883402552973     -0.58572364400831
  H   -1.35321822779137     -1.34517747957998     -0.68532141902758
  H   -2.33032162692210     -0.02780927786833     -0.41291018050907
  C   1.43482502282785      0.43484519750011     -1.04428900894601
  N   1.82277919111572      1.05811710647753     -1.96004163147050
  C   1.05570074431750     -1.73598960325847     -0.05457835203953
  N   1.10243223207302     -2.90067831940413     -0.19506641965846
