14
Coordinates from ORCA-job run
  C   -0.55008722048624     -0.04340293878159      0.30661492950564
  C   0.66927633192272     -0.76386952478453     -0.32738632314748
  F   -0.95384141970511     -0.89008668813455      1.34742171340288
  H   0.32695657492815     -1.77754101352520     -0.55651920979237
  N   -0.17959118315914      1.24136857264805      0.75971742893701
  H   -0.97613774757751      1.72768030830503      1.15148349733934
  H   0.57064274697308      1.21195338967463      1.44008457697921
  N   -1.62556005798492     -0.03881998338646     -0.63908676292896
  H   -1.62602193196564      0.81928759971144     -1.17441690427013
  H   -2.50706518789133     -0.15669393490707     -0.15763676581778
  C   1.79510417904139     -0.82505436125543      0.60812527668269
  N   2.66943361582242     -0.84572824711598      1.39114305476206
  C   1.05205234267105     -0.09549822111278     -1.57166659021494
  N   1.33383895741108      0.43640504266445     -2.57887792143717
