14
Coordinates from ORCA-job run
  C   -0.59980878038011      0.00708788618791      0.36057229567805
  C   0.59066071978757     -0.72804180672741     -0.34340930354970
  F   -0.89318038605227     -0.83226715824382      1.44142915992715
  H   0.24178375959695     -1.71281832764819     -0.67694799525455
  N   -0.31064471346538      1.28377197237525      0.90934139210464
  H   0.40664869602615      1.23297606182918      1.62055947319097
  H   -0.06110717123312      1.94785395195279      0.18888914128303
  N   -1.65666618820745      0.13595372592751     -0.56106734131616
  H   -2.41313178680683      0.65751543971366     -0.13636497332910
  H   -1.99031118344634     -0.76058807568488     -0.88938163357887
  C   1.68733513435693     -0.91769464706956      0.60809165657729
  N   2.54861902587404     -1.04502065026173      1.39532129819372
  C   1.04437124040254      0.04570200541234     -1.49965938642215
  N   1.40643163354729      0.68456962223694     -2.41537378350433
