14
Coordinates from ORCA-job run
  C   -0.48246926487542      0.14125088470714      0.22893214507395
  C   0.86362475970427     -0.10868555908160     -0.49811078111122
  F   -0.66871215794128     -1.00002733834944      1.05252921115990
  H   1.03123772561531      0.76006330832598     -1.14194513122729
  N   -0.37333541067052      1.31962633486944      1.00445671674064
  H   -1.27558456673067      1.60213803828463      1.36682235106609
  H   0.25241659282354      1.16705990071007      1.78628928899504
  N   -1.51187435509963      0.24965049634512     -0.73568931953410
  H   -1.68127148165053     -0.65014602787421     -1.16901906288824
  H   -2.37479982239261      0.56918643060844     -0.31327894712421
  C   0.78205803504857     -1.31473638783522     -1.32488978547378
  N   0.66998571395994     -2.26827219458637     -1.99969650967990
  C   1.95699626506263     -0.21057457678304      0.47087511449233
  N   2.81172796714639     -0.25553330934093      1.27372470951081
