14
Coordinates from ORCA-job run
  C   -0.49641223779342      0.16986766427450      0.46256262108532
  C   0.96116479358243     -0.26262867914313      0.08481118583288
  F   -0.71237261713704     -0.48375166569722      1.68131414876475
  H   1.64313138044401      0.09624736910207      0.86504753389499
  N   -0.53868631273918      1.57415138467881      0.55641631679798
  H   0.08785759894277      1.93030216836994      1.26600027439043
  H   -1.48760963394111      1.87136349259597      0.74577485537170
  N   -1.52503224504402     -0.26320460873852     -0.41422680008895
  H   -1.42390211692341      0.14609225575243     -1.33326594111802
  H   -1.57119533855588     -1.27204713457684     -0.46947014901743
  C   1.33961641246067      0.32308695752240     -1.20173560901593
  N   1.61823184121091      0.78988361539936     -2.24209967733349
  C   1.04282919721629     -1.72344779391717      0.02603380532702
  N   1.06137927827697     -2.89591502562264     -0.02716256489119
