14
Coordinates from ORCA-job run
  C   -0.41271256582357      0.03051029538554      0.52235768975213
  C   1.02437826598135     -0.32980681389353      0.06654613039467
  F   -0.62948072689475     -0.63201152711992      1.70622765227633
  H   1.68554052974584      0.00116255878757      0.87348704034860
  N   -0.42418492289975      1.43607969372395      0.85948720211855
  H   -1.19513275886976      1.61503859042890      1.49301588838417
  H   -0.54884373627729      2.00195041633536      0.02862550781691
  N   -1.35380733288575     -0.49605740654085     -0.41916638490224
  H   -2.29989638318923     -0.33995904582477     -0.09229396469451
  H   -1.24251806604351     -0.07579951386648     -1.33389502628181
  C   1.34123238591528      0.42244383237918     -1.14903849525193
  N   1.51809749537202      1.05814454920345     -2.12018121839969
  C   1.18567108976193     -1.77001642208153     -0.14238310893458
  N   1.35265672610719     -2.92167920691692     -0.29178891262663
