14
Coordinates from ORCA-job run
  C   -0.48351893155024      0.13871816054559      0.22805181520598
  C   0.86227971535922     -0.09753313523874     -0.50412395913539
  F   -0.63912351732250     -0.98724671504316      1.07821747336156
  H   1.00410492456792      0.76001220324956     -1.16879177155995
  N   -0.39267903020358      1.33573692662286      0.97763796280407
  H   -1.30102141347614      1.62095425245020      1.32203637190140
  H   0.22455059522332      1.20512728698615      1.77018731736273
  N   -1.52263549171573      0.20511147303820     -0.72995710302386
  H   -1.66139028592969     -0.70264860508885     -1.15784741386211
  H   -2.39408276276863      0.48993464920123     -0.29972508360903
  C   0.80436171791091     -1.32500941431075     -1.30117170697713
  N   0.71462420422719     -2.30915589224376     -1.93415670467764
  C   1.96387397568703     -0.15328599511951      0.45907612102355
  N   2.82065629999090     -0.17971519504899      1.26056668118582
