14
Coordinates from ORCA-job run
  C   -0.41747129831516      0.27176860859232      0.37669747632780
  C   0.63885462622282     -0.38584771754759     -0.57431501302173
  F   0.12891556441347      0.12137521494948      1.65326006964318
  H   0.24367969197952     -0.31100188143502     -1.59314737138391
  N   -0.60071934731156      1.61454832140359     -0.01206484586907
  H   0.25410164571596      2.15153868693343      0.06394663045448
  H   -1.32121077220207      2.02962576848951      0.56565977792496
  N   -1.68299660313804     -0.37423683608659      0.41061271267932
  H   -2.14955295568650     -0.32859902673673     -0.48422658546152
  H   -1.61165111329540     -1.32827075538222      0.73838792582273
  C   0.80450778251119     -1.79850754923544     -0.22994953021261
  N   0.88627720952814     -2.93435094372334      0.05393892151158
  C   1.91609944181970      0.32723820044571     -0.51368003536924
  N   2.91216612775792      0.94571990933292     -0.45412013304597
