14
Coordinates from ORCA-job run
  C   -0.54866787890848      0.04000917099928      0.29556036939567
  C   0.81377230831381     -0.06748743248478     -0.46767239096054
  F   -0.60842985160872     -1.12639227647520      1.06066270704406
  H   0.91638851016546      0.84062563743098     -1.07150993110952
  N   -0.64114387760621      1.12046040711735      1.21507850503263
  H   0.05295172871303      1.05230184145816      1.94761597433657
  H   -0.58887534108504      2.01373667922006      0.74591929301303
  N   -1.58815917926689      0.15641605648931     -0.65078415457897
  H   -1.64066727516539     -0.65418787467191     -1.25526863367151
  H   -2.46620778474734      0.27591450166400     -0.16064327469264
  C   0.82606941469446     -1.22724223208761     -1.36160931073496
  N   0.77905862508044     -2.15195444746147     -2.08336284564915
  C   1.91713101026449     -0.12904659044685      0.49200998815898
  N   2.77577959115640     -0.14215344075129      1.29200370441635
