14
Coordinates from ORCA-job run
  C   -0.57725797523468      0.04717548889013      0.39674459432219
  C   0.58040534055832     -0.74932854338116     -0.29311813076060
  F   -0.94639508454147     -0.79621345149760      1.45462902948905
  H   0.19760862707929     -1.75747250550410     -0.48713560269253
  N   -0.11223696937304      1.30878179574009      0.80382938731620
  H   -0.87287335992400      1.83895328434424      1.20903614613840
  H   0.66179346221895      1.24781693330505      1.45249305164317
  N   -1.74351503981815      0.22334867424992     -0.39670084698144
  H   -2.14726462035449     -0.65922568625265     -0.67869042538485
  H   -1.56070299016076      0.81150054738740     -1.19839829203890
  C   1.74691597830298     -0.85489321481390      0.58576617233870
  N   2.65932676725501     -0.90507402591009      1.32299336122338
  C   0.93370141426349     -0.12014807286931     -1.56586081640398
  N   1.18149444972853      0.36477877631202     -2.60558762820880
