14
Coordinates from ORCA-job run
  C   -0.62305292663547     -0.13348182087527      0.39209791199717
  C   0.64277306505578     -0.74654266311879     -0.30206239538617
  F   -0.87234291969771     -0.99734566845889      1.43917808245913
  H   0.37639992333973     -1.76058081053343     -0.61868182570486
  N   -0.45217841404338      1.15295340051606      0.98512860321289
  H   -0.27196545843001      1.86782541035657      0.29316647790834
  H   0.26799622291403      1.15755699404131      1.69731749752617
  N   -1.70506794594175     -0.20177868879086     -0.52772070747664
  H   -2.49160473508976      0.31310781923674     -0.15027997713663
  H   -1.46757805434246      0.16684159902275     -1.43933144336504
  C   1.74966695098836     -0.80252861658688      0.65213131283819
  N   2.61660579091340     -0.81570795662666      1.44326931189632
  C   1.00576301470338      0.05746827293471     -1.46896332823551
  N   1.22358548626586      0.74421272888267     -2.39624952053332
