14
Coordinates from ORCA-job run
  C   -0.55946659667363     -0.03836313256428      0.28776625935023
  C   0.66501467618409     -0.76716385498505     -0.32700889684248
  F   -1.00504855746570     -0.90077702775983      1.29898608257459
  H   0.30967482038237     -1.76752414618523     -0.59191661340267
  N   -0.18138086897205      1.23062901686501      0.77613443226481
  H   -0.97878180085461      1.71674414243966      1.16655407456759
  H   0.55689798577152      1.17601882562949      1.46792004440894
  N   -1.60761388871425      0.00740742213993     -0.68708118603725
  H   -2.50084551259837     -0.15348831245457     -0.24163949387647
  H   -1.60598335184637      0.89348203236921     -1.17407423702072
  C   1.76069882461934     -0.87429030620765      0.63974000466721
  N   2.61195967006647     -0.92637543247710      1.44640828188046
  C   1.09945303270770     -0.07629876743581     -1.54174516121306
  N   1.43442156739353      0.47999954062615     -2.51904359132112
