14
Coordinates from ORCA-job run
  C   -0.45844360338212      0.23947323303619      0.34886123112062
  C   0.67416124648208     -0.38159557949009     -0.53567390188202
  F   0.00704280175389      0.09515858729159      1.65731001937528
  H   0.36041220725027     -0.27384748418427     -1.57958880314603
  N   -0.67701623608666      1.63136370705138      0.15908306060593
  H   0.14482775726098      2.17615669152440      0.38445269437785
  H   -1.00247366987366      1.83301489953779     -0.77590700652531
  N   -1.66152630180793     -0.45051724008734      0.09122375295493
  H   -2.40676887978439     -0.02022536696303      0.62516128810957
  H   -1.59208593249281     -1.43187548099323      0.33094429352535
  C   0.84941128201294     -1.80536883018234     -0.24217501863428
  N   0.94175446998753     -2.94585040539461      0.02057095408206
  C   1.92275689908387      0.35467688133193     -0.33312526837416
  N   2.89994795959600      0.97843638752166     -0.15013729558982
