14
Coordinates from ORCA-job run
  C   -0.51447418856304      0.14951980900127      0.32058830851035
  C   0.79037067523574     -0.21247315422073     -0.46520549360864
  F   -0.80324713277304     -1.00067522166498      1.05754519784976
  H   1.04929829876358      0.65825152445273     -1.07724383453243
  N   -0.26215092041476      1.28826332973591      1.11396099064583
  H   0.46738099022983      1.11901391111568      1.79544388877334
  H   -1.11726044739413      1.55462374890185      1.58658257314948
  N   -1.65685511468860      0.39700940045245     -0.48857039689741
  H   -1.91170772437673     -0.41265175565515     -1.03855860323572
  H   -1.52903848057120      1.20996650152268     -1.07465550482996
  C   0.53965140561368     -1.35544666146344     -1.34409788378981
  N   0.28723441978832     -2.24517150160032     -2.06668378019527
  C   1.89833968944052     -0.48398987510514      0.45307456924307
  N   2.76245852970986     -0.66524005547283      1.22681996891739
