14
Coordinates from ORCA-job run
  C   -0.46797284551652      0.22389932410442      0.18829556960316
  C   0.78634458982475     -0.37876350529111     -0.49472741134538
  F   -0.21221777175500      0.11380160741250      1.58034307521939
  H   0.61615424457171     -0.30543536850134     -1.57310080115139
  N   -0.59748859314392      1.57775231690567     -0.20262221146384
  H   -1.48886343931243      1.95775085306154      0.09115527766023
  H   0.14014112034753      2.13347327170286      0.21364989940508
  N   -1.60307727427600     -0.53379870604099     -0.18529372435773
  H   -1.56378769068330     -1.45345386351027      0.23769385259982
  H   -2.45752894926678     -0.08058821233349      0.11444182275428
  C   0.94233211307483     -1.78731028971405     -0.12447410562628
  N   1.01763088812458     -2.92079492797558      0.17003250184661
  C   1.98041575943000      0.39206220666331     -0.14121860515299
  N   2.90691784858052      1.06140529351651      0.12482486000909
