19

C	-0.554168	0.005852	-1.429085
C	0.0	0.0	0.0
F	-0.145089	1.194281	-1.999963
H	1.093153	0.0	0.0
N	0.114218	-1.058717	-2.306887
O	1.336672	-1.031844	-2.32981
O	-0.616837	-1.799927	-2.96465
C	-2.051401	-0.09128	-1.565151
H	-2.31636	0.010928	-2.617406
H	-2.412061	-1.055006	-1.212282
H	-2.515408	0.717373	-0.999256
N	-0.4042	-1.268013	0.677111
O	-0.49542	-2.276609	-0.02483
O	-0.583058	-1.245786	1.892222
C	-0.465195	1.202306	0.800471
H	0.069622	1.2216	1.748137
H	-1.538404	1.177672	1.004971
H	-0.214497	2.106876	0.247278
Cl	3.328543	0.0	0.0
