19

C	-0.489715	-0.081974	-1.445124
C	0.0	0.0	0.0
F	-1.858003	-0.220758	-1.463875
H	1.089302	0.0	0.0
N	-0.208258	1.28245	-2.07649
O	0.912278	1.447974	-2.54179
O	-1.116173	2.108659	-2.056729
C	0.148583	-1.146448	-2.297556
H	-0.124144	-0.986126	-3.342804
H	1.231037	-1.112658	-2.175576
H	-0.218521	-2.118931	-1.974169
N	-0.452186	-1.271126	0.66002
O	-1.41427	-1.216877	1.428712
O	0.15713	-2.300721	0.376077
C	-0.52044	1.199846	0.762789
H	-0.264028	1.085657	1.816046
H	-1.59872	1.31823	0.667805
H	-0.016051	2.095139	0.397136
Cl	3.295201	0.0	0.0
