19

C	-0.497002	-0.036335	-1.442814
C	0.0	0.0	0.0
F	-1.870443	-0.026555	-1.467491
H	1.089243	0.0	0.0
N	-0.056577	1.278393	-2.085421
O	-0.893913	2.172314	-2.178502
O	1.111231	1.331884	-2.44944
C	0.018453	-1.17341	-2.285153
H	-0.443548	-2.099824	-1.945716
H	-0.255607	-1.001157	-3.328335
H	1.100196	-1.248031	-2.180946
N	-0.443789	-1.294516	0.618538
O	0.254417	-2.285719	0.412515
O	-1.490213	-1.295813	1.27112
C	-0.539828	1.169006	0.796231
H	-0.220729	1.065857	1.834228
H	-1.626659	1.221347	0.75838
H	-0.111686	2.09479	0.409903
Cl	3.330905	0.0	0.0
