16

C	0.0	0.0	0.0
C	-0.521034	0.567008	-1.339055
Cl	1.798616	0.0	0.0
H	-1.627228	0.5201	-1.239295
C	-0.43008	0.898482	1.154645
H	-1.520955	0.957128	1.156719
H	-0.092959	0.446638	2.090756
H	0.005359	1.896446	1.076221
N	-0.469591	-1.359926	0.062606
H	-1.493537	-1.313986	0.086482
H	-0.156508	-1.77407	0.935399
C	-0.106141	-0.248932	-2.481372
N	0.220105	-0.857861	-3.430686
C	-0.127068	1.959831	-1.549464
N	0.180191	3.080661	-1.716864
Br	-3.744521	0.0	0.0
