16

C	0.0	0.0	0.0
C	-0.525492	-0.07242	-1.451986
Cl	1.83246	0.0	0.0
H	-1.631911	-0.046907	-1.316213
C	-0.476052	1.275723	0.66148
H	-1.570668	1.260324	0.656712
H	-0.1003	2.150914	0.129953
H	-0.106483	1.310164	1.688625
N	-0.502655	-1.136633	0.669487
H	-0.607285	-1.005586	1.663267
H	-0.017855	-1.994449	0.447511
C	-0.158537	-1.338931	-2.086248
N	0.111727	-2.36632	-2.586926
C	-0.089047	1.053489	-2.275831
N	0.23755	1.962618	-2.943704
Br	-3.833462	0.0	0.0
