16

C	0.0	0.0	0.0
C	-0.506269	0.186563	-1.465701
Cl	1.79094	0.0	0.0
H	-1.610878	0.211817	-1.352288
C	-0.448643	1.183458	0.842132
H	-0.103386	1.018309	1.863396
H	-0.021576	2.113721	0.465314
H	-1.539141	1.235982	0.828263
N	-0.474071	-1.216838	0.587865
H	-0.243023	-2.013342	0.002859
H	-1.493037	-1.142401	0.654479
C	-0.146222	-0.96066	-2.297567
N	0.113752	-1.901273	-2.95128
C	-0.052432	1.428716	-2.087789
N	0.288757	2.437604	-2.583204
Br	-3.738876	0.0	0.0
