16

C	0.0	0.0	0.0
C	-0.515151	-0.08755	-1.456683
Cl	1.832301	0.0	0.0
H	-1.620904	-0.02127	-1.33083
C	-0.453473	1.29786	0.638038
H	-1.547485	1.304654	0.64602
H	-0.063682	2.1549	0.08725
H	-0.068288	1.346341	1.660369
N	-0.515749	-1.11218	0.69061
H	-0.063059	-1.987359	0.472426
H	-0.622051	-0.969282	1.682014
C	-0.189253	-1.382482	-2.052603
N	0.044705	-2.431434	-2.525516
C	-0.025218	0.998788	-2.304072
N	0.35149	1.871401	-2.994222
Br	-3.850884	0.0	0.0
