16

C	0.0	0.0	0.0
C	-0.2229	-0.022052	-1.586903
Cl	1.795463	0.0	0.0
H	0.497032	-0.769809	-1.940161
C	-0.495844	1.272918	0.6468
H	-0.044376	2.149927	0.182207
H	-0.226493	1.245889	1.703728
H	-1.584951	1.311008	0.551944
N	-0.527523	-1.139705	0.664692
H	-1.547087	-1.017158	0.710521
H	-0.322853	-1.993172	0.155649
C	0.181607	1.244445	-2.204635
N	0.523575	2.254222	-2.697518
C	-1.488939	-0.464431	-2.188509
N	-2.272715	-0.913258	-2.940784
Br	-3.800039	0.0	0.0
