16

C	0.0	0.0	0.0
C	-0.392691	-0.068649	-1.556645
Cl	1.796796	0.0	0.0
H	0.532883	0.040789	-2.131785
C	-0.429847	1.327741	0.599335
H	-0.012572	2.164896	0.03722
H	-1.520277	1.378293	0.589643
H	-0.065337	1.363206	1.626708
N	-0.479122	-1.066179	0.812139
H	-0.266655	-1.967362	0.3972
H	-1.500258	-0.96633	0.852432
C	-1.244817	1.022924	-2.037638
N	-1.721135	1.971353	-2.541408
C	-0.914327	-1.387854	-1.910971
N	-1.192144	-2.48844	-2.212201
Br	-3.655932	0.0	0.0
