16

C	0.0	0.0	0.0
C	-0.22281	0.067659	-1.576233
Cl	1.838162	0.0	0.0
H	0.544393	-0.600308	-1.986944
C	-0.483134	1.224266	0.738729
H	-0.210949	1.117278	1.789838
H	-0.035845	2.133099	0.336904
H	-1.572859	1.262759	0.648575
N	-0.510062	-1.181943	0.594967
H	-1.529362	-1.067554	0.653252
H	-0.308058	-2.000875	0.031749
C	0.075564	1.397537	-2.113024
N	0.342654	2.459091	-2.538691
C	-1.459639	-0.453321	-2.178731
N	-2.208206	-0.968781	-2.926046
Br	-3.774288	0.0	0.0
