17

C	-0.302742	-0.013735	-1.489598
C	0.0	0.0	0.0
Cl	0.038527	1.659409	-2.159099
H	1.09249	0.0	0.0
N	0.466291	-1.0292	-2.050537
H	1.411729	-0.951355	-1.659663
H	0.440891	-1.04053	-3.060136
N	-1.783829	-0.194468	-1.842219
O	-2.054352	-0.913371	-2.799312
O	-2.597797	0.420054	-1.161426
N	-0.45154	-1.359208	0.531541
O	0.374326	-2.264204	0.607208
O	-1.631694	-1.459199	0.893944
N	-0.535133	1.071803	0.75108
H	0.036243	1.206659	1.574009
H	-1.504449	0.923291	0.994822
F	2.578758	0.0	0.0
