17

C	-0.095159	0.058554	-1.538221
C	0.0	0.0	0.0
Cl	-0.171731	1.921366	-2.030327
H	1.098123	0.0	0.0
N	0.979486	-0.594863	-2.057355
H	1.837647	-0.428015	-1.478085
H	1.070567	-0.574773	-3.060018
N	-1.417651	-0.384218	-2.147441
O	-1.385222	-0.946858	-3.235057
O	-2.428649	-0.100564	-1.51362
N	-0.417608	-1.375771	0.466911
O	-0.817716	-2.19842	-0.360906
O	-0.298943	-1.598323	1.664716
N	-0.598513	0.988067	0.813483
H	-1.440824	1.35774	0.395643
H	0.062894	1.72922	0.99073
F	2.635224	0.0	0.0
