17

C	-0.681958	-0.174938	-1.350706
C	0.0	0.0	0.0
Cl	-0.024443	-1.460964	-2.383238
H	1.091325	0.0	0.0
N	-2.078433	-0.331087	-1.206362
H	-2.526636	-0.261402	-2.111875
H	-2.395749	0.443303	-0.629467
N	-0.348486	1.122601	-2.16453
O	0.769609	1.597584	-2.067687
O	-1.251807	1.542633	-2.888704
N	-0.420358	-1.133309	0.876375
O	-0.162086	-2.267924	0.49298
O	-0.967985	-0.87952	1.956914
N	-0.472988	1.266826	0.536727
H	-0.928747	1.083963	1.42344
H	0.36589	1.804243	0.726675
F	2.514896	0.0	0.0
