17

C	-0.655756	-0.170037	-1.362788
C	0.0	0.0	0.0
Cl	0.295638	-1.288814	-2.444534
H	1.103183	0.0	0.0
N	-2.030388	-0.490901	-1.279085
H	-2.106222	-1.449699	-0.963077
H	-2.471167	-0.379875	-2.182505
N	-0.532478	1.168916	-2.097575
O	0.544396	1.732921	-2.060182
O	-1.521077	1.543033	-2.728188
N	-0.359645	-1.160809	0.866113
O	-0.367213	-0.973231	2.083331
O	-0.564691	-2.264472	0.346493
N	-0.426166	1.240038	0.575068
H	0.345846	1.605832	1.114896
H	-1.230414	1.122908	1.173888
F	2.495429	0.0	0.0
