16

C	0.0	0.0	0.0
C	-0.585973	-0.256485	-1.386763
Cl	1.802037	0.0	0.0
H	-0.312101	0.550285	-2.075685
H	-1.687715	-0.221412	-1.165871
C	-0.491612	1.363292	0.461462
H	-1.58657	1.276612	0.44839
H	-0.14755	2.151959	-0.215167
H	-0.124713	1.581405	1.468309
C	-0.480326	-1.078839	0.958566
H	-0.11617	-0.874293	1.969369
H	-0.126041	-2.06642	0.65138
H	-1.57546	-1.016989	0.914736
C	-0.198983	-1.532571	-1.970027
N	0.10399	-2.558854	-2.456552
F	-2.995177	0.0	0.0
