15

C	0.0	0.0	0.0
C	-0.325715	0.06643	-1.539689
Br	1.965452	0.0	0.0
H	0.521866	0.58524	-2.000517
C	-0.400523	1.207753	0.716627
N	-0.511043	2.220953	1.303717
C	-0.461635	-1.217747	0.655733
N	-0.541159	-2.272659	1.172926
C	-1.505132	0.844517	-1.934294
N	-2.245276	1.499685	-2.573325
C	-0.406569	-1.340366	-2.127386
H	0.481328	-1.917841	-1.860454
H	-0.469232	-1.277422	-3.215992
H	-1.29698	-1.831735	-1.738068
F	-2.254626	0.0	0.0
