15

C	0.0	0.0	0.0
C	-0.368958	-0.140618	-1.528471
Br	1.965705	0.0	0.0
H	0.520755	0.163724	-2.090049
C	-0.408918	1.289598	0.557461
N	-0.571078	2.364327	1.007124
C	-0.469884	-1.104335	0.830998
N	-0.585405	-2.053416	1.517781
C	-1.436539	0.750754	-1.986494
N	-2.092221	1.460434	-2.65761
C	-0.701547	-1.586416	-1.880133
H	-0.866728	-1.669372	-2.957467
H	-1.609091	-1.853556	-1.344356
H	0.118699	-2.251003	-1.597235
F	-2.273153	0.0	0.0
