18
Coordinates from ORCA-job run
  C   -0.83412553959475     -0.60269464596925      0.03031303624589
  C   0.68539896981610     -0.41024530193829      0.13049885015710
  F   -1.06452262591447     -1.73681586649035     -0.75568926830905
  H   1.06123694104944     -1.36179672003316      0.52685145267173
  C   -1.38455682207652     -0.89838050336514      1.36828877049107
  N   -1.81252528792335     -1.11021934838532      2.44099863363049
  C   -1.59928735996229      0.54692217195090     -0.59934341303409
  H   -2.65768752746278      0.28751923321615     -0.65120159032818
  H   -1.49241393254764      1.46064256301428     -0.01346647085873
  H   -1.23490178647321      0.71954317231985     -1.61215540186953
  C   1.06208173051321      0.70476564482635      1.10314358331589
  H   0.63841791829242      0.54599411716388      2.09737160329541
  H   0.73065553639943      1.67990051899549      0.73668890177042
  H   2.14867763567623      0.74759560979531      1.20802242464810
  C   1.30972887284627     -0.18555331735020     -1.24496289422265
  H   0.96480279361574     -0.92892598998714     -1.96509096652078
  H   1.08226450909284      0.81124942190817     -1.63104737657829
  H   2.39675597465334     -0.26650075967152     -1.17021987450480
