15

C	0.0	0.0	0.0
C	-0.509756	-0.038198	-1.449123
Br	1.949023	0.0	0.0
H	-1.599424	0.129443	-1.278665
H	-0.359	0.934341	0.436372
C	-0.463247	-1.121675	0.814662
N	-0.586903	-2.091909	1.471618
N	-0.414663	-1.386245	-2.071436
O	0.458251	-2.175885	-1.703434
O	-1.227656	-1.611247	-2.971259
C	0.156529	0.945818	-2.396023
H	1.190062	0.658464	-2.61277
H	-0.402954	0.982184	-3.332803
H	0.168889	1.945147	-1.954353
H	-2.679685	0.0	0.0
