15

C	0.0	0.0	0.0
C	-0.533376	-0.019065	-1.417965
Br	1.951337	0.0	0.0
H	-1.665548	-0.168104	-1.109903
H	-0.333484	0.934369	0.449301
C	-0.427979	-1.094195	0.878075
N	-0.565231	-1.939261	1.682416
N	-0.012687	-1.148544	-2.175171
O	0.295815	-0.985848	-3.367591
O	0.047127	-2.240463	-1.597437
C	-0.358209	1.297825	-2.134006
H	-0.963369	2.044582	-1.610412
H	-0.709725	1.220793	-3.160824
H	0.687119	1.622245	-2.153946
H	-2.638791	0.0	0.0
