15

C	0.0	0.0	0.0
C	-0.529503	-0.021706	-1.423013
Br	1.951318	0.0	0.0
H	-1.651101	-0.187789	-1.139072
H	-0.337856	0.932905	0.451374
C	-0.435766	-1.10192	0.865262
N	-0.578859	-1.965594	1.651009
N	0.015006	-1.149248	-2.177102
O	0.37032	-0.971298	-3.352877
O	0.042957	-2.249987	-1.611852
C	-0.363038	1.294833	-2.136571
H	-0.710386	1.211582	-3.165733
H	0.677342	1.631448	-2.154144
H	-0.981278	2.032838	-1.617383
H	-2.650443	0.0	0.0
