13

C	-0.421667	-0.022991	-1.454988
C	0.0	0.0	0.0
Cl	-2.219335	-0.144176	-1.66707
H	1.102695	0.0	0.0
H	-0.00162	-0.907019	-1.942505
C	0.030034	1.175314	-2.159694
N	0.343177	2.120972	-2.781471
C	-0.43862	-1.215399	0.675069
N	-0.756553	-2.196089	1.242369
N	-0.386832	1.232653	0.661906
H	-1.196287	1.113232	1.25492
H	0.404068	1.525396	1.226855
H	2.619716	0.0	0.0
