13

C	-0.545276	0.015863	-1.431317
C	0.0	0.0	0.0
Cl	0.146864	1.374016	-2.363859
H	1.094155	0.0	0.0
H	-1.624994	0.191001	-1.409156
C	-0.30723	-1.235902	-2.152489
N	-0.211748	-2.239461	-2.753679
C	-0.479242	-1.196782	0.679085
N	-0.885031	-2.13887	1.256707
N	-0.383606	1.226531	0.689687
H	-1.074937	1.052332	1.408862
H	0.464861	1.582749	1.125921
H	2.642755	0.0	0.0
