15

C	0.0	0.0	0.0
C	-0.515747	-0.00309	-1.434914
F	1.386013	0.0	0.0
H	-1.60416	-0.149919	-1.404463
H	-0.242693	0.920663	-1.942213
C	-0.389635	1.290935	0.607455
N	-0.555706	2.333619	1.121401
C	-0.4772	-1.155331	0.852815
H	-0.058879	-1.043369	1.854614
H	-1.568238	-1.138195	0.892453
H	-0.136477	-2.093322	0.415641
N	0.121801	-1.099678	-2.210639
O	-0.234078	-2.25447	-1.971712
O	0.969941	-0.783396	-3.044993
Br	-3.79256	0.0	0.0
