15

C	0.0	0.0	0.0
C	-0.207103	-0.164221	-1.530217
F	1.390627	0.0	0.0
H	0.502254	0.519497	-1.997815
H	0.046356	-1.192488	-1.781811
C	-0.393665	1.336046	0.481432
N	-0.5706	2.415087	0.910098
C	-0.574429	-1.107903	0.834009
H	-0.176437	-2.064629	0.485271
H	-0.303599	-0.964188	1.883216
H	-1.668966	-1.087074	0.732493
N	-1.509143	0.137541	-2.18576
O	-2.106349	-0.81002	-2.688553
O	-1.810712	1.324184	-2.260918
Br	-3.982544	0.0	0.0
