15

C	0.0	0.0	0.0
C	-0.515337	0.038386	-1.434888
F	1.388929	0.0	0.0
H	-0.252187	0.980669	-1.912089
H	-1.601419	-0.121668	-1.412784
C	-0.39034	1.276335	0.638513
N	-0.559215	2.317419	1.154724
C	-0.472087	-1.179018	0.82549
H	-0.061718	-1.082808	1.832617
H	-1.563448	-1.175703	0.859685
H	-0.114997	-2.102283	0.371223
N	0.135938	-1.021064	-2.252278
O	-0.159856	-2.191192	-2.019502
O	0.930504	-0.656381	-3.117909
Br	-3.79759	0.0	0.0
