15

C	0.0	0.0	0.0
C	-0.521337	-0.06866	-1.430188
F	1.390769	0.0	0.0
H	-1.611715	-0.194987	-1.383477
H	-0.237912	0.823633	-1.984714
C	-0.389006	1.320399	0.540903
N	-0.547281	2.391687	0.995194
C	-0.47114	-1.110182	0.916054
H	-1.563194	-1.127979	0.919031
H	-0.080507	-2.061623	0.557155
H	-0.095262	-0.914606	1.922632
N	0.083346	-1.209056	-2.168777
O	-0.198226	-2.347986	-1.801786
O	0.823964	-0.937625	-3.115455
Br	-3.790679	0.0	0.0
