15

C	0.0	0.0	0.0
C	-0.390374	0.264707	-1.480799
F	1.373396	0.0	0.0
H	0.542015	0.108666	-2.050275
H	-0.736341	1.290434	-1.642222
C	-0.389499	1.187517	0.796749
N	-0.592444	2.179994	1.391953
C	-0.480121	-1.274473	0.659013
H	-1.571147	-1.289809	0.671767
H	-0.093675	-1.278892	1.682076
H	-0.095983	-2.13592	0.116848
N	-1.384857	-0.608395	-2.181356
O	-2.026011	-0.055322	-3.067536
O	-1.370745	-1.814968	-1.957702
Br	-3.720051	0.0	0.0
