15

C	0.0	0.0	0.0
C	-0.512863	-0.017005	-1.434527
F	1.386001	0.0	0.0
H	-0.22667	0.896434	-1.951831
H	-1.602457	-0.152311	-1.408791
C	-0.386724	1.300039	0.593078
N	-0.546036	2.349253	1.094405
C	-0.47331	-1.147264	0.866391
H	-0.114146	-2.087198	0.448558
H	-1.56485	-1.146271	0.897996
H	-0.066361	-1.013485	1.870993
N	0.121174	-1.126862	-2.194484
O	-0.245759	-2.274255	-1.946865
O	0.975342	-0.824303	-3.026841
Br	-3.794979	0.0	0.0
