15

C	0.0	0.0	0.0
C	-0.509433	0.004769	-1.427101
F	1.382338	0.0	0.0
H	-0.271542	-0.943823	-1.905399
H	-1.591399	0.189802	-1.41293
C	-0.38792	1.20667	0.760481
N	-0.583554	2.120295	1.47152
C	-0.483307	-1.245042	0.718619
H	-0.089282	-2.123794	0.200844
H	-0.105174	-1.234771	1.742644
H	-1.575464	-1.25941	0.72402
N	0.17379	1.050207	-2.233253
O	0.030176	2.219452	-1.882679
O	0.840776	0.675651	-3.198177
Br	-3.794035	0.0	0.0
