15

C	0.0	0.0	0.0
C	-0.292927	0.210226	-1.510135
F	1.388953	0.0	0.0
H	-0.345768	1.267362	-1.750653
H	0.564041	-0.231494	-2.018851
C	-0.394077	1.193781	0.768967
N	-0.557095	2.172714	1.394207
C	-0.523062	-1.265672	0.631316
H	-0.156572	-1.315744	1.657067
H	-1.6166	-1.224178	0.621001
H	-0.180944	-2.128737	0.065649
N	-1.462549	-0.435997	-2.178564
O	-2.11031	0.280359	-2.931886
O	-1.579658	-1.648141	-2.041367
Br	-3.866491	0.0	0.0
