17

C	-0.421333	-0.05745	-1.465303
C	0.0	0.0	0.0
Cl	-2.148345	-0.495913	-1.640818
H	1.090532	0.0	0.0
N	-0.249181	1.356174	-2.05063
O	-0.892855	1.639202	-3.053717
O	0.614931	2.051267	-1.52796
C	0.459056	-0.930557	-2.335215
H	0.218992	-0.746197	-3.383998
H	0.297471	-1.974799	-2.088517
H	1.498414	-0.669857	-2.105196
N	-0.286683	-1.230758	0.735781
O	-0.43368	-1.134729	1.959948
O	-0.190896	-2.301781	0.12525
C	-0.556793	1.127691	0.712708
N	-0.984373	2.064223	1.282076
H	2.404672	0.0	0.0
