17

C	-0.40958	-0.107471	-1.46776
C	0.0	0.0	0.0
Cl	-2.14425	-0.514835	-1.655372
H	1.091199	0.0	0.0
N	-0.202709	1.311613	-2.035166
O	-1.147085	2.091168	-2.050512
O	0.944344	1.559257	-2.395583
C	0.449334	-1.04987	-2.285366
H	1.491602	-0.87441	-2.011605
H	0.180238	-2.072335	-2.049538
H	0.291409	-0.855183	-3.348693
N	-0.307518	-1.185903	0.788649
O	-0.191451	-2.283514	0.230521
O	-0.50066	-1.031222	2.00002
C	-0.497413	1.181877	0.663901
N	-0.81962	2.185718	1.186938
H	2.386258	0.0	0.0
