17

C	-0.336137	-0.048091	-1.473631
C	0.0	0.0	0.0
Cl	-2.094	0.099427	-1.834171
H	1.115327	0.0	0.0
N	0.28463	1.219604	-2.122214
O	0.596534	1.140297	-3.30424
O	0.383274	2.223305	-1.430443
C	0.270449	-1.243086	-2.162956
H	1.330424	-1.263756	-1.886079
H	-0.218826	-2.147557	-1.82145
H	0.166942	-1.138846	-3.240281
N	-0.343961	-1.211013	0.756229
O	-0.969542	-2.138306	0.226759
O	0.098903	-1.234096	1.909111
C	-0.488083	1.12335	0.766237
N	-0.866341	1.993182	1.463579
H	2.392069	0.0	0.0
