17

C	-0.605409	-0.066734	-1.396565
C	0.0	0.0	0.0
Cl	0.109051	1.265774	-2.358634
H	1.094848	0.0	0.0
N	-0.153476	-1.344648	-2.112489
O	0.999631	-1.701468	-1.932973
O	-0.969069	-1.871319	-2.864298
C	-2.110852	0.044327	-1.433903
H	-2.53885	-0.808321	-0.906726
H	-2.468447	0.047168	-2.46222
H	-2.402889	0.973822	-0.943507
N	-0.381595	-1.108615	0.82539
O	-0.80863	-2.148573	0.272842
O	-0.08755	-1.02096	2.032765
C	-0.355102	1.242391	0.650074
N	-0.612781	2.281913	1.137958
H	2.306211	0.0	0.0
