17

C	-0.437375	-0.056415	-1.459013
C	0.0	0.0	0.0
Cl	-2.171698	-0.480492	-1.610449
H	1.092518	0.0	0.0
N	-0.258783	1.353004	-2.050858
O	-0.927759	1.649447	-3.032381
O	0.634983	2.029324	-1.555718
C	0.421265	-0.942295	-2.338189
H	0.173143	-0.752764	-3.384368
H	1.467045	-0.699587	-2.119863
H	0.244042	-1.983696	-2.091261
N	-0.284798	-1.226638	0.740447
O	-0.209882	-2.300133	0.129484
O	-0.404876	-1.126878	1.967382
C	-0.542386	1.133897	0.714365
N	-0.957798	2.086813	1.26479
H	2.399687	0.0	0.0
