17

C	-0.430152	-0.150537	-1.453139
C	0.0	0.0	0.0
Cl	-2.163822	-0.581871	-1.591573
H	1.10795	0.0	0.0
N	-0.245628	1.219851	-2.131793
O	0.660813	1.915757	-1.686632
O	-0.92127	1.463889	-3.123655
C	0.431488	-1.091489	-2.270631
H	1.477296	-0.836857	-2.064946
H	0.250601	-2.115011	-1.958475
H	0.188695	-0.969441	-3.328075
N	-0.279211	-1.171429	0.817549
O	-0.387668	-0.994353	2.03749
O	-0.21048	-2.283756	0.277509
C	-0.537501	1.179372	0.637154
N	-0.945398	2.166592	1.131062
H	2.372829	0.0	0.0
