17

C	-0.498259	0.003222	-1.438622
C	0.0	0.0	0.0
Br	0.37035	-1.378203	-2.514676
H	1.094576	0.0	0.0
C	-1.94241	-0.176556	-1.549499
N	-3.09643	-0.404751	-1.552518
N	-0.143197	1.33135	-2.1197
O	0.921626	1.839068	-1.821115
O	-0.951283	1.754098	-2.944059
C	-0.484762	-1.222407	0.756699
H	-1.575717	-1.233029	0.886159
H	-0.182383	-2.146478	0.260846
H	-0.009182	-1.209787	1.740615
N	-0.501175	1.254082	0.575276
H	-1.086816	1.073169	1.38102
H	0.310432	1.783023	0.873703
F	2.599386	0.0	0.0
