17

C	-0.419392	0.038877	-1.447578
C	0.0	0.0	0.0
Br	-2.391492	-0.154902	-1.731616
H	1.100013	0.0	0.0
C	-0.060692	1.303835	-2.078591
N	0.193049	2.323434	-2.604376
N	0.238906	-1.099673	-2.237572
O	-0.155015	-2.236675	-2.008616
O	1.138182	-0.786456	-3.008592
C	-0.461775	-1.205741	0.793048
H	-1.548087	-1.205334	0.951012
H	-0.179998	-2.145805	0.321698
H	0.040437	-1.154313	1.762731
N	-0.403732	1.271259	0.594049
H	0.414395	1.66187	1.046412
H	-1.137248	1.141841	1.282266
F	2.549724	0.0	0.0
