17

C	-0.446274	-0.02514	-1.464838
C	0.0	0.0	0.0
Br	0.427943	1.389354	-2.465707
H	1.10099	0.0	0.0
C	-0.135528	-1.287012	-2.12623
N	0.13004	-2.300695	-2.659073
N	-1.965336	0.163182	-1.550609
O	-2.610467	-0.85176	-1.280103
O	-2.431929	1.269647	-1.766379
C	-0.487259	-1.205171	0.784266
H	-0.262653	-2.142577	0.272977
H	0.060918	-1.208172	1.730085
H	-1.564449	-1.172336	0.987757
N	-0.453933	1.26219	0.593717
H	-0.850189	1.079	1.506584
H	0.378768	1.822262	0.739808
F	2.58977	0.0	0.0
