17

C	-0.426886	0.015624	-1.446601
C	0.0	0.0	0.0
Br	-2.407651	-0.053024	-1.701827
H	1.095515	0.0	0.0
C	0.009428	1.229591	-2.126391
N	0.313404	2.213052	-2.692667
N	0.152896	-1.189328	-2.196901
O	-0.360214	-2.280815	-1.984865
O	1.120296	-0.970155	-2.914531
C	-0.468529	-1.190897	0.810834
H	-1.558814	-1.208096	0.936243
H	-0.153347	-2.138951	0.37587
H	0.00257	-1.105178	1.79375
N	-0.39168	1.288477	0.565147
H	-1.148264	1.186346	1.230672
H	0.422275	1.661306	1.038364
F	2.551291	0.0	0.0
