17

C	-0.553773	-0.033248	-1.416552
C	0.0	0.0	0.0
Br	0.267891	-1.437184	-2.496654
H	1.094495	0.0	0.0
C	-2.0013	-0.223005	-1.449888
N	-3.154353	-0.439705	-1.363164
N	-0.235118	1.289557	-2.122481
O	-1.157531	1.821999	-2.738318
O	0.910138	1.693238	-2.030448
C	-0.448678	-1.203075	0.811596
H	0.08063	-1.162965	1.766882
H	-0.172781	-2.141804	0.326784
H	-1.530828	-1.209191	1.00069
N	-0.457749	1.274814	0.559352
H	-1.134647	1.135906	1.299438
H	0.360026	1.736448	0.940033
F	2.590268	0.0	0.0
