17

C	-0.486494	0.004289	-1.443612
C	0.0	0.0	0.0
Br	0.389998	-1.377749	-2.512682
H	1.094508	0.0	0.0
C	-1.92949	-0.173558	-1.56929
N	-3.084488	-0.396068	-1.588272
N	-0.122725	1.332644	-2.119678
O	0.938784	1.839444	-1.80658
O	-0.919451	1.756994	-2.954179
C	-0.496263	-1.219499	0.752503
H	-1.589118	-1.228085	0.865342
H	-0.188051	-2.14422	0.261437
H	-0.03635	-1.207375	1.744242
N	-0.508133	1.255962	0.568502
H	0.300861	1.800786	0.846323
H	-1.076574	1.077051	1.38715
F	2.603836	0.0	0.0
