17

C	-0.398138	0.030611	-1.477657
C	0.0	0.0	0.0
Br	0.035377	1.717496	-2.321585
H	1.095659	0.0	0.0
C	0.26243	-1.024545	-2.239131
N	0.764652	-1.877429	-2.872006
N	-1.911773	-0.186693	-1.594509
O	-2.642693	0.74346	-1.275902
O	-2.285218	-1.328521	-1.861858
C	-0.458912	-1.303597	0.64242
H	0.030379	-1.371199	1.617198
H	-1.547521	-1.344763	0.792263
H	-0.157987	-2.179963	0.063108
N	-0.447696	1.191143	0.685698
H	0.307491	1.493738	1.287122
H	-1.281163	1.02919	1.237852
F	2.568866	0.0	0.0
