17

C	-0.428702	-0.006814	-1.486924
C	0.0	0.0	0.0
Br	0.417846	-1.443399	-2.486038
H	1.09358	0.0	0.0
C	-1.871784	-0.136217	-1.662624
N	-3.038188	-0.283879	-1.71143
N	-0.004832	1.325561	-2.106287
O	-0.87104	2.202001	-2.10774
O	1.152767	1.453879	-2.463018
C	-0.547449	-1.21786	0.721286
H	-0.110188	-1.208376	1.720713
H	-1.640262	-1.189217	0.81986
H	-0.257694	-2.149011	0.230906
N	-0.419368	1.216174	0.67395
H	0.269821	1.939067	0.50898
H	-1.336419	1.548595	0.396408
F	2.589585	0.0	0.0
