17

C	-0.28794	-0.100377	-1.498138
C	0.0	0.0	0.0
Cl	0.061073	1.694484	-2.223194
H	1.09501	0.0	0.0
N	0.643044	-0.992926	-2.046978
H	1.569572	-0.78875	-1.64213
H	0.682166	-0.928053	-3.055134
N	-1.63414	-0.41214	-1.823085
H	-2.231516	0.333713	-1.484434
H	-1.74699	-0.469046	-2.828525
C	-0.421897	-1.281134	0.72715
H	-1.507268	-1.398453	0.769198
H	0.009419	-2.135122	0.205096
H	-0.016424	-1.256313	1.741955
C	-0.593978	1.157223	0.634349
N	-1.125078	2.043052	1.19814
H	2.749543	0.0	0.0
