17

C	-0.140172	-0.027431	-1.515867
C	0.0	0.0	0.0
Cl	-1.878004	-0.10974	-2.090854
H	1.100757	0.0	0.0
N	0.401224	1.221417	-2.002393
H	0.462162	1.186328	-3.015289
H	1.353666	1.265539	-1.626335
N	0.506201	-1.24451	-1.96374
H	1.461467	-1.187653	-1.588455
H	0.563268	-1.228165	-2.977475
C	-0.523669	-1.229579	0.725765
H	-0.081591	-2.12319	0.287582
H	-1.61221	-1.298955	0.652121
H	-0.241109	-1.176128	1.780296
C	-0.514261	1.225776	0.582926
N	-0.933072	2.170817	1.142786
H	2.74862	0.0	0.0
