12
Coordinates from ORCA-job run
  C   1.26343901219095     -0.07143937289471     -0.15647394419271
  C   -0.02387945043997      0.35534067406646     -0.08101390530120
  H   2.06869279258720      0.62628491991934     -0.36828718965399
  C   1.61945210407835     -1.43533037217281      0.01596966843540
  N   1.92219759192082     -2.56328762740422      0.16445732708370
  C   -1.17964206618621     -0.55710335403937      0.19821160001243
  H   -1.89017696512366     -0.51933648012350     -0.63157558312688
  H   -1.70510114216470     -0.23701210292439      1.10374317489351
  H   -0.85349209688519     -1.58642050549696      0.33709891509606
  N   -0.37617837867145      1.66220397800467     -0.34853384156093
  H   -1.21790869801534      1.98792176221580      0.09887884194529
  H   0.37159729670921      2.33817848084970     -0.33147506363069
