12
Coordinates from ORCA-job run
  C   0.86602889746617     -0.87705452166057     -0.09776715768308
  C   -0.13859084779417      0.03473182117558     -0.00294327882162
  H   0.67404316056790     -1.92954122628610      0.06291133059584
  C   2.18652608292788     -0.46397758831593     -0.42001969352937
  N   3.26101452090895     -0.05893939103963     -0.68193647722268
  C   -1.53746784741555     -0.37295889417140      0.34782131601554
  H   -1.87043553466785      0.14022431786579      1.25584175335219
  H   -2.22326706933935     -0.10100752787811     -0.45886529110371
  H   -1.60334254067066     -1.44646538788203      0.51991533470816
  N   0.02355766904482      1.36576901246727     -0.30320582046724
  H   -0.61025520073018      2.00578936964353      0.14640434315631
  H   0.97318870970204      1.70243001608160     -0.36915635900035
