12
Coordinates from ORCA-job run
  C   1.27048919492745     -0.10304810958398      0.02132366943257
  C   -0.00427803980397      0.36511893655910      0.00094056453281
  H   2.11176581969939      0.57983069508135      0.09898247239300
  C   1.56948232553449     -1.48790186010444     -0.07746994880771
  N   1.82414680076026     -2.63472411182208     -0.15376267051504
  C   -1.20647198440946     -0.52206651482824     -0.11500863534605
  H   -1.86250676451143     -0.38684806873208      0.75084972588653
  H   -1.77624198420690     -0.25833790246820     -1.00981754403377
  H   -0.92575773778911     -1.57231751740625     -0.17230639764262
  N   -0.28515898132857      1.71608199322226     -0.00468443048892
  H   0.46318649764743      2.32721727135382      0.28387938112277
  H   -1.18065514651957      1.97699518872874      0.37607381346643
