12
Coordinates from ORCA-job run
  C   0.85384349248721     -0.89334628790103     -0.00919408082455
  C   -0.13464565006421      0.03993677734171      0.02719793690563
  H   0.61634158952105     -1.94830656435158     -0.04152189317233
  C   2.21904323377880     -0.50103695209917      0.00405530346065
  N   3.33216312863893     -0.11602351095566      0.00980524473136
  C   -1.58171870231326     -0.34915012206880      0.00126345338312
  H   -2.08601641098690      0.10574731231740     -0.85727089298036
  H   -1.69805296562606     -1.42985697542793     -0.06804435534498
  H   -2.08274139244593      0.00297667036272      0.90666891926576
  N   0.10500611537313      1.38415914665969      0.17968007261396
  H   1.05338059949203      1.69537403780925      0.02786396817280
  H   -0.59660303785479      2.00852646831337     -0.18250367621106
