12
Coordinates from ORCA-job run
  C   1.27241950402540     -0.06695554610050     -0.04699343407762
  C   -0.01447506128689      0.36488607139858      0.00265938124965
  H   2.09262187800067      0.63992303869339     -0.13573691647632
  C   1.61231533689308     -1.44353704169828      0.03165216858578
  N   1.90086305796290     -2.58342847302650      0.08957273781662
  C   -1.18872423899600     -0.55711544837566      0.13378015646849
  H   -1.74698206835662     -0.31803081223412      1.04268153850767
  H   -1.86602408524619     -0.43251010390029     -0.71719442132512
  H   -0.87761092676463     -1.59960381346187      0.17457911845808
  N   -0.33325433338421      1.70711337052916      0.02692460863905
  H   0.39183203340446      2.34294481076215     -0.26740260728749
  H   -1.24298109625198      1.94631394741395     -0.33352233055879
