12
Coordinates from ORCA-job run
  C   0.91380635076661     -0.80439453023742      0.21366665156486
  C   -0.13534007040146      0.03954139931553      0.02306707720416
  H   0.75114762587648     -1.82306316424368      0.53971836701554
  C   2.24595895953824     -0.35996974318993     -0.00201131917373
  N   3.32594308852081      0.06383147468018     -0.20536857970218
  C   -1.54988088127350     -0.40762106497142      0.23516462349621
  H   -2.13320537503871     -0.28678094744648     -0.68309717421103
  H   -1.59159688387604     -1.45517724228364      0.53053156078837
  H   -2.02336824634676      0.19820570116639      1.01201859425806
  N   0.01584539279578      1.37045386380943     -0.28392966317672
  H   -0.74904831489245      1.80477043505762     -0.77390161116235
  H   0.92873835433099      1.66020381834342     -0.60385852690119
