12
Coordinates from ORCA-job run
  C   0.83793601312887     -0.86978086454865     -0.26348929289616
  C   -0.13722568888512      0.03613569594936      0.01575663650702
  H   0.64555943294998     -1.93127189858987     -0.18254170064191
  C   2.12628135884699     -0.43790626072629     -0.67862259409397
  N   3.17589606966538     -0.01836617390747     -1.00984720865351
  C   -1.50166256602697     -0.39319046056549      0.46319253439843
  H   -2.25751999866596     -0.03876756577661     -0.24249813856501
  H   -1.73658291213467      0.03183083179819      1.44429029446472
  H   -1.56864462799356     -1.47786833267202      0.53621719664185
  N   0.01555191814503      1.38857499696399     -0.17436825400351
  H   0.95951794205820      1.72388232435977     -0.30222736256221
  H   -0.56010694108816      1.98672770771509      0.39513788940425
