12
Coordinates from ORCA-job run
  C   1.26735904035646     -0.13785917929458     -0.01051614023507
  C   0.00361167368717      0.35348241966959     -0.09132756297132
  H   2.12605109818433      0.51387190957327     -0.14499002507578
  C   1.53075636164198     -1.51228464023795      0.23102564162366
  N   1.75596910573797     -2.64937626377589      0.43646751800505
  C   -1.22203333044758     -0.49259453541888      0.07593715162727
  H   -1.83264568864878     -0.44307267375535     -0.82935368574235
  H   -1.82786712991193     -0.12191762819094      0.90903307980961
  H   -0.96751700009594     -1.53259026162072      0.27315968125890
  N   -0.24769101279703      1.66825249040620     -0.42654377827541
  H   0.52825001174719      2.30607854008134     -0.33893694556113
  H   -1.11524312945383      2.04800982256391     -0.08295493446343
