12
Coordinates from ORCA-job run
  C   1.26457015232749     -0.13389034605471      0.09471458038582
  C   0.00492230097380      0.36512304648151     -0.00211229874214
  H   2.12572130872681      0.52843305410350      0.09258083126836
  C   1.51944930675682     -1.52504442537145      0.22317500058754
  N   1.73758122429854     -2.67745537074212      0.32419007959877
  C   -1.22419762260538     -0.49226719585116      0.00545473850182
  H   -1.79431467978998     -0.34561728610198     -0.91755146574140
  H   -1.86712718846819     -0.21050492372305      0.84343095024385
  H   -0.97581833929415     -1.54874804750080      0.09109742921425
  N   -0.24209676693041      1.72267083448892     -0.02466990441489
  H   0.54425210026405      2.31409771518682     -0.24496085745707
  H   -1.09194179625939      2.00320294508451     -0.48734908344491
