12
Coordinates from ORCA-job run
  C   0.92193994402083     -0.80855525441801      0.15459459916567
  C   -0.13082438432000      0.04405873005585      0.03595287395138
  H   0.78911823779772     -1.79408755650442      0.58061636035405
  C   2.22035554370353     -0.41484562446380     -0.26710149948590
  N   3.27050096118223     -0.03445375747137     -0.64084394948760
  C   -1.51086717318238     -0.34882409380839      0.46849335838256
  H   -1.86256003656873      0.32165429419012      1.25695165713326
  H   -1.53024797038600     -1.37184245841668      0.84186087449171
  H   -2.21241069420602     -0.27559443745574     -0.36849904405491
  N   -0.00214793667777      1.34295059843466     -0.39415981319898
  H   0.86455031627067      1.58372734962927     -0.85295496423396
  H   -0.81840680763407      1.75581221022851     -0.81491045301726
