12
Coordinates from ORCA-job run
  C   0.93976513096366     -0.75479534028123      0.27558331450805
  C   -0.13460396297971      0.04054702684904      0.02484153490476
  H   0.81467030286750     -1.71767260226103      0.75269570985289
  C   2.24905768671416     -0.32991255124268     -0.07568709706253
  N   3.30723013467322      0.07433075247329     -0.39841054183003
  C   -1.52707920195474     -0.38864379202393      0.37543282800197
  H   -1.97164467681914      0.31600212877780      1.08305226567781
  H   -2.15946929320278     -0.40773835217849     -0.51795895557469
  H   -1.53284404813316     -1.38368417760868      0.81838411065829
  N   -0.02586662694487      1.31495728954750     -0.47688802112505
  H   -0.82366468946528      1.66788302025055     -0.97931104388312
  H   0.86344924428113      1.56772659769785     -0.88273410412834
