12
Coordinates from ORCA-job run
  C   0.94013863356768     -0.75711167545033      0.26572092061908
  C   -0.13951954766833      0.01550002314497     -0.02903289724984
  H   0.81490232978422     -1.73031489089324      0.72150243434114
  C   2.25403816021954     -0.30297402840350     -0.02670379317938
  N   3.31804799158626      0.13152544865180     -0.28415491974331
  C   -1.53451909372166     -0.43472673199779      0.28275328683715
  H   -2.12711639994822     -0.49299053570969     -0.63376590776864
  H   -1.53413830076197     -1.41169976374606      0.76429111107871
  H   -2.02629949592689      0.27757035405199      0.95291463983402
  N   -0.04850548215082      1.20858848917413     -0.70495828101133
  H   -0.78755277375760      1.87227470261042     -0.54035307176625
  H   0.87052397877778      1.62235860856730     -0.76921352199135
