12
Coordinates from ORCA-job run
  C   0.92728180430476     -0.78923510197295      0.21232866792010
  C   -0.14017056740708      0.02119312658088     -0.01846335425827
  H   0.79608280902435     -1.75416046685879      0.68358718764579
  C   2.23481430054269     -0.38786296507792     -0.17182757672388
  N   3.29458468863699      0.00319834733715     -0.50501867505672
  C   -1.52759992013852     -0.37472383856185      0.38638231632043
  H   -1.53275451131291     -1.34636109481419      0.87857430728127
  H   -2.17721255452345     -0.42031487733215     -0.49158605489407
  H   -1.95137503278286      0.36157637722677      1.07673181701913
  N   -0.04988501860376      1.20539511483247     -0.70986652170042
  H   -0.75119301410102      1.89751031748088     -0.50274924699005
  H   0.87742701636082      1.58378506115969     -0.83909286656332
