12
Coordinates from ORCA-job run
  C   0.94100957954612     -0.73406595893687      0.32190496381695
  C   -0.13693661564188      0.03703194951380      0.01695987566531
  H   0.81196084088341     -1.71009000498988      0.77054997199618
  C   2.25816862990892     -0.26733056659561      0.06657697100601
  N   3.32382603342095      0.17118389394215     -0.17691592818315
  C   -1.53646580393111     -0.43794176828159      0.26574780104186
  H   -2.04558850236060      0.23558801134675      0.96010269300391
  H   -2.10903975820115     -0.44951161054133     -0.66735030542788
  H   -1.54310818107017     -1.44450945127076      0.68184457667103
  N   -0.03233753257763      1.32525397207347     -0.44984032246336
  H   0.87449567232390      1.60991829329031     -0.79080987028321
  H   -0.80398436230078      1.66547324044956     -0.99977042684366
