12
Coordinates from ORCA-job run
  C   0.89742391858743     -0.82921431727427      0.19090132663729
  C   -0.13705861373043      0.03649197286500      0.01739429694400
  H   0.71437278463705     -1.87823043558499      0.38197886050041
  C   2.23972738683053     -0.36771504368500      0.13398718677198
  N   3.32922646258295      0.07485559697733      0.06641942752981
  C   -1.56211770641779     -0.42526253405128      0.05966611239981
  H   -1.62294146846330     -1.50167581281584      0.21427405853298
  H   -2.07119617653528     -0.18541608100758     -0.87938314425685
  H   -2.09840765377861      0.07918473867429      0.86752514067622
  N   0.03314714370495      1.39335839354623     -0.11767533395385
  H   -0.69045300540494      1.88706672738932     -0.61400449682799
  H   0.96827692798743      1.71455679496680     -0.32208343495382
