12
Coordinates from ORCA-job run
  C   0.90671566701635     -0.81486607749864      0.20567400922443
  C   -0.13945176427896      0.02529801762518     -0.01647027064777
  H   0.75287688317183     -1.77338397240515      0.68304359945345
  C   2.22074746843558     -0.45250930386591     -0.19429783682232
  N   3.28708651384712     -0.09211890514250     -0.54119130373833
  C   -1.53310387024264     -0.32954058179336      0.40543542380947
  H   -2.19352469889409     -0.36259788250952     -0.46499404660408
  H   -1.55939709336742     -1.29731896524439      0.90449864855682
  H   -1.92870258993368      0.42248058978840      1.09552950735335
  N   -0.02310185591702      1.20341244950985     -0.71377593797135
  H   -0.70377791906461      1.91552007814464     -0.50564586496353
  H   0.91263325922754      1.55462455339139     -0.85680592765015
