12
Coordinates from ORCA-job run
  C   1.24923133384896     -0.24815825259735      0.05950405340586
  C   0.02898555419881      0.34604043220919      0.11274854847728
  H   2.15196787064991      0.31719700586909      0.27329506878942
  C   1.40737295277624     -1.62430639708812     -0.25375108130645
  N   1.54629593011782     -2.76291844180241     -0.51846883777130
  C   -1.25389845992983     -0.37923999821991     -0.15993845912403
  H   -1.78349742090224      0.08736965319776     -0.99672486956344
  H   -1.90268990092661     -0.32492715901278      0.71808491073659
  H   -1.07867578869313     -1.42544155431851     -0.40499531484234
  N   -0.12737572259042      1.65679551952239      0.51540949432064
  H   -0.94068557897360      2.12887893585062      0.15410737961149
  H   0.70296923042408      2.22871025639003      0.49972910726627
