12
Coordinates from ORCA-job run
  C   0.90194228788565     -0.81497958345446     -0.22495337427821
  C   -0.13039561774269      0.04899646423927     -0.03143938228506
  H   0.73997659721831     -1.77038201226698     -0.70603424184059
  C   2.21570244506390     -0.47391095110851      0.19469256665135
  N   3.27942857151986     -0.13692345087213      0.57174431889128
  C   -1.52719161319456     -0.29066195785674     -0.45524642653062
  H   -1.57433358058154     -1.28697649312393     -0.89286747438586
  H   -1.88457670594232      0.43553505079693     -1.18992402505849
  H   -2.20759519209402     -0.26064283701158      0.40177777420472
  N   0.03445349713599      1.31669915686636      0.47268651957362
  H   0.91544136998864      1.51173732200615      0.92598576231318
  H   -0.76385205925721      1.72050929178562      0.93457798274468
