12
Coordinates from ORCA-job run
  C   1.24049611162460     -0.21843933545045      0.19562734641452
  C   0.00570134633621      0.34298991547155      0.12484469786404
  H   2.09661226899151      0.36320794841511      0.52587577539887
  C   1.47346774007949     -1.58010567109020     -0.13320251528878
  N   1.67545422772912     -2.70625681954187     -0.41032362019974
  C   -1.21620906791061     -0.40591736683596     -0.31382054535790
  H   -0.98336135022530     -1.43820261120294     -0.56949459257954
  H   -1.66049143279363      0.07455391530619     -1.19152250750762
  H   -1.96199533058230     -0.39855216031634      0.48529619951192
  N   -0.23261993988149      1.63639817875894      0.54199540265169
  H   -1.01415177157569      2.09908791071762      0.10615107609592
  H   0.57709719820809      2.22923609576836      0.63957328299663
