16

C	0.0	0.0	0.0
C	-0.45269	0.153216	-1.442157
F	1.40721	0.0	0.0
H	-0.176261	-0.741993	-2.004781
H	-0.302679	0.869549	0.58455
N	-0.549071	-1.169478	0.553254
H	-0.212871	-2.004486	0.097054
H	-0.43111	-1.231771	1.552584
N	0.360996	1.246698	-2.06433
O	0.975164	0.987244	-3.09868
O	0.341335	2.3438	-1.511334
C	-1.925629	0.485954	-1.570041
H	-2.203725	0.565907	-2.623525
H	-2.15075	1.430329	-1.074763
H	-2.556477	-0.266691	-1.09687
Br	-5.198114	0.0	0.0
