16

C	0.0	0.0	0.0
C	-0.311963	0.057774	-1.49957
F	1.383506	0.0	0.0
H	0.131019	-0.841083	-1.932695
H	-0.293884	0.930583	0.497973
N	-0.528429	-1.198078	0.569608
H	-0.416634	-1.163433	1.576478
H	-1.532521	-1.20943	0.392483
N	0.50584	1.182856	-2.064907
O	0.351069	2.298647	-1.571213
O	1.246153	0.930898	-3.015223
C	-1.737796	0.266955	-1.954794
H	-1.752151	0.33326	-3.046613
H	-2.164157	1.170626	-1.524059
H	-2.391949	-0.544806	-1.644529
Br	-4.49351	0.0	0.0
