16

C	0.0	0.0	0.0
C	-0.429299	0.028671	-1.479267
F	1.405269	0.0	0.0
H	-1.501694	-0.190262	-1.484481
H	-0.337001	0.938359	0.446434
N	-0.466665	-1.074816	0.802462
H	-0.400331	-1.936346	0.271566
H	-1.459727	-0.90473	0.957134
N	0.244286	-1.102639	-2.186791
O	1.14065	-0.854829	-2.992353
O	-0.12924	-2.242968	-1.899357
C	-0.111815	1.346041	-2.148903
H	-0.372653	1.322535	-3.208019
H	-0.710889	2.121497	-1.664879
H	0.948098	1.5857	-2.054507
Br	-3.670266	0.0	0.0
