16
Coordinates from ORCA-job run
  C   -0.91963684354936     -0.20060621728708     -0.26934654310781
  C   0.59169222525517      0.01692841082063     -0.38309681330898
  F   -1.24210094716515     -1.25277007677018     -1.14032516296492
  H   0.79036234646818      0.41442903112666     -1.38098361817884
  C   -1.34762531361290     -0.61289506143737      1.08018664246813
  N   -1.74584738790250     -0.89067004211473      2.14875676052712
  N   -1.57930186276811      1.00547221099536     -0.60615623139603
  H   -2.57810681803138      0.93903026643381     -0.45562838887658
  H   -1.39482237424867      1.25725721264127     -1.57001655847069
  N   1.27837432303074     -1.31432981423431     -0.36434280400424
  O   1.96704258738631     -1.60129605926031     -1.33931118897268
  O   1.11615478355188     -2.00222856786660      0.63931457087792
  C   1.16091739685590      0.89760196034093      0.71024345906202
  H   1.01570834913284      0.43252801332895      1.68601030057883
  H   2.22961971910542      1.04892207742871      0.54734009854011
  H   0.65856981649164      1.86462665585426      0.69635547722664
