16
Coordinates from ORCA-job run
  C   -0.91958662044495     -0.01747077154607     -0.36309185531554
  C   0.61024369364051     -0.20002714228306     -0.35377059953144
  F   -1.16314849389178      0.87564869554696     -1.43071166627818
  H   0.88177801298212     -0.74962715086641     -1.25619370977495
  C   -1.62168126487576     -1.26319330886765     -0.72632062763312
  N   -2.21514961719586     -2.22512355426681     -1.04321419852511
  N   -1.39932867844282      0.43928237364771      0.87397356160268
  H   -0.94944283215474      1.29057300445952      1.18028696726123
  H   -2.40548836008351      0.53731783797850      0.88745215552301
  N   0.94738563790120     -1.11952038361572      0.78622887603836
  O   1.32010707217275     -0.61204379400754      1.83925847263988
  O   0.79946946544665     -2.32069039976135      0.57289665870583
  C   1.37613251943720      1.10264684218045     -0.25547097548342
  H   1.15961036873833      1.63808489304132      0.66773929464307
  H   1.13102158984282      1.73087932438685     -1.11082801952239
  H   2.44707750692785      0.89526353397331     -0.26723433434990
