16
Coordinates from ORCA-job run
  C   -0.94613004018468     -0.19122751928415     -0.16420877227984
  C   0.55324820064632     -0.04003001690277     -0.43516627894106
  F   -1.37772538156438     -1.30839041074950     -0.89635609266407
  H   0.66874947218163      0.25681360985409     -1.48003145442896
  C   -1.25599626815935     -0.45994064589069      1.25230802413146
  N   -1.55885426222972     -0.62243175462669      2.37456767660691
  N   -1.60151478934299      1.00066998705406     -0.55429245118507
  H   -1.50090444918011      1.15577875403128     -1.55034222469024
  H   -2.58305279759265      0.98525160115294     -0.30756956493913
  N   1.20161912388168     -1.38790171312280     -0.35247061682593
  O   1.11485400088725     -1.97461390076228      0.72227147163202
  O   1.78740773204136     -1.78838091310816     -1.35435329625096
  C   1.24631732063958      0.91637610488558      0.51371334894625
  H   2.29754531820753      1.01767166839078      0.23759408023393
  H   0.76789863787883      1.89398530313484      0.45787578870558
  H   1.18453818188969      0.54536984594348      1.53746036194912
