16
Coordinates from ORCA-job run
  C   -0.94106793949345      0.09473689944371     -0.38952332772472
  C   0.57013616259133     -0.18830450818721     -0.43126193685252
  F   -1.21914633490483      0.77620970349995     -1.56717777549724
  H   0.77156457054264     -0.68795599571779     -1.37941884622014
  C   -1.69487604907451     -1.18384068910635     -0.47550049599273
  N   -2.29597381597567     -2.19353027835591     -0.49160178668715
  N   -1.30888472176148      0.92888106556603      0.69752900226992
  H   -0.91216522982180      0.57971409872800      1.56143443554045
  H   -2.31547595445016      1.00054169626567      0.77949185374634
  N   0.93404119994931     -1.19047439954195      0.62162225549284
  O   1.48644140359561     -2.22196238993744      0.25323204651170
  O   0.67398121692828     -0.89322141125467      1.78902670074543
  C   1.40965792915319      1.06341284252091     -0.26439294853569
  H   1.10291517248927      1.79647835631562     -1.01035852252036
  H   2.46326714553004      0.82148883116223     -0.41675009029794
  H   1.27458524470222      1.49682617859920      0.72464943602182
