16
Coordinates from ORCA-job run
  C   -0.93051033040079      0.07291158343800     -0.41575662697213
  C   0.58286901209413     -0.19591019745287     -0.40689072048988
  F   -1.17898841260509      0.71167269599667     -1.62256998631108
  H   0.81817267308090     -0.70617418950664     -1.34193537726842
  C   -1.66973772461288     -1.21593931972125     -0.47832599716383
  N   -2.25849394264448     -2.23295140244033     -0.47913905086052
  N   -1.34344092778549      0.94674900949216      0.62549529681589
  H   -1.04150099498635      0.58498318864625      1.52181044933047
  H   -2.35059821082701      1.05675618537868      0.62047047849581
  N   0.94364446438980     -1.17047218889774      0.67132512174615
  O   0.46869332668154     -0.97411593111954      1.79102274175072
  O   1.72511851696934     -2.06748461529773      0.37395307751677
  C   1.40846438041528      1.06568674610263     -0.23823225843604
  H   1.11869077746278      1.78434665010311     -1.00480376730329
  H   2.46716397148529      0.82632933689859     -0.35553462098646
  H   1.23945342128304      1.51461244838001      0.73911124013584
