16
Coordinates from ORCA-job run
  C   -0.88347889148087      0.30141996540367      0.18241249940589
  C   0.48605863609846     -0.29233208538783     -0.19295101101778
  F   -0.67653253289481      1.54888857721387      0.76019664449471
  H   0.31641184425669     -1.20460878669318     -0.76844608081007
  C   -1.62073213252277      0.55990490195529     -1.07971001138065
  N   -2.21941852177086      0.71105593441241     -2.07917407846489
  N   -1.58606684942297     -0.52359255481809      1.08331488694970
  H   -2.58841886682996     -0.42601369991440      1.04711157441114
  H   -1.28381034078315     -1.48491478394545      1.11780317380821
  N   1.14027393522384     -0.76070396559602      1.07802749561509
  O   0.91242642902247     -1.92659385635409      1.40612601793049
  O   1.82993890138645      0.03930342248626      1.69811233035186
  C   1.37756134360122      0.68688063858862     -0.92360625185718
  H   1.53951722656518      1.57696357455862     -0.32038580243148
  H   2.34182751199706      0.22323342719089     -1.13709430583344
  H   0.91444230755403      0.97010929089942     -1.87073708117160
