16
Coordinates from ORCA-job run
  C   -0.92135595002679      0.16249586714671      0.16000490899234
  C   0.53021058560083     -0.19493954281486     -0.20351899158417
  F   -0.91334200681574      1.30606585831592      0.94719383189421
  H   0.51047745279608     -1.00045217669111     -0.94040723357091
  C   -1.61660474545961      0.54321652613855     -1.09599404876444
  N   -2.17734395610039      0.78915606275275     -2.09875091319528
  N   -1.55522530950027     -0.88180805723427      0.86692246082431
  H   -2.56154436747242     -0.87101652420381      0.80224766658515
  H   -1.16726263002160     -1.79989161006905      0.71087321622860
  N   1.16424319291298     -0.80954269432265      1.01424427982564
  O   1.69050698294151     -0.05962790752207      1.82717338372070
  O   1.08795647511555     -2.03592598908503      1.10303535812926
  C   1.33233600177274      0.99541413199665     -0.68054278495059
  H   2.35660633051792      0.68938761534815     -0.89872716233040
  H   1.35015283170639      1.77110152316852      0.08125846671006
  H   0.89018911203283      1.39536691707559     -1.59501243851450
