16
Coordinates from ORCA-job run
  C   -0.90478021981192      0.26166305444266      0.10768993364238
  C   0.51774797555717     -0.25341361929435     -0.17228548907546
  F   -0.81982825614515      1.41811467247300      0.86910972050978
  H   0.45055247530581     -1.06772331790578     -0.89662804567047
  C   -1.49318941497338      0.67620618373664     -1.19196933573863
  N   -1.97344884415412      0.94828316761683     -2.22915342653000
  N   -1.67671136325809     -0.69263316017624      0.80676972526328
  H   -2.67215882652110     -0.56558388773575      0.70320243849117
  H   -1.39597977130290     -1.65122390029284      0.66300605842653
  N   1.01979398340533     -0.90466313708150      1.08674297173960
  O   0.81257100792482     -2.11459501518718      1.18975983584784
  O   1.57553866353871     -0.19539468779182      1.91641624929884
  C   1.46349854629403      0.83653142948933     -0.62535040189033
  H   1.52164516258295      1.62372589368948      0.12266280371545
  H   1.11416729798231      1.25889234854270     -1.56956176902134
  H   2.46058158357553      0.42181397547481     -0.78141126900865
