16
Coordinates from ORCA-job run
  C   -0.93183350798513      0.21815191581212      0.02610268026750
  C   0.49662645994695     -0.29699639105134     -0.21041570465846
  F   -0.86998217720990      1.39868730870955      0.77857908608082
  H   0.44885306206736     -1.05654987207833     -0.99264656187065
  C   -1.46991174995431      0.60785720735005     -1.29597079483661
  N   -1.87758874177497      0.92408744523612     -2.35027866752435
  N   -1.77029719444087     -0.76584775872260      0.59336183128088
  H   -1.47979230042826     -0.96703519047559      1.54205739475745
  H   -2.73896888129197     -0.47419795702851      0.58316732962003
  N   1.02771743456792     -1.02839207567222      0.98876431848790
  O   0.62080663575947     -0.70257504000654      2.10326611651847
  O   1.88653593980225     -1.87295216469901      0.75892306681268
  C   1.48340295581286      0.80307889592147     -0.56257772490155
  H   1.57375504256190      1.50703216105982      0.26425387716032
  H   2.45771262260213      0.36391814613978     -0.77880026509265
  H   1.14096439996458      1.34173336950524     -1.44778598210179
