16
Coordinates from ORCA-job run
  C   -1.00830588014309      0.02149977104515     -0.37600944507881
  C   0.52466177904593     -0.19753429676540     -0.44448257365397
  F   -1.28916623805359      0.69925140027517     -1.55237663641866
  H   0.74731013339554     -0.67598453408732     -1.39911988178309
  C   -1.68228660476312     -1.29395502919896     -0.42103954414898
  N   -2.18159684022301     -2.35554134052366     -0.46338980087778
  N   -1.55488842728679      0.79056563890304      0.69005285178276
  H   -1.11890515731753      1.70420737886147      0.72244070026354
  H   -1.41705130380200      0.32071622358170      1.57603266416119
  N   0.93488222148419     -1.18834840546954      0.59884850123210
  O   1.60153011906103     -2.15104622733412      0.23169277548587
  O   0.58911226331994     -0.95193754503023      1.75716545422862
  C   1.31382017284081      1.08334229966431     -0.25931990321878
  H   0.97402160273069      1.82808125498030     -0.98059886596483
  H   1.19307686697593      1.47090249938284      0.75286709438752
  H   2.37478529273507      0.89578091171525     -0.43276339039670
