16
Coordinates from ORCA-job run
  C   -0.95896583785546      0.29496839487180      0.06634836707138
  C   0.47372397599223     -0.22335793233981     -0.21365332092517
  F   -0.86353058570326      1.45342532699355      0.80678028745565
  H   0.41786789780936     -0.95407373074282     -1.02323272941573
  C   -1.53558943152575      0.64212239602323     -1.25343531777547
  N   -1.95404689742355      0.89503217940523     -2.32058094064410
  N   -1.85929349953107     -0.57895260325596      0.74302467405115
  H   -1.46589773199785     -0.90870288783645      1.61498491629522
  H   -2.17141561110412     -1.34684469094812      0.16506983712809
  N   0.96878275261486     -1.00491140471232      0.96238186317172
  O   0.81478585580379     -0.50469378888835      2.07561187980352
  O   1.51630355376727     -2.07920291427068      0.72566065809337
  C   1.47178431451417      0.87663401767424     -0.52654024842148
  H   1.12540649736868      1.45979263679047     -1.38158852080574
  H   1.57876788654676      1.53803885032031      0.33182725941983
  H   2.44031686072394      0.43972615091567     -0.77565866450222
