16
Coordinates from ORCA-job run
  C   -0.91941075435295      0.23586191792865      0.03142095288433
  C   0.53061184321378     -0.26192338858081     -0.09988785278065
  F   -0.90160743145033      1.54357642441484      0.49551726727164
  H   0.51631530449487     -1.22791821758171     -0.60866582048915
  C   -1.49326386370815      0.30124447169871     -1.33723033509563
  N   -1.94514462619941      0.29511890027352     -2.42171032585138
  N   -1.66615311493882     -0.56045042644702      0.92709694375855
  H   -1.33493974397782     -1.50802485020947      1.02991520382116
  H   -2.66300948418795     -0.51557059200154      0.77975365518492
  N   1.03191187045060     -0.56937359700615      1.28436503050833
  O   1.54305958144345      0.34074805437336      1.92514833253141
  O   0.87173459005313     -1.72753483762357      1.67272671119240
  C   1.43795289721687      0.73303817648863     -0.78870957445229
  H   1.44862336302392      1.67543089338267     -0.24645210555517
  H   1.08897555753709      0.90562241513460     -1.80855176735416
  H   2.45434401138173      0.33915465575530     -0.83473631557430
