16
Coordinates from ORCA-job run
  C   -0.99125457192294     -0.01020615882307     -0.41577276883713
  C   0.54688856245375     -0.19874092718232     -0.41580424328186
  F   -1.23662163377020      0.63177332304192     -1.61981788939860
  H   0.81876485644439     -0.69304566560246     -1.34948279637951
  C   -1.63751997310344     -1.33956621079894     -0.45610333119120
  N   -2.13959549493261     -2.39945730257460     -0.50798167858411
  N   -1.59758717286629      0.77389723137790      0.60616003487027
  H   -1.47944210528436      0.33334845441649      1.50978792568080
  H   -1.18752964659343      1.69978718558968      0.62634583411763
  N   0.93610646422140     -1.15599842408747      0.66598260283555
  O   0.51873689345687     -0.91463551714474      1.79955584102036
  O   1.66238196551722     -2.09444840755685      0.35373044761889
  C   1.30280281309746      1.10209013854668     -0.22870555805602
  H   2.37360746168911      0.93168083105481     -0.35223486157266
  H   0.97986182443912      1.82216504215101     -0.98206329115632
  H   1.13039975715395      1.51135640759197      0.76740373231391
