16
Coordinates from ORCA-job run
  C   -0.93541101049152      0.14248453024088      0.11184576844747
  C   0.53853296731384     -0.22688152028124     -0.15641651516235
  F   -0.91786476316717      1.32211367726119      0.87738764292993
  H   0.55210409015940     -1.13069130784873     -0.76814094326791
  C   -1.56374805457194      0.51447049069791     -1.17482397180290
  N   -2.06435497456582      0.77156837134299     -2.20561783820075
  N   -1.64045603084626     -0.87620378555394      0.74281536258336
  H   -1.14235105806956     -1.67740709365135      1.08827987819694
  H   -2.61959889176367     -0.98298079869483      0.55339315370651
  N   1.13445056082667     -0.64546907823999      1.16230146283057
  O   0.95662993208221     -1.82192265334952      1.48925715866065
  O   1.73449050812308      0.19514339088125      1.81990899423264
  C   1.34128553952629      0.89916508786124     -0.76758006094779
  H   0.94828508699249      1.13297319262364     -1.75870385516878
  H   2.38466549680978      0.59824385321511     -0.87328549548896
  H   1.29334060164215      1.78639364349537     -0.14062074154863
