16
Coordinates from ORCA-job run
  C   -0.92767842221835      0.01235606843679      0.08950576279389
  C   0.56769519907905     -0.25318345996198     -0.18406416059803
  F   -0.96581976929516      0.94496142441295      1.14805346383445
  H   0.64229461538658     -1.15428697052727     -0.79579135067179
  C   -1.53753781639188      0.69394278920279     -1.07016557077806
  N   -2.02487174323183      1.22882688159689     -1.99450917217017
  N   -1.64609820073922     -1.16641615559224      0.35398499879173
  H   -1.20012394632153     -1.72608629106413      1.06928425113088
  H   -2.61233273706644     -0.97277379182705      0.58274569975164
  N   1.18173973977078     -0.62687653213924      1.14547445025500
  O   0.85013723511080     -1.71934828803650      1.60876382155006
  O   1.94898039701039      0.16507349930235      1.67642003075277
  C   1.29326161991597      0.92626100925232     -0.79143239185018
  H   2.36214632419542      0.72195205186158     -0.84733848227529
  H   0.92170823053578      1.10248801688910     -1.80160018733778
  H   1.14449927425964      1.82210974819365     -0.19033116317911
