16
Coordinates from ORCA-job run
  C   -0.93463757378905     -0.00035693375944     -0.32301412984010
  C   0.59112584792249     -0.20384506636472     -0.38506001758749
  F   -1.21361862942185      0.90702812072861     -1.37007393488513
  H   0.81439706862709     -0.74530934877129     -1.30542835136925
  C   -1.67074325560159     -1.23255456003865     -0.66471399514779
  N   -2.29815979876369     -2.18507763780480     -0.94207338120025
  N   -1.35149139919210      0.45016889236932      0.93874144812358
  H   -0.87688691152446      1.29249772874306      1.23217148427355
  H   -2.35462844343853      0.56022296122527      0.99973475802947
  N   0.96652629809250     -1.14297044685875      0.72696127440224
  O   0.79374828770818     -2.33923887505281      0.50468049308958
  O   1.39331088073153     -0.65476777876999      1.76849186092785
  C   1.37899558455018      1.08692218572853     -0.30493151753180
  H   1.21374970356049      1.61144068936806      0.63503067288416
  H   2.44524563545524      0.86608620352421     -0.37069763651796
  H   1.10206670508359      1.73075386573338     -1.13881902765067
