16
Coordinates from ORCA-job run
  C   -0.99500959740877     -0.01209074627318     -0.41099995007870
  C   0.54290334307813     -0.20672494802489     -0.41738425923754
  F   -1.24686690181805      0.61085184721882     -1.62344751835202
  H   0.80607338977847     -0.72187485553761     -1.34220243250547
  C   -1.64442936461747     -1.34050177913112     -0.42217992819218
  N   -2.12210909554457     -2.41283964526323     -0.43229678321446
  N   -1.59076522085288      0.79109280912250      0.60257747244839
  H   -1.18020275652718      1.71668068672367      0.60164947371479
  H   -1.46513237777301      0.36783844252152      1.51332579401790
  N   0.92899612590578     -1.14501828586094      0.68190442024630
  O   1.60078466254178     -2.12608513482783      0.37812935623467
  O   0.55721873253480     -0.85133791659538      1.81894489031605
  C   1.30607774303676      1.09328047733355     -0.26095447331530
  H   2.37677783824086      0.91098008872198     -0.37098409675864
  H   1.12995153418652      1.53138645948767      0.72221388373272
  H   0.99473194523883      1.79436250038447     -1.03729584905652
