16
Coordinates from ORCA-job run
  C   -0.88881677142549     -0.18034365671143     -0.42720640257395
  C   0.63036013325027     -0.01052841778492     -0.41648972186097
  F   -1.20779641536498     -1.07133324873659     -1.42897605771592
  H   0.89363846210196      0.38166773510549     -1.39877637202044
  C   -1.41714228247102     -0.73837090570588      0.84293985891903
  N   -1.90344061693248     -1.05930657454772      1.86324877602969
  N   -1.49439016947515      1.07622680335491     -0.78248480375608
  H   -2.48032022488682      0.91843451498114     -0.96469203876931
  H   -1.42228354634665      1.73746692811847     -0.01803644827385
  N   1.26483963107132     -1.36662192574943     -0.34719054673528
  O   1.10266122733330     -2.00125994830150      0.69246014791577
  O   1.90875970475194     -1.73092322619375     -1.32701740149826
  C   1.14866913645224      0.84748298676607      0.72020217411286
  H   0.78730148097768      1.87226199973183      0.61695341278795
  H   2.23919390815730      0.87991766381350      0.69008862068913
  H   0.83976634280656      0.44322927185982      1.68497680274963
