16
Coordinates from ORCA-job run
  C   -0.96277628930998     -0.15864099081227     -0.08278140760716
  C   0.51233906208740     -0.05933840511782     -0.48055051030804
  F   -1.49343759774818     -1.25944371429574     -0.77303248558961
  H   0.54857408897408      0.23196665840417     -1.53271381874353
  C   -1.16049180536060     -0.41649842287141      1.35563289641830
  N   -1.37231098336274     -0.56701951604526      2.50022312355295
  N   -1.60720730251984      1.05585998075556     -0.41885899039049
  H   -1.58661240924107      1.20655147758663     -1.42051854320470
  H   -2.56447254565728      1.07336111414728     -0.09026155672572
  N   1.11907725399745     -1.42885220348026     -0.44785004224663
  O   1.60316557109584     -1.85022617607481     -1.49438016655443
  O   1.10440647452203     -2.01067402617085      0.63291501273618
  C   1.31642401769462      0.87323214781634      0.40206319808321
  H   2.34413864023367      0.93399284872203      0.03911371202054
  H   0.87194022029406      1.86801366734508      0.38042206506704
  H   1.32624360430053      0.50771556009132      1.42957751349207
