16
Coordinates from ORCA-job run
  C   -0.92183722217760      0.13168700287793      0.04255906827833
  C   0.53850105034927     -0.32943227377672     -0.14613505237447
  F   -0.88906003296467      1.10554005158480      1.06419436551168
  H   0.52683211964738     -1.25761791029637     -0.72079195186632
  C   -1.38668206823306      0.83558459843481     -1.16977313908353
  N   -1.75820330254653      1.38858494329505     -2.13630182467235
  N   -1.79507853410330     -0.93566550491672      0.31286240291266
  H   -1.45685573537579     -1.51676983530130      1.06904496842288
  H   -2.73875694181444     -0.61424004322273      0.48455599431362
  N   1.04000876215329     -0.72124103977376      1.22500123581575
  O   0.55339717912837     -1.74442629862043      1.70903373249822
  O   1.87505759826894     -0.00860863244708      1.76591800550888
  C   1.43463338056463      0.72348384476811     -0.75838231026104
  H   1.13658074410329      0.89994036549677     -1.79262855277821
  H   2.47064581617492      0.38571261991707     -0.75005422213801
  H   1.37181718682531      1.65646811198057     -0.20010272008809
