16
Coordinates from ORCA-job run
  C   -0.94884868205491     -0.18419541169442     -0.26407130848217
  C   0.55891137220611     -0.09890460610136     -0.49963719027352
  F   -1.44888272504133     -1.17422480446797     -1.08222397734511
  H   0.68224024325701      0.14721141265011     -1.55430472383602
  C   -1.29690669785278     -0.55039994202571      1.13190674484203
  N   -1.64204222915936     -0.71535612604884      2.24276306522847
  N   -1.55628985520889      1.04962557112787     -0.68816606563260
  H   -1.34299701913062      1.79650580282475     -0.03742965503359
  H   -2.56358104440723      0.92558632011302     -0.69927052873865
  N   1.14838625947828     -1.46725176411291     -0.33946385103095
  O   1.12903032102911     -1.94913033981869      0.79083886533264
  O   1.61869303102291     -1.99286653840673     -1.34426321278581
  C   1.27425491461139      0.87017923595096      0.42010713350712
  H   2.34864719786553      0.83327034618144      0.23174091310022
  H   1.09698090851220      0.61739912447076      1.46622456005586
  H   0.94240400487259      1.89155171935771      0.22524923109209
