15
Coordinates from ORCA-job run
  C   -0.76295379552928      0.03888599061311      0.26122370119772
  C   0.63028412785001      0.66732257710343      0.27063755810841
  Cl  -1.72023336757884      0.73161319136813      1.53865312903414
  H   0.48818271951057      1.73986589435238      0.09871646702724
  N   -0.69535435842346     -1.47901816666320      0.41462449904158
  O   -1.71587898860335     -2.04452397331038      0.76377168418177
  O   0.38961426163896     -1.97705101329801      0.13496503533105
  N   -1.47172947424201      0.33926572936524     -1.07796632850678
  O   -1.92891347202512     -0.60692408540758     -1.69117441948458
  O   -1.50691290638110      1.52437742666060     -1.35966097402929
  N   1.51998077194951      0.20441525673392     -0.88319476803753
  O   0.94981972383492     -0.00072070123140     -1.94343023403417
  O   2.71628557301401      0.15558881480409     -0.65597187177248
  C   1.29797042025702      0.43401646292048      1.54111031076659
  N   1.80883876472815      0.27388659598917      2.58669621117634
