15
Coordinates from ORCA-job run
  C   -0.78582743789342     -0.00446941935004      0.21319361474400
  C   0.55564278543419      0.73747090398721      0.29987810491937
  Cl  -1.82577147922856      0.47820901165978      1.51580539771721
  H   0.37840505826766      1.78220239543428      0.03619532220806
  N   -0.53628807387353     -1.52128136087793      0.21371742794952
  O   -0.20050587693062     -1.96142601437040     -0.87683759358943
  O   -0.64113051454515     -2.10803874866659      1.27521225078346
  N   -1.52177672182051      0.31065859060285     -1.09615267451673
  O   -1.17088682834909      1.32211065847595     -1.68664940013756
  O   -2.43178452060029     -0.45158128981248     -1.37430633436861
  N   1.57209217413727      0.20810800167895     -0.71596106791772
  O   2.21366054634654     -0.77440262258081     -0.36849489661358
  O   1.65564266835903      0.82839778596367     -1.76636003195507
  C   1.13205647541086      0.60751163331141      1.63014117751223
  N   1.60747174528561      0.54553047454416      2.70261870326484
