15
Coordinates from ORCA-job run
  C   -0.79726443725590      0.02410699265508      0.17096700031898
  C   0.56191848636242      0.70003752002764      0.35826004736424
  Cl  -1.93792466894616      0.68373199365371      1.30619954799403
  H   0.40274909894010      1.76730853664458      0.15985499454013
  N   -0.68631164787677     -1.49612506399180      0.33057218098908
  O   -1.67912263803145     -2.11587700576693      0.68314410044384
  O   0.41386243355067     -1.94649508939421      0.02701381479548
  N   -1.33119682216002      0.28760744103224     -1.25567635451402
  O   -1.56585012683438     -0.68394548137076     -1.94725821951345
  O   -1.44364578328393      1.47177576123624     -1.52414976152890
  N   1.60130402781097      0.26835419597011     -0.67920660719290
  O   2.72776812957210      0.05462592684231     -0.28585644282658
  O   1.19975047555317      0.25104996988679     -1.83299100875197
  C   1.05878125312128      0.49386654387924      1.70762705580352
  N   1.47418221947789      0.24097775869574      2.78049965207851
