15
Coordinates from ORCA-job run
  C   -0.75991606579827      0.05380820538234      0.26406204239720
  C   0.64377928300830      0.65930279841034      0.26116261918679
  Cl  -1.69903709835369      0.77233304089632      1.54065711298269
  H   0.51814883877575      1.73213480341981      0.07854459272343
  N   -0.71683108865430     -1.46387738371796      0.42935731974719
  O   0.35716630173815     -1.98277104945421      0.14530201761966
  O   -1.74433385238721     -2.00957830161747      0.78942490079772
  N   -1.47058618744955      0.35456808425926     -1.07367115867238
  O   -1.94172102808266     -0.58980293000012     -1.67915025420257
  O   -1.49178070425583      1.53781057688832     -1.36315197512958
  N   1.52003598657330      0.16996423185281     -0.89206543700616
  O   0.94208497296678     -0.02755526591858     -1.94953467517065
  O   2.71525747737221      0.09290036379313     -0.66712732550200
  C   1.31138916117996      0.42789282825349      1.53190090947273
  N   1.81434400336707      0.27386999755251      2.58228931075593
