13
Coordinates from ORCA-job run
  C   0.98567570825109     -0.49339354635112     -0.15006956545185
  C   -0.39623482076363      0.14828053813910     -0.23103779174984
  Br  1.41925109271143     -1.31446775397621     -1.87015461274970
  H   -0.37930186046333      0.99387666274585     -0.93057089446399
  H   0.97163082902773     -1.29350884714019      0.58979498019801
  C   2.00886228476202      0.49117664776806      0.16773218652006
  N   2.82510079022215      1.30354217481084      0.39933534893950
  N   -0.72148298902577      0.76946862404358      1.11151470759477
  O   -1.66580682250231      1.55226122728750      1.09745054240414
  O   -0.07861091265716      0.41600771708762      2.09422184199558
  N   -1.42530807954936     -0.83379181016759     -0.44164353294137
  H   -1.22854212143708     -1.37302172483368     -1.27507549598820
  H   -2.31623309857577     -0.36642990941376     -0.56349771430710
