13
Coordinates from ORCA-job run
  C   1.10374735270757      0.18513109400334     -0.27985335212585
  C   -0.42609356666334      0.11332403802569     -0.15245043050815
  Br  1.95584111854756     -0.05709232272111      1.44685588251836
  H   -0.84613549654458      0.39589856269755     -1.12770737575107
  H   1.40560872933719      1.16892334029646     -0.64170655445150
  C   1.53331964999337     -0.85180663097720     -1.20523423415357
  N   1.82793953227240     -1.68266005943319     -1.98179669982854
  N   -0.85116918063024      1.25215984571879      0.75895333008266
  O   -1.60920344803772      1.00177401754723      1.68808918228075
  O   -0.40552177666106      2.35473711920391      0.46426323084196
  N   -0.87192272044803     -1.14639586318035      0.34598919557211
  H   -1.55742931893460     -1.01854077651052      1.07886352489670
  H   -1.25798087493853     -1.71445236467061     -0.39426569937384
