13
Coordinates from ORCA-job run
  C   1.02027917924690     -0.42915176147079     -0.20038382421916
  C   -0.40439219166944      0.10723489011513     -0.38580806520913
  Br  1.68700240038593     -1.15015353984706     -1.87557280636099
  H   -0.42353811829073      0.90538938733947     -1.12809767918465
  H   1.00179783452547     -1.25301870145855      0.51696865692525
  C   1.92410363221369      0.60823623574956      0.27688568167189
  N   2.63825603077960      1.45505757984786      0.66851618666231
  N   -0.74922276850579      0.79049582072159      0.94192875986686
  O   -0.91865052952070      2.00484409077075      0.93658985553129
  O   -0.84011900169389      0.03975255389742      1.91232029460659
  N   -1.30701388346332     -0.93031123132405     -0.71520954093934
  H   -2.20714906858701     -0.57260911462606     -1.00394841580304
  H   -1.42135351542071     -1.57776620971527      0.05481089645211
