13
Coordinates from ORCA-job run
  C   1.00592676943046     -0.22656081311653     -0.56881622813263
  C   -0.46562829448693      0.11701683485485     -0.36472564395856
  Br  1.93738704696578      1.18409194128439     -1.53346804477294
  H   -0.87838201615981      0.49151135995921     -1.31121630192428
  H   1.03918611955965     -1.08643414487205     -1.24435597261852
  C   1.69771501207221     -0.58481250886976      0.66083680472158
  N   2.25520024457256     -0.93419095854568      1.63350177510322
  N   -0.66619156064517      1.26025310776301      0.60374515320496
  O   -1.84186567629720      1.57782768644687      0.76315132655585
  O   0.30599300125440      1.76951274078501      1.14479237063650
  N   -1.14502513789052     -1.01041000940907      0.22234026026743
  H   -1.13435587544706     -1.79864770769861     -0.41328123001405
  H   -2.10995963292837     -0.76115752858167      0.40749573093145
