13
Coordinates from ORCA-job run
  C   1.02040421839682     -0.39255251940200     -0.26497747028826
  C   -0.42106570915061      0.12185496107462     -0.36443337113272
  Br  1.64016390823800     -0.98781455433914     -2.00607987966961
  H   -0.48511800868400      0.96319450828825     -1.05457041587026
  H   1.04480183151841     -1.26154806200386      0.39678161712149
  C   1.91978286493021      0.63138620182647      0.24844486853359
  N   2.62852980005922      1.46739911304057      0.67216497318564
  N   -0.72877023229423      0.71503894453606      1.01478589890281
  O   -0.76183204263447     -0.09476922178173      1.94058294546622
  O   -0.92705772997037      1.92268724729533      1.09003073768978
  N   -1.31337400088884     -0.91442457184267     -0.72409098807625
  H   -1.38571018132658     -1.60967789575428      0.00832449108211
  H   -2.23075471819357     -0.56077415093763     -0.95796340694455
