13
Coordinates from ORCA-job run
  C   0.92161081392489     -0.48612308411858     -0.11938601893522
  C   -0.44952396242557      0.19556384463918     -0.31114434866644
  Br  1.38219501400092     -1.46072732090184     -1.74077033664010
  H   -0.38674046740265      0.95077535327426     -1.09445423383617
  H   0.84656418941467     -1.22375846644310      0.68235453651421
  C   1.96633650189419      0.47817094768947      0.18977067878172
  N   2.78436640582390      1.28310207370465      0.44334381645756
  N   -0.70762311800624      0.94305557126694      0.97548706042046
  O   -0.80556483568141      2.16254223802370      0.92521517687245
  O   -0.80296523726612      0.23577025518450      1.97678157221384
  N   -1.56815084648220     -0.65848802547304     -0.52853688242203
  H   -1.62066717860071     -0.96096136639387     -1.49031739734189
  H   -1.55983727919369     -1.45792202045224      0.09165637658160
