13
Coordinates from ORCA-job run
  C   1.09254265254472      0.22474909717535     -0.00663045886625
  C   -0.39263134556644      0.04266629943665     -0.32135457067392
  Br  1.43569756483239     -0.05371695358643      1.89500363539330
  H   -0.54116233030324      0.27526068859746     -1.38039567027287
  H   1.38282754663557      1.25554239609085     -0.21124846551069
  C   1.89470871665007     -0.69496744676157     -0.79715001028095
  N   2.54716678123128     -1.41311589702773     -1.45913403444205
  N   -1.12646811653138      1.19907023368034      0.40023553554270
  O   -2.03368113745538      0.90150483051332      1.16707714162527
  O   -0.74377299643215      2.33137773552798      0.12334969358670
  N   -0.87047913503536     -1.24326706385162     -0.02237935356603
  H   -0.83235116850209     -1.44116376729045      0.96877832321966
  H   -1.81339703206798     -1.38394015250417     -0.35615176575488
