13
Coordinates from ORCA-job run
  C   1.08163748548126      0.24276047633850     -0.12125189707006
  C   -0.41259542411052     -0.03056563889669     -0.29778603187767
  Br  1.54483815418592      0.35433472590976      1.77190516792197
  H   -0.63142519468451     -0.01373146869126     -1.36996167042718
  H   1.32337826938391      1.21855990324295     -0.54325025479830
  C   1.86744270620507     -0.79705764574641     -0.76576030417308
  N   2.50410998017636     -1.61537162646988     -1.31795876478363
  N   -1.14087006548816      1.22929933115853      0.23043057337617
  O   -1.98889499053774      1.06902348656624      1.09941347565336
  O   -0.81441706242722      2.29282442178639     -0.28659663197892
  N   -0.82724817864374     -1.24249412983974      0.27685057314051
  H   -1.78378817953996     -1.46590437514809      0.04121270124793
  H   -0.72116750000070     -1.24067746021035      1.28275306376891
