13
Coordinates from ORCA-job run
  C   1.08919096041777      0.17540294254994     -0.16271811577015
  C   -0.43140233372536      0.05252877395304     -0.26486037519574
  Br  1.68109250194595     -0.07505679589757      1.68061787451340
  H   -0.71524662361991      0.26873876469639     -1.29948069663000
  H   1.39063245412022      1.18713843266397     -0.43503487316803
  C   1.73551757435334     -0.79653910441042     -1.02990592275160
  N   2.26383988887180     -1.55347793113519     -1.75632821275069
  N   -1.01046396632506      1.25597733642365      0.51820718447980
  O   -0.62359197643480      2.36388098848453      0.16003031561922
  O   -1.81516021775208      1.01605687571251      1.40946135617521
  N   -0.91544956862621     -1.20391315263863      0.13265036268902
  H   -0.75008733536972     -1.38051606197128      1.11469217741413
  H   -1.89987135785595     -1.31122106843094     -0.06633107462455
