13
Coordinates from ORCA-job run
  C   1.03986060105415      0.09731605727695     -0.22707435963127
  C   -0.50683083694369      0.10337070919682     -0.23013422226571
  Br  1.73649583480362      0.27598545373537      1.58272924173719
  H   -0.82041779164042      0.08211125320126     -1.27755964617991
  H   1.41612873030904      0.95370753909229     -0.78939888618861
  C   1.50528823157337     -1.14910402124941     -0.81370837772932
  N   1.82852663833031     -2.16445593607467     -1.30918431908518
  N   -0.90475039021218      1.48699498803236      0.26069010156426
  O   -0.55047729119239      2.41410608490562     -0.46367665995518
  O   -1.50186066448664      1.57519634112351      1.32315608188850
  N   -1.19127606529532     -0.89413992087301      0.49742603213862
  H   -0.84573335477298     -1.00538233933864      1.44056421423030
  H   -1.20595364152689     -1.77670620902850      0.00717079947625
