13
Coordinates from ORCA-job run
  C   0.96597884663555      0.09548783659865     -0.44935464098659
  C   -0.54875194717118      0.02953546323470     -0.14103788100197
  Br  1.97365546562294      0.68150871919593      1.11030821462739
  H   -1.05007678542569     -0.22486148674034     -1.07906416197481
  H   1.15325179815966      0.83099055095044     -1.23375640534997
  C   1.41728289067954     -1.22417316355849     -0.86067257513940
  N   1.71974433996965     -2.31005217018307     -1.19286723009217
  N   -0.96512642879349      1.46381647109135      0.14056734283960
  O   -1.34874425570217      1.74454836906176      1.26647632328016
  O   -0.83565262653875      2.23583357153664     -0.80646231076932
  N   -0.99663715105280     -0.82449006372010      0.89096718189620
  H   -0.48131484820162     -0.70606921475108      1.75239943688030
  H   -1.00360929818168     -1.79207488271635      0.60149670579060
