13
Coordinates from ORCA-job run
  C   1.01778900776722     -0.16651330467366     -0.55891561540766
  C   -0.46789042258279      0.11511776885158     -0.36617820101644
  Br  1.91100302229668      1.32230184136363     -1.43814085705712
  H   -0.88159037535851      0.50661453007850     -1.30507717582344
  H   1.09375587266338     -0.99161649311035     -1.27332284304396
  C   1.70493491395863     -0.55729264667092      0.66373147145951
  N   2.29744912559172     -0.92367024018849      1.60909447589501
  N   -0.72502811781334      1.21492602886610      0.63807146512829
  O   0.21561974888931      1.71174512120117      1.24262757304537
  O   -1.91157802673035      1.50703916822696      0.76246171133981
  N   -1.11334770241218     -1.05547459934808      0.17304665187526
  H   -1.04461458088151     -1.82845096602781     -0.47750702204458
  H   -2.09450246538830     -0.85572620856864      0.33110836564994
