13
Coordinates from ORCA-job run
  C   1.01887979082243     -0.12626477994367     -0.61591531257396
  C   -0.49790986244021      0.02131711982426     -0.46049124243361
  Br  1.84432164225846      1.51125304138797     -1.26110827977599
  H   -0.93484925067799      0.28270594252922     -1.42452946404739
  H   1.17719560969615     -0.87909136700259     -1.39024834493975
  C   1.66751629480327     -0.57368419504614      0.60933341096748
  N   2.18806553403982     -0.98274204801883      1.57990508207332
  N   -0.80006767289898      1.22105159948275      0.43235835353550
  O   -1.31639198576842      2.20173692713638     -0.09450124694977
  O   -0.51915486214715      1.08907361484784      1.62120079834541
  N   -1.03160216124510     -1.19651375607925      0.03687030124720
  H   -0.75435664630562     -1.35031616023850      0.99993592216079
  H   -2.04064643013667     -1.21852593887943     -0.03280997760927
