13
Coordinates from ORCA-job run
  C   1.01907316644835     -0.17620192703143     -0.60190000302549
  C   -0.49262171106642      0.03120486509686     -0.46601419892671
  Br  1.91135796553561      1.41786198010828     -1.26717273669841
  H   -0.90900277396700      0.29030990432961     -1.43972482335536
  H   1.15716036285983     -0.94841885307126     -1.36093898160866
  C   1.63877341405259     -0.62501067200399      0.63773649969980
  N   2.13531071208869     -1.03459166190052      1.62059591877097
  N   -0.75783802264309      1.25823090075049      0.40060176579903
  O   -0.48832527540719      1.14070370897974      1.59357281756230
  O   -1.23447715580912      2.24633033305941     -0.14948893046122
  N   -1.07729210464083     -1.15578717953311      0.04817995689896
  H   -2.08568108787137     -1.14122322360784     -0.03208053833443
  H   -0.81543748958000     -1.30240817517618      1.01663325367928
