16

C	-0.400002	0.03023	-1.481851
C	0.0	0.0	0.0
Br	0.175206	-1.6723	-2.317407
H	1.091976	0.0	0.0
C	-1.849067	0.108486	-1.686769
N	-3.018893	0.12284	-1.806599
C	0.285113	1.077451	-2.24343
N	0.806466	1.890242	-2.912855
C	-0.522222	-1.178538	0.792635
H	-0.022356	-2.086085	0.461464
H	-1.608777	-1.303344	0.714678
H	-0.256408	-1.015994	1.835799
N	-0.452887	1.263152	0.617864
O	-0.856304	2.171959	-0.120369
O	-0.362297	1.364795	1.840336
F	2.481158	0.0	0.0
