16

C	-0.326233	0.028178	-1.474032
C	0.0	0.0	0.0
Br	-2.300714	0.106916	-1.851439
H	1.093244	0.0	0.0
C	0.286982	1.131412	-2.218639
N	0.752248	1.964886	-2.905338
C	0.122285	-1.221706	-2.09349
N	0.427112	-2.237402	-2.598072
C	-0.467987	-1.229558	0.738803
H	-0.061178	-1.191724	1.747571
H	-1.559807	-1.304641	0.791278
H	-0.063355	-2.11754	0.252182
N	-0.440907	1.231127	0.665363
O	-0.531004	1.209595	1.894951
O	-0.636798	2.237174	-0.020966
F	2.44979	0.0	0.0
