16

C	-0.308917	-0.006957	-1.480061
C	0.0	0.0	0.0
Br	-2.278579	0.132906	-1.882246
H	1.094315	0.0	0.0
C	0.351291	1.04902	-2.253325
N	0.842615	1.824342	-2.987924
C	0.100747	-1.292522	-2.051956
N	0.403906	-2.322093	-2.531436
C	-0.476016	-1.211902	0.763728
H	-0.046452	-2.108878	0.315981
H	-0.101728	-1.140595	1.783246
H	-1.567318	-1.297637	0.790087
N	-0.449722	1.250625	0.620819
O	-0.55542	2.253682	-0.090743
O	-0.643895	1.248711	1.838443
F	2.450039	0.0	0.0
