16

C	-0.427093	0.008696	-1.474256
C	0.0	0.0	0.0
Br	0.219651	-1.662298	-2.317334
H	1.091984	0.0	0.0
C	-1.881297	0.013077	-1.653163
N	-3.051149	-0.041591	-1.761203
C	0.187842	1.089839	-2.247339
N	0.642181	1.940262	-2.919247
C	-0.495193	-1.181107	0.80905
H	-0.016874	-2.090007	0.449354
H	-1.585966	-1.297317	0.78173
H	-0.177584	-1.023611	1.838322
N	-0.470453	1.255642	0.621507
O	-0.327305	1.374615	1.836402
O	-0.950736	2.135518	-0.104587
F	2.484367	0.0	0.0
