16

C	-0.476418	-0.037022	-1.455407
C	0.0	0.0	0.0
Br	0.352607	-1.622245	-2.301734
H	1.092008	0.0	0.0
C	-1.924272	-0.205821	-1.598315
N	-3.078394	-0.410885	-1.693497
C	-0.016589	1.120421	-2.225116
N	0.318671	2.05498	-2.853322
C	-0.451969	-1.177445	0.84581
H	-1.542046	-1.249114	0.936595
H	-0.057754	-2.09978	0.420913
H	-0.009658	-1.049905	1.833234
N	-0.497677	1.239551	0.62406
O	-1.258633	1.974865	-0.022224
O	-0.126399	1.466384	1.772968
F	2.486749	0.0	0.0
