16

C	-0.412529	0.012546	-1.478574
C	0.0	0.0	0.0
Br	0.212385	-1.672028	-2.313488
H	1.092795	0.0	0.0
C	-1.864828	0.041674	-1.66845
N	-3.035903	-0.000288	-1.770682
C	0.23266	1.078316	-2.246843
N	0.750381	1.913087	-2.891599
C	-0.511175	-1.175854	0.804601
H	-0.211766	-1.018044	1.839369
H	-1.600794	-1.289732	0.758425
H	-0.031715	-2.089272	0.456265
N	-0.464791	1.260289	0.614168
O	-0.920406	2.147411	-0.120001
O	-0.339279	1.379457	1.831791
F	2.481325	0.0	0.0
