13

C	-0.344359	0.052768	0.134396
C	-0.467225	0.29442	-1.354915
F	0.68611	-0.799436	0.419907
H	-1.201429	1.102135	-1.461785
H	-1.322053	-0.350015	0.481001
H	0.503529	0.638227	-1.74123
N	-0.039515	1.35304	0.827032
O	0.987842	1.451407	1.494991
O	-0.869439	2.250879	0.685113
N	-0.871639	-0.964776	-1.974502
H	-1.712119	-1.229158	-1.416492
H	-1.182552	-0.754779	-2.917108
F	-2.758153	-1.071228	-0.102397
