13

C	-0.345003	0.064557	0.131722
C	-0.466401	0.168262	-1.373721
F	0.676564	-0.768285	0.495548
H	0.507721	0.464499	-1.78979
H	-1.3267	-0.293505	0.513894
H	-1.192332	0.970107	-1.555026
N	-0.025035	1.420695	0.699736
O	1.005376	1.570081	1.353351
O	-0.845921	2.310085	0.476035
N	-0.884284	-1.138722	-1.874084
H	-1.194117	-1.013239	-2.832004
H	-1.727294	-1.341005	-1.294298
F	-2.771044	-1.050018	-0.001197
