13

C	-0.275703	0.110462	0.085061
C	-0.218954	0.092847	-1.444303
F	0.658204	-0.758198	0.604145
H	-0.134348	-0.970731	-1.682305
H	-1.316285	-0.173463	0.36655
H	0.69651	0.592738	-1.788998
N	0.072902	1.470581	0.600711
O	-0.662624	2.38887	0.23305
O	1.052417	1.614635	1.329878
N	-1.401268	0.615577	-2.102938
H	-1.486247	1.591376	-1.841502
H	-2.16708	0.120933	-1.602279
F	-2.762564	-0.765639	-0.264009
