13

C	-0.348832	0.074948	0.128441
C	-0.471976	0.108028	-1.380045
F	0.671676	-0.74185	0.529526
H	-1.195361	0.902918	-1.598459
H	-1.330404	-0.263183	0.528812
H	0.502618	0.381328	-1.810515
N	-0.025999	1.455546	0.632345
O	-0.845232	2.335147	0.367705
O	1.004635	1.633049	1.278523
N	-0.894683	-1.2198	-1.817485
H	-1.207072	-1.138687	-2.77935
H	-1.736571	-1.392483	-1.226451
F	-2.776238	-1.042106	0.054188
