16

C	-0.437762	0.066897	-1.455448
C	0.0	0.0	0.0
F	-1.832056	0.256901	-1.536458
H	1.095227	0.0	0.0
C	0.258609	1.210762	-2.157401
H	-0.035829	2.133631	-1.659076
H	-0.025203	1.239058	-3.211542
H	1.339216	1.075031	-2.045514
C	-0.160118	-1.211028	-2.138758
N	0.057906	-2.227755	-2.684431
C	-0.516174	-1.187906	0.672399
N	-0.944059	-2.110698	1.264028
N	-0.347476	1.242093	0.684854
H	0.428754	1.465367	1.301035
H	-1.1927	1.143017	1.230398
H	2.669943	0.0	0.0
