16

C	-0.539799	0.014306	-1.429389
C	0.0	0.0	0.0
F	-0.174155	-1.172385	-2.060185
H	1.100174	0.0	0.0
C	-2.05299	0.127266	-1.501719
H	-2.377551	0.127706	-2.545061
H	-2.496751	-0.728892	-0.988262
H	-2.371181	1.052657	-1.021641
C	0.066814	1.1332	-2.18173
N	0.477561	2.005551	-2.851549
C	-0.493213	-1.17536	0.701555
N	-0.90593	-2.101878	1.300202
N	-0.345286	1.262933	0.659104
H	-1.03348	1.13071	1.391202
H	0.517811	1.604417	1.078467
H	2.642361	0.0	0.0
