16

C	-0.420644	0.007188	-1.472424
C	0.0	0.0	0.0
F	0.081972	1.159584	-2.053603
H	1.095344	0.0	0.0
C	0.161319	-1.184302	-2.207544
H	-0.022381	-1.081558	-3.279397
H	1.236248	-1.18522	-2.005988
H	-0.277684	-2.118114	-1.853922
C	-1.892411	0.082169	-1.599319
N	-3.063386	0.127275	-1.682068
C	-0.461802	-1.231337	0.637052
N	-0.854017	-2.201297	1.176783
N	-0.43095	1.206606	0.687988
H	-1.263339	1.050535	1.239234
H	0.326425	1.492947	1.297749
H	2.71356	0.0	0.0
