16

C	-0.437618	0.041281	-1.456563
C	0.0	0.0	0.0
F	-1.831442	0.227499	-1.542241
H	1.095248	0.0	0.0
C	0.257417	1.1732	-2.178521
H	1.338457	1.039059	-2.0672
H	-0.035505	2.103912	-1.694202
H	-0.030024	1.184594	-3.232534
C	-0.156906	-1.24751	-2.117971
N	0.054994	-2.270772	-2.65387
C	-0.513644	-1.177257	0.693131
N	-0.933115	-2.090293	1.305791
N	-0.348677	1.253	0.664258
H	0.429711	1.489988	1.272709
H	-1.190633	1.160502	1.215961
H	2.669676	0.0	0.0
