16

C	-0.536112	0.011648	-1.431135
C	0.0	0.0	0.0
F	-0.171773	-1.178517	-2.056763
H	1.100215	0.0	0.0
C	-2.048724	0.129604	-1.509585
H	-2.370583	0.130413	-2.553517
H	-2.367804	1.055675	-1.031054
H	-2.495932	-0.725979	-0.998453
C	0.074711	1.12695	-2.18454
N	0.482664	2.004018	-2.85103
C	-0.494308	-1.174615	0.70032
N	-0.908617	-2.098873	1.299509
N	-0.350724	1.262409	0.655814
H	-1.037622	1.12868	1.385456
H	0.508846	1.608894	1.077775
H	2.643738	0.0	0.0
