18

C	0.0	0.0	0.0
C	-0.554333	0.106285	-1.436949
F	1.36176	0.0	0.0
H	0.315573	0.081198	-2.103211
C	-0.492462	1.04115	0.96436
H	-1.576257	0.905579	1.031809
H	-0.000426	0.880415	1.926074
H	-0.244284	2.026005	0.570992
N	-0.228527	-1.399138	0.666167
O	0.574177	-2.267242	0.335165
O	-1.088654	-1.51849	1.52222
N	-1.305564	1.298445	-1.584118
H	-1.569973	1.37944	-2.557896
H	-2.157061	1.065533	-1.004964
N	-1.38157	-1.107947	-1.976513
O	-1.42351	-2.188681	-1.416612
O	-1.901902	-0.865108	-3.06582
F	-2.863738	0.0	0.0
