18

C	0.0	0.0	0.0
C	-0.613989	0.041589	-1.383848
F	1.362621	0.0	0.0
H	-1.71747	-0.063529	-1.142359
C	-0.52276	1.033376	0.959356
H	-0.147878	0.792413	1.954834
H	-1.619149	0.965938	0.887616
H	-0.158551	2.019574	0.666885
N	-0.342241	-1.387028	0.597275
O	0.234004	-1.629296	1.660195
O	-1.103873	-2.144962	0.020499
N	-0.021675	-0.922407	-2.253231
H	0.801747	-0.531126	-2.691063
H	-0.68712	-1.193985	-2.960978
N	-0.406681	1.458733	-1.919454
O	0.547948	1.646053	-2.683573
O	-1.19186	2.3363	-1.573699
F	-2.903163	0.0	0.0
