18

C	0.0	0.0	0.0
C	-0.553081	-0.024776	-1.439986
F	1.376608	0.0	0.0
H	0.315652	-0.132504	-2.099419
C	-0.480097	1.129772	0.864795
H	0.022845	1.064034	1.832112
H	-1.562465	1.0034	0.956291
H	-0.237526	2.070336	0.373262
N	-0.220636	-1.328823	0.794389
O	0.578238	-2.225357	0.542699
O	-1.07346	-1.362939	1.666405
N	-1.278672	1.1654	-1.701227
H	-2.131601	1.000101	-1.106414
H	-1.546129	1.159103	-2.676981
N	-1.406185	-1.265948	-1.85457
O	-1.974242	-1.105949	-2.934708
O	-1.408127	-2.304991	-1.218832
F	-2.831635	0.0	0.0
