18

C	0.0	0.0	0.0
C	-0.554654	0.111709	-1.425868
F	1.360862	0.0	0.0
H	-1.648904	-0.015321	-1.278203
C	-0.505008	1.067993	0.929336
H	-0.14602	0.860367	1.936823
H	-1.601808	1.016649	0.850289
H	-0.105285	2.029509	0.600012
N	-0.38345	-1.374255	0.564204
O	-0.200463	-1.527356	1.768116
O	-0.744767	-2.263323	-0.200539
N	0.057904	-0.71379	-2.433452
H	1.058872	-0.749971	-2.278315
H	-0.320904	-1.643436	-2.324011
N	-0.308714	1.534121	-1.854516
O	-1.25676	2.313127	-1.894923
O	0.85404	1.828952	-2.144907
F	-2.805691	0.0	0.0
