18

C	0.0	0.0	0.0
C	-0.5538	0.090658	-1.427602
F	1.360919	0.0	0.0
H	-1.647458	-0.038934	-1.280577
C	-0.50517	1.081343	0.913585
H	-1.602	1.028549	0.835237
H	-0.146068	0.888947	1.924134
H	-0.105208	2.037784	0.569875
N	-0.383852	-1.366406	0.582382
O	-0.748436	-2.26336	-0.17052
O	-0.199575	-1.504712	1.787695
N	0.064753	-0.745033	-2.423333
H	-0.306619	-1.675581	-2.300525
H	1.065521	-0.770994	-2.266469
N	-0.315039	1.507319	-1.877001
O	0.848994	1.808538	-2.154564
O	-1.270199	2.275352	-1.948076
F	-2.804071	0.0	0.0
