18

C	0.0	0.0	0.0
C	-0.552075	0.036892	-1.428983
F	1.371672	0.0	0.0
H	-1.645512	-0.09015	-1.275328
C	-0.498512	1.116955	0.872708
H	-0.138912	0.961123	1.889224
H	-0.095432	2.057877	0.492391
H	-1.595339	1.065677	0.798751
N	-0.380315	-1.34251	0.633982
O	-0.735602	-2.270188	-0.085744
O	-0.205252	-1.432087	1.845308
N	0.069247	-0.832964	-2.392862
H	1.068791	-0.86127	-2.227361
H	-0.309342	-1.757408	-2.244515
N	-0.319852	1.437697	-1.929779
O	0.84281	1.736281	-2.216523
O	-1.27952	2.196444	-2.031107
F	-2.798692	0.0	0.0
