18

C	0.0	0.0	0.0
C	-0.389215	-0.069737	-1.52106
F	1.359028	0.0	0.0
H	0.412938	0.521439	-1.978026
C	-0.597529	1.198079	0.670768
H	-1.687692	1.040093	0.64779
H	-0.321451	2.096001	0.111546
H	-0.214079	1.267413	1.689304
N	-0.407176	-1.230618	0.795392
O	-0.021606	-1.246163	1.962997
O	-1.065195	-2.102913	0.247405
N	-1.64947	0.337223	-1.959448
H	-2.402589	0.146927	-1.210277
H	-1.631558	1.316948	-2.200183
N	-0.061612	-1.493638	-2.065059
O	-0.896163	-2.068231	-2.742831
O	1.060955	-1.928948	-1.806933
F	-3.14624	0.0	0.0
