14

C	0.0	0.0	0.0
C	-0.414607	0.242016	-1.481787
Br	1.952645	0.0	0.0
H	0.457899	0.027909	-2.112252
H	-0.338787	0.806344	0.639466
C	-0.420731	-1.283432	0.548904
N	-0.534871	-2.351905	1.026427
C	-0.812402	1.706894	-1.6566
H	-1.054952	1.919572	-2.69986
H	0.017689	2.35514	-1.355348
H	-1.687174	1.853148	-1.027119
C	-1.472522	-0.64134	-1.98663
N	-2.111225	-1.327935	-2.69856
F	-2.345032	0.0	0.0
