14

C	0.0	0.0	0.0
C	-0.420573	0.503411	-1.416147
Br	1.952286	0.0	0.0
H	0.467059	0.472595	-2.059742
H	-0.339903	0.681162	0.770632
C	-0.424578	-1.357509	0.323197
N	-0.553508	-2.491078	0.609344
C	-0.915804	1.946479	-1.317239
H	-1.139761	2.346638	-2.30988
H	-0.146674	2.573494	-0.854387
H	-1.816079	1.899876	-0.707927
C	-1.41492	-0.337575	-2.089918
N	-2.015304	-0.938754	-2.904572
F	-2.355333	0.0	0.0
