14

C	0.0	0.0	0.0
C	-0.419929	0.144418	-1.493867
Br	1.952702	0.0	0.0
H	0.452773	-0.102361	-2.112659
H	-0.335324	0.847876	0.585809
C	-0.419327	-1.243206	0.635178
N	-0.554858	-2.279599	1.174378
C	-0.83076	1.592428	-1.760518
H	-1.716711	1.761451	-1.151138
H	-1.065346	1.737313	-2.818986
H	-0.017934	2.272333	-1.485831
C	-1.47887	-0.767513	-1.942733
N	-2.127229	-1.472553	-2.628419
F	-2.348007	0.0	0.0
