19

C	0.0	0.0	0.0
C	-0.225622	-0.024779	-1.539849
Cl	1.877109	0.0	0.0
H	0.34382	0.845302	-1.913744
N	-0.425406	1.247141	0.516842
H	-0.63101	1.219343	1.50307
H	0.198873	2.006407	0.280179
C	-0.669251	-1.131311	0.717076
H	-0.378505	-1.14997	1.773001
H	-0.420071	-2.080401	0.245249
H	-1.756118	-0.897162	0.608469
C	-1.66693	0.151743	-1.978376
H	-1.654311	0.339869	-3.06318
H	-2.280394	-0.710622	-1.736159
H	-2.168038	0.943983	-1.431681
N	0.290388	-1.279037	-2.098296
H	1.299911	-1.236547	-2.178866
H	-0.095934	-1.387299	-3.029177
F	-3.397123	0.0	0.0
