19

C	0.0	0.0	0.0
C	-0.536392	0.096443	-1.425463
Cl	1.885442	0.0	0.0
H	-1.628856	0.16312	-1.204032
N	-0.402374	1.164897	0.696448
H	0.09898	1.27799	1.566272
H	-0.293499	1.968799	0.092655
C	-0.503831	-1.226878	0.720996
H	-1.602622	-1.128472	0.608651
H	-0.222502	-1.175206	1.777273
H	-0.109391	-2.153861	0.298809
C	-0.233811	-1.134723	-2.269052
H	-0.603915	-0.979237	-3.287341
H	-0.736306	-2.017457	-1.8697
H	0.842802	-1.333119	-2.321067
N	-0.072611	1.354324	-2.023373
H	-0.661	1.571876	-2.819584
H	0.880971	1.234572	-2.356501
F	-3.090102	0.0	0.0
