19

C	0.0	0.0	0.0
C	-0.45798	0.193443	-1.456673
Cl	1.834908	0.0	0.0
H	-1.549424	0.221048	-1.305018
N	-0.513779	1.03769	0.848163
H	-0.374042	1.904994	0.334208
H	-1.535381	0.831555	0.779794
C	-0.448502	-1.33569	0.562152
H	-0.162532	-1.37677	1.61492
H	-1.541048	-1.320197	0.463975
H	0.002894	-2.178439	0.037138
C	-0.089986	-0.934168	-2.415824
H	-0.456881	-0.69089	-3.418876
H	0.995006	-1.071352	-2.474154
H	-0.546771	-1.8802	-2.119679
N	-0.015756	1.512349	-1.928185
H	0.947377	1.447438	-2.242398
H	-0.582567	1.774455	-2.725683
F	-2.927976	0.0	0.0
