19

C	0.0	0.0	0.0
C	-0.398745	-0.244605	-1.504781
Cl	1.800291	0.0	0.0
H	0.500691	-0.620845	-2.0019
N	-0.548913	1.239783	0.48441
H	-1.569483	1.048908	0.395475
H	-0.349477	1.287168	1.480637
C	-0.391624	-1.183869	0.884863
H	0.022682	-1.025384	1.887665
H	-1.481801	-1.184015	0.921588
H	-0.027017	-2.131122	0.487186
C	-0.803249	1.060073	-2.196498
H	-1.768886	1.378143	-1.802529
H	-0.07046	1.85718	-2.050615
H	-0.90972	0.868257	-3.271641
N	-1.410366	-1.295806	-1.622436
H	-2.234465	-0.933186	-1.105661
H	-1.651405	-1.358825	-2.607661
F	-2.999744	0.0	0.0
