19

C	0.0	0.0	0.0
C	-0.368544	-0.060303	-1.539779
Cl	1.810534	0.0	0.0
H	0.524336	-0.401839	-2.072391
N	-0.549855	1.091225	0.751576
H	-1.569372	0.897163	0.679522
H	-0.367537	1.963237	0.267923
C	-0.403157	-1.282507	0.717493
H	-0.033931	-2.16071	0.189455
H	0.00538	-1.248045	1.730188
H	-1.493202	-1.295615	0.747227
C	-0.726615	1.330989	-2.068115
H	-0.868521	1.276741	-3.153366
H	0.054396	2.076597	-1.876973
H	-1.669612	1.639649	-1.613264
N	-1.418222	-1.046084	-1.791883
H	-2.22846	-0.743937	-1.213816
H	-1.673702	-0.965656	-2.772021
F	-3.009496	0.0	0.0
