19

C	0.0	0.0	0.0
C	-0.327009	0.140662	-1.543257
Cl	1.806492	0.0	0.0
H	0.544264	-0.242611	-2.084782
N	-0.565231	0.988043	0.871228
H	-0.371552	1.914508	0.507602
H	-1.584673	0.807712	0.765309
C	-0.424118	-1.365324	0.52318
H	-0.052381	-2.162677	-0.120134
H	-0.034388	-1.483791	1.53686
H	-1.515121	-1.369242	0.531262
C	-0.49689	1.614789	-1.922322
H	-0.576985	1.700169	-3.011673
H	-1.424822	1.989861	-1.485642
H	0.349172	2.236419	-1.603765
N	-1.461907	-0.689404	-1.934482
H	-2.251454	-0.44896	-1.297168
H	-1.716055	-0.425555	-2.881938
F	-3.046916	0.0	0.0
