19

C	0.0	0.0	0.0
C	-0.443685	0.010406	-1.472614
Cl	1.827394	0.0	0.0
H	-1.536531	0.052665	-1.338241
N	-0.502036	1.140426	0.711884
H	-1.524937	0.942542	0.673539
H	-0.343912	1.937801	0.101073
C	-0.435019	-1.255485	0.735557
H	-1.526367	-1.276837	0.640124
H	-0.148187	-1.143135	1.783626
H	0.038489	-2.152978	0.334925
C	-0.045769	-1.22256	-2.277762
H	-0.459156	-2.139138	-1.851997
H	1.043882	-1.322517	-2.329007
H	-0.426755	-1.130497	-3.301075
N	0.009726	1.262607	-2.093706
H	0.980247	1.158755	-2.374288
H	-0.536848	1.427584	-2.93035
F	-2.912922	0.0	0.0
