12

C	-0.375475	-0.059041	-1.367447
C	-0.100792	-0.084821	0.125267
Br	0.37428	-1.586628	-2.266927
H	0.990239	-0.024632	0.160257
H	-1.442471	-0.075507	-1.605191
H	-0.475984	0.850659	0.546483
N	0.100975	1.250452	-1.970822
O	0.640115	1.257481	-3.06114
O	-0.297693	2.23862	-1.360374
C	-0.741886	-1.2131	0.775066
N	-1.248689	-2.11867	1.328049
F	2.111514	0.708005	-0.702771
