12

C	-0.522208	-0.022072	-1.395712
C	0.050045	0.099496	-0.005314
Br	0.444284	-1.318669	-2.461557
H	1.140473	0.138341	-0.004525
H	-1.572025	-0.305737	-1.443817
H	-0.117965	-0.852033	0.507355
N	-0.471161	1.297248	-2.129551
O	-1.462115	1.577038	-2.806206
O	0.532813	1.985776	-2.008916
C	-0.63916	1.156351	0.714098
N	-1.198868	2.014691	1.291949
F	2.465991	-0.533512	0.075461
