12

C	-0.536052	-0.069045	-1.373879
C	0.069956	0.111284	-0.004276
Br	0.347227	-1.474086	-2.372515
H	1.161264	0.09928	-0.024274
H	-1.598679	-0.304584	-1.385538
H	-0.130913	-0.797977	0.569679
N	-0.438637	1.198091	-2.190462
O	-1.431302	1.485047	-2.861604
O	0.60035	1.841382	-2.135059
C	-0.554862	1.242362	0.659111
N	-1.053203	2.167173	1.188599
F	2.455934	-0.624653	0.074522
