12

C	-0.074899	0.217891	-1.398886
C	-0.058229	-0.030974	0.090472
Br	-1.907032	0.447661	-2.106946
H	1.029805	-0.073286	0.230708
H	0.520261	1.074532	-1.682404
H	-0.545876	-0.977567	0.326154
N	0.502177	-0.947907	-2.147262
O	0.408552	-2.056878	-1.63247
O	0.934062	-0.713667	-3.266535
C	-0.666516	1.055639	0.837829
N	-1.136468	1.923826	1.474927
F	2.310035	0.145507	-0.836296
