15
Coordinates from ORCA-job run
  C   0.70982017877386     -0.10205653270900      0.37678626628147
  C   -0.56014762019988      0.14546411747572     -0.06297582865864
  N   1.73902790883938     -0.45898591466082     -0.63134553065264
  O   2.54434884668217     -1.32690356994095     -0.29391789725516
  O   1.74492209272003      0.15000687763529     -1.69650005615285
  N   1.26037458397395     -0.03390424706288      1.61006714059305
  H   0.60632735477096      0.01959011332323      2.37529461118828
  H   2.10264704795976     -0.57430008240881      1.73459741700659
  N   -1.54702938514961      0.56418182507688      0.91483666762508
  O   -2.65359924365251      0.89732917610780      0.48907318171230
  O   -1.24421856376871      0.57655967107843      2.11782397001229
  C   -1.06871016382014      0.05112575845151     -1.46691918781384
  H   -2.07543946676171     -0.36487062581774     -1.44906523612694
  H   -0.43559930263245     -0.57995142919653     -2.08510965073201
  H   -1.12472426773510      1.03771486264787     -1.93264586702697
