15
Coordinates from ORCA-job run
  C   0.67587245399471     -0.30069011355972      0.24436294583192
  C   -0.51715251517425      0.18860032191112     -0.15205510410292
  N   0.80826974503880     -1.64264425359525      0.85218084250363
  O   0.33302475493529     -2.59294938742265      0.24539163736775
  O   1.45459514444891     -1.68520289875072      1.89757585570000
  N   1.91834532137033      0.25343114329319      0.05677528948291
  H   2.57719429699824     -0.00204130316998      0.77923818500078
  H   1.92795192111811      1.23807821298202     -0.15729738863123
  N   -1.72884813504063     -0.58498148879599      0.08503850593169
  O   -2.58749274447237     -0.51838704243826     -0.79561856966386
  O   -1.83456350820965     -1.20394414913376      1.14266747171209
  C   -0.71333175922636      1.46370000547230     -0.90405495823051
  H   -0.79578516706755      1.27567850079749     -1.97714330226539
  H   -1.63280498045929      1.95434860343389     -0.58168601244940
  H   0.11272517174572      2.15800384897632     -0.73637539818744
