15
Coordinates from ORCA-job run
  C   0.67283565948329     -0.32625939524720      0.18237845451694
  C   -0.47073776256652      0.29244772546306     -0.18078946266911
  N   1.94321683791464      0.41678227290000      0.34694569556462
  O   2.71556488526849     -0.01971128570273      1.20087866699162
  O   2.15179099919190      1.36344085083116     -0.40150551699337
  N   0.83755709611609     -1.68232302593104      0.31828408381473
  H   0.05297703145421     -2.16971359716592      0.72213803967769
  H   1.71620410629272     -1.93056779097665      0.74963308641648
  N   -0.56353312060005      1.74960328326266     -0.14373318336797
  O   -1.16478213156166      2.28453512508392     -1.07449200053960
  O   -0.08438677907058      2.33208024688919      0.82799613472376
  C   -1.71285812864325     -0.44162201239065     -0.55767295753340
  H   -2.23740959654954      0.11957686029198     -1.33123658808107
  H   -2.39045728991493     -0.56108116927271      0.29454100838064
  H   -1.46598180681482     -1.42818808803508     -0.95536546090195
