15
Coordinates from ORCA-job run
  C   0.70423064341155     -0.28000610502145      0.13266263570614
  C   -0.51780569268648      0.26379332966944     -0.04978260590536
  N   1.89499139704630      0.55431551467274      0.41297912434078
  O   1.73915153157842      1.56142425181406      1.09213143154793
  O   2.96480271662190      0.12973649488246     -0.02448059200654
  N   0.97754507989667     -1.62315471227736      0.20653215857921
  H   1.96633481235581     -1.82633802711087      0.18111627712425
  H   0.44386675206806     -2.20330339734928     -0.42182897670408
  N   -0.65903411019551      1.70200289173205     -0.26134456783199
  O   -1.61179545870994      2.24632390371024      0.29561402406799
  O   0.14384242675030      2.25600644128477     -1.01049360749026
  C   -1.76820556864828     -0.54483999382791     -0.12910815078788
  H   -2.58796010820865      0.02117755002581      0.31361930939860
  H   -2.03666403027119     -0.77950069334803     -1.16476413641970
  H   -1.65430039100895     -1.47763744885668      0.42714767638092
