15
Coordinates from ORCA-job run
  C   0.62436533495574     -0.42505083587945      0.13017202807318
  C   -0.52764731546854      0.23423394883107     -0.12400102110315
  N   0.66265880961657     -1.79704277086252      0.67153186661988
  O   0.19644381566881     -1.95108966255271      1.79565934649507
  O   1.22538442936269     -2.63975972149272     -0.01932933636620
  N   1.88365188772364      0.05047603466103     -0.10019306736359
  H   1.96835687012401      1.02700904194018     -0.33076032235453
  H   2.62456180146409     -0.31302180597830      0.47870461283072
  N   -1.79520880919934     -0.47641076157598     -0.02864807353103
  O   -1.78835217609439     -1.69779438267645     -0.18218436701073
  O   -2.79978070840382      0.20162617124758      0.18990707519487
  C   -0.55689467500511      1.66778837541503     -0.54359428894064
  H   -0.27098966918859      1.78519114329382     -1.59391433688703
  H   0.11604348705937      2.27352236635828      0.07074535592687
  H   -1.56359308261512      2.06032285927114     -0.41509547158368
