15
Coordinates from ORCA-job run
  C   0.69627431951439     -0.26427456140599      0.19546056794059
  C   -0.55134161667614      0.16819408582686     -0.08482793142882
  N   0.94077198034817     -1.57919730419359      0.83063674588941
  O   1.98741554893988     -2.14458432528495      0.51264494199071
  O   0.12339162496456     -1.97771834141246      1.65094970501271
  N   1.84685442464081      0.47146630624656      0.05466011581278
  H   1.87605013256077      1.06583862340924     -0.75911974214732
  H   2.68368938360128     -0.08349890266501      0.16204113949205
  N   -1.68005413140526     -0.75777969668413     -0.03787742374925
  O   -1.52648098270276     -1.87816160309862     -0.52150887794631
  O   -2.72536546823263     -0.32282575694604      0.44395945628856
  C   -0.85384824609973      1.55823808468971     -0.53202210516406
  H   -0.09679543640046      2.25165672379879     -0.16004582855203
  H   -1.82213290994139      1.85866009351347     -0.13118507179222
  H   -0.89942862311148      1.63398657420615     -1.62376569164681
