15
Coordinates from ORCA-job run
  C   0.67931028584936     -0.17599607607558      0.32703339879572
  C   -0.49267924831809      0.21494589964560     -0.22088606054655
  N   1.87028521377561      0.69952325334613      0.35207009104930
  O   2.40768378886081      0.86089576977438      1.44333319682986
  O   2.25577141241499      1.12790802454977     -0.73075649709857
  N   0.92932654976417     -1.37127802097182      0.93522819879745
  H   1.87269645953053     -1.72371173983675      0.89519326237682
  H   0.20885491880965     -2.07245192098475      0.88859364333778
  N   -0.67632565920876      1.61480800125991     -0.58457891237292
  O   -1.46141157405721      1.85176915352531     -1.50327995828874
  O   -0.05916359796115      2.46601041091037      0.05546369809522
  C   -1.65656368259391     -0.69931681874741     -0.41754897121389
  H   -2.26493547812641     -0.33048620714106     -1.24189305634904
  H   -1.32521100685122     -1.70925764955653     -0.67311385053754
  H   -2.28663838188837     -0.75336207969757      0.47614181712510
