15
Coordinates from ORCA-job run
  C   0.69777972948018     -0.16965424726196      0.37477014710181
  C   -0.54048003827903      0.20709016178264     -0.07543093696647
  N   1.65200136683845     -0.75761830017350     -0.60031104075936
  O   2.84478022427274     -0.52848230876188     -0.40336395689364
  O   1.19637501759994     -1.46587595317758     -1.49426845774833
  N   1.26276276451922     -0.04148927189908      1.58865029861952
  H   0.66828776156264      0.24968841274792      2.34777133322934
  H   2.14479337463867     -0.49264405151854      1.75998956191159
  N   -1.51755112301142      0.61988626736254      0.91021049949675
  O   -2.67685699956799      0.77332400149528      0.52223078568309
  O   -1.16387359907178      0.79302392035693      2.08832550922282
  C   -1.03770259600090      0.19967461700933     -1.48677020227590
  H   -1.61733583044749     -0.70070846336110     -1.70185584027821
  H   -1.69308746434136      1.05847048648970     -1.62926386710890
  H   -0.21989258819186      0.25531472890930     -2.20068383323411
