15
Coordinates from ORCA-job run
  C   0.70052023406361     -0.10363805447208      0.39523797633121
  C   -0.55700408590450      0.14709811817565     -0.07745298506428
  N   1.75776460600725     -0.45066603704866     -0.58647530918400
  O   1.79396490913046      0.16863035124685     -1.64501737599134
  O   2.55178832825790     -1.32351438542827     -0.23524763480253
  N   1.21578027015703     -0.04564244282003      1.64442270868113
  H   0.53869548195436     -0.00258197542797      2.39013787503412
  H   2.05344107802020     -0.58857569839928      1.78794262911480
  N   -1.57120689901589      0.55658289440276      0.87609380905805
  O   -2.66266351465886      0.90101192231714      0.42115916416900
  O   -1.30579642262603      0.55102320945138      2.08787769078197
  C   -1.02824859892211      0.06116695219826     -1.49487067527849
  H   -1.07896566575897      1.05111674183075     -1.95402404707137
  H   -0.37468010681225     -0.56071678133295     -2.10088455482769
  H   -2.03238961389219     -0.36129481469355     -1.50689927095058
