15
Coordinates from ORCA-job run
  C   0.64256946028971     -0.35428058709515      0.23115570534565
  C   -0.44191537821912      0.31961174103019     -0.20705018403495
  N   1.87130234424166      0.34581660943545      0.67051563094598
  O   2.17894237348050      1.37848759695878      0.08856754687771
  O   2.51614255739541     -0.20727262889049      1.56182822307027
  N   0.79660276982170     -1.71822992178253      0.20878167381390
  H   -0.03439813963900     -2.24506319057253      0.42839117828317
  H   1.60532780710188     -2.03153718691010      0.72601068507331
  N   -0.55003799717686      1.76003881314226      0.00837273643966
  O   -0.21473441405081      2.20519766896450      1.10490635946681
  O   -1.01998657243052      2.41896756116651     -0.91850961563290
  C   -1.61314688558533     -0.34594225091394     -0.84670046177525
  H   -1.30408768011173     -1.27095981528993     -1.33789561119672
  H   -2.39828301962965     -0.57569089885566     -0.11825865493746
  H   -2.03429722548784      0.31985648961264     -1.60011521173916
