15
Coordinates from ORCA-job run
  C   0.67614716152041     -0.27978952922082      0.24394482832521
  C   -0.53826390753233      0.17128915309540     -0.13400155569877
  N   0.85088042204912     -1.57578609683878      0.93504846471078
  O   -0.06120755503089     -1.96728370969786      1.65216265523024
  O   1.95822161085397     -2.10347062930260      0.82383557733239
  N   1.84671222982363      0.42666646796396      0.12324465055031
  H   1.94580103312721      0.95021191174434     -0.73169053891738
  H   2.66280888273293     -0.11975733627922      0.35488791760212
  N   -1.70898601310206     -0.70342850893337     -0.08149361181181
  O   -2.70494882192175     -0.24281910741657      0.47093346514087
  O   -1.63491133478512     -1.79728140032566     -0.63739325558861
  C   -0.77379420793366      1.54609562456548     -0.65980831220565
  H   -0.68876157013861      1.58127371427415     -1.75100401268296
  H   -1.77670428535187      1.86775856109703     -0.37711219917430
  H   -0.05199364431100      2.24532088527453     -0.23155407281243
