15
Coordinates from ORCA-job run
  C   0.66512312194265     -0.32486336851729      0.24190807274225
  C   -0.46313141666253      0.28081382657739     -0.18277524317257
  N   1.82617571135630      0.44279637168642      0.74153003905945
  O   1.62944612483044      1.26172957564170      1.62906475347763
  O   2.91158619643809      0.13095396315019      0.25452358644795
  N   0.88702620823630     -1.67009950307263      0.40502844326476
  H   0.24982614157858     -2.27936606840804     -0.08308029647311
  H   1.85618810448768     -1.92911357634013      0.28299270040644
  N   -0.52849504799379      1.73568656309395     -0.22507360869334
  O   -1.61923045036736      2.23096897739538      0.06208547978499
  O   0.47039929120978      2.36041884838219     -0.57817522788417
  C   -1.72304108186982     -0.42634542657626     -0.56038397656766
  H   -2.22020371666101      0.09875928639671     -1.37692223913233
  H   -1.52374388368376     -1.44752550456032     -0.89270478106715
  H   -2.41792530284155     -0.46481396484926      0.28198229780686
