15
Coordinates from ORCA-job run
  C   0.70359562730904     -0.08805389779424      0.39188861779284
  C   -0.55095586056150      0.16606776808102     -0.09764048891648
  N   1.70302987467429     -0.70487260843771     -0.51783374461841
  O   1.30072316567040     -1.51454764350859     -1.34903195703950
  O   2.87840321690214     -0.39277680181266     -0.33049229842509
  N   1.24545278362624      0.18823390344743      1.59163102221919
  H   0.62439070656213      0.51253479524840      2.31530155731441
  H   2.14884639876177     -0.19442325669555      1.81158197525906
  N   -1.56330716483865      0.60340430767641      0.84088140584250
  O   -2.72689645811065      0.63610229860524      0.43736695920425
  O   -1.23307349578717      0.91540468126588      1.99697061162683
  C   -1.03127664716487     -0.00408139427135     -1.50478455612890
  H   -0.21174419745027      0.04785810244846     -2.21708954299390
  H   -1.74504611547473      0.78883803816749     -1.72655397667010
  H   -1.54214183411819     -0.95968829242023     -1.64119558446671
