15
Coordinates from ORCA-job run
  C   0.64485243372328     -0.20727232168244      0.39352978942047
  C   -0.52470903038927      0.17256881921359     -0.14359946600437
  N   1.71724941779994     -0.73990001315423     -0.48600293130695
  O   1.39910570660771     -1.33028466156721     -1.51645923913405
  O   2.86758748656434     -0.55421226554499     -0.09124863239169
  N   0.92536516202689     -0.05623005061752      1.75456068600948
  H   1.70254572687380      0.57921329497755      1.89180252405171
  H   1.16187353471251     -0.94455003434708      2.18065246919705
  N   -1.49456120606959      0.68458036618827      0.83642041640466
  O   -1.48668721670754      1.89430559156983      1.03379516266945
  O   -2.25830420268092     -0.14167983267241      1.32349798159067
  C   -1.05230687274739      0.16509983874620     -1.53486380802296
  H   -0.25302686711671      0.13419514272269     -2.27002040422536
  H   -1.68660415528394     -0.71339714238656     -1.68263850532674
  H   -1.66037991731309      1.05956326855429     -1.68742604293136
