15
Coordinates from ORCA-job run
  C   0.68257468103702     -0.18580241981596      0.37328269135773
  C   -0.51089223207579      0.18161194758377     -0.15438860473844
  N   1.79428398482447     -0.58543704559744     -0.51948512508799
  O   2.92703132862656     -0.35445819711045     -0.09725035502798
  O   1.53279092591216     -1.11913638756696     -1.59355581548247
  N   1.04047175900626     -0.12953245402018      1.69839328102956
  H   0.39707736379609     -0.57412797392749      2.33234395216835
  H   2.01786295871477     -0.31080346317751      1.86167776517666
  N   -1.47652173281279      0.66120630794811      0.84603032900362
  O   -1.70058441961175     -0.05702190662147      1.82282466112915
  O   -2.01609824299303      1.74139748671907      0.62127995137472
  C   -1.05557238437390      0.18030789769332     -1.54139000817126
  H   -1.47589940204750      1.16646274094784     -1.74678686044528
  H   -1.86081922297052     -0.55676934539006     -1.62605929474821
  H   -0.29570536503203     -0.05589718766459     -2.27791656753816
