15
Coordinates from ORCA-job run
  C   0.69109638272074     -0.13207671506490      0.40310848243665
  C   -0.56423219944836      0.11681554359912     -0.07637596288816
  N   1.71915198761672     -0.61489598899255     -0.55182030161070
  O   1.38803878637973     -1.44492624362036     -1.39249178890009
  O   2.85332114803379     -0.16231146008519     -0.39469679627454
  N   1.19884203107669     -0.07303119702302      1.65513281337339
  H   2.20122413287735      0.02408809803271      1.70755047776612
  H   0.63325954497270      0.41774205369253      2.33002369122459
  N   -1.58606722271557      0.51754122430695      0.87258068884040
  O   -2.73792658726892      0.61623139452686      0.44790651256054
  O   -1.26989331183612      0.73646390169051      2.05199353739690
  C   -1.03175300811350      0.01623848367063     -1.49403209133927
  H   -1.71205836515505      0.84190452240680     -1.70022847002639
  H   -0.20353869855014      0.05553623417643     -2.19656713108501
  H   -1.57846462059006     -0.91431985131653     -1.66308366147443
