15
Coordinates from ORCA-job run
  C   0.69672961063123     -0.11259805354356      0.39844546735226
  C   -0.56370901338596      0.12429280607852     -0.07391001249967
  N   1.69108840360606     -0.70086331301089     -0.53319483020043
  O   2.84018779195790     -0.26993820404249     -0.43570415110919
  O   1.31947333669947     -1.58722241002337     -1.29585093000463
  N   1.23534523400390      0.04238979320692      1.62902073195237
  H   2.24073914721509      0.11670135824884      1.65159324712847
  H   0.69637553213549      0.60233832189233      2.27101967836560
  N   -1.55391176214629      0.62837321137711      0.85890458329760
  O   -2.71340601902663      0.71684277482668      0.45329166151777
  O   -1.20516973884467      0.93911566687082      2.00815650432472
  C   -1.06484689955657     -0.08759640980334     -1.46772258801613
  H   -1.74554822563661      0.72355857255136     -1.72365735423655
  H   -0.25275044485230     -0.11027393653039     -2.18970984831343
  H   -1.61959695280011     -1.02512017809855     -1.54968215955877
