15
Coordinates from ORCA-job run
  C   0.69427604441086     -0.13500686906924      0.39576100929625
  C   -0.56417066062665      0.12269639249956     -0.07064570688009
  N   1.70904840914927     -0.62525502225470     -0.56970732141518
  O   2.84738486641831     -0.17868178007992     -0.42646563341357
  O   1.36357686622552     -1.45485436107484     -1.40511336354043
  N   1.21659034307964     -0.07815984273310      1.64192688118898
  H   2.22005808700743      0.01303413949543      1.68318245495192
  H   0.66126722052139      0.41599312234086      2.32290271559766
  N   -1.57282557182440      0.53110901287017      0.88911566353542
  O   -1.24257909284145      0.74557613424431      2.06552497590298
  O   -2.72822515720156      0.64046221502302      0.47680921194706
  C   -1.04832596951990      0.01794607173706     -1.48234669699939
  H   -0.22836415895279      0.05503006521734     -2.19471471764116
  H   -1.73084248912269      0.84320762453002     -1.68247236642125
  H   -1.59686873672298     -0.91309690274596     -1.64275710610919
