15
Coordinates from ORCA-job run
  C   0.64507743221221     -0.26022473317496      0.41521824559200
  C   -0.54241672111290      0.19333368953794     -0.08642558170492
  N   1.67494795813050     -0.72622281093814     -0.54637439424381
  O   2.83846566453638     -0.43104963325780     -0.27305159333300
  O   1.31091341953046     -1.39400293420892     -1.50913198626682
  N   1.07527418966802     -0.42701101002434      1.68639012676963
  H   2.07681619482110     -0.45322681276193      1.80103000910436
  H   0.52225368104529      0.03024342594586      2.39448225059744
  N   -1.57551299426575      0.57644274535871      0.85701366925935
  O   -2.68180305761015      0.85872241693039      0.39530934930052
  O   -1.31364829469623      0.60000431606259      2.06945653573977
  C   -0.92471604175817      0.32870657415975     -1.52678534861286
  H   -0.05233630390326      0.38653045341518     -2.17257751663129
  H   -1.51820354350324      1.23391214569699     -1.64958350662113
  H   -1.53511158309425     -0.51615783274132     -1.85397025894923
