14
Coordinates from ORCA-job run
  C   -0.73608223090997     -0.81649177777114      0.16736798373389
  C   0.49910252904722     -0.15318130870161     -0.45879186794665
  Br  -0.48869971307765     -1.34330479724378      1.99122951596669
  H   0.23206215034899      0.02711697425505     -1.50699146565601
  H   -1.03565557472200     -1.69803355752556     -0.39813913808312
  N   -1.88013010914496      0.16933486160731      0.00566715741432
  O   -2.24150378477879      0.29402866273349     -1.16207370055369
  O   -2.30630294632453      0.78183663690382      0.97218514132949
  C   1.61329864879345     -1.10072123446342     -0.44547847074091
  N   2.52138456816132     -1.84502654173593     -0.44341884462558
  C   0.88179316542160      1.17276391194506      0.20178887195316
  H   0.07000023378879      1.89601106099115      0.10604022874925
  H   1.76458146283514      1.58414325710981     -0.28954656301734
  H   1.10615160056139      1.03152385189575      1.25916115147651
