14
Coordinates from ORCA-job run
  C   -0.97545061650115      0.04350534192077     -0.01922499912681
  C   0.53004837773234     -0.14682840837189     -0.18244777177134
  Br  -1.89038630082274      0.11752969130953     -1.71483854132567
  H   0.68755195192483     -1.08251437848051     -0.72698813024266
  H   -1.22738316663890      0.94419611726567      0.53866706481190
  N   -1.55496743440448     -1.10566292165554      0.76766942858559
  O   -1.19169895419788     -2.23185943053915      0.45016302158260
  O   -2.34119817224382     -0.80731043143505      1.66024818097397
  C   1.10262382930700     -0.30004318742446      1.15968388588941
  N   1.55782013526477     -0.38609822739416      2.23889547880171
  C   1.19718125121742      1.02345810761559     -0.91018210787942
  H   0.83181339898096      1.09543175185036     -1.93389889451352
  H   0.99725762735017      1.96440331805444     -0.39349151408229
  H   2.27678807303148      0.87079265728441     -0.93725510170347
