14
Coordinates from ORCA-job run
  C   -0.97502613564962      0.02945205049222     -0.01171995914266
  C   0.53202000653681     -0.13220318408274     -0.19085018376839
  Br  -1.90157173735944      0.14657513499310     -1.69903784710790
  H   0.70013743975923     -1.04462275917166     -0.77052153802411
  H   -1.23665315926523      0.90752703663618      0.57720648216985
  N   -1.53214246596449     -1.15435473100729      0.73935016547514
  O   -1.15496130947056     -2.26350546265253      0.38047443924662
  O   -2.31631053790978     -0.89818305467938      1.64668104566180
  C   1.11577901266120     -0.32537798912434      1.14108478672939
  N   1.57230503362828     -0.44913506303491      2.21612309382451
  C   1.17534993592711      1.07409783230360     -0.88055347729536
  H   0.96005209599921      1.99348891536171     -0.33195124521436
  H   2.25757135440986      0.94266137497337     -0.91623054164212
  H   0.80445046669743      1.17357989899266     -1.90005522091242
