14
Coordinates from ORCA-job run
  C   -0.93601722972249     -0.42416125464830     -0.43270860386477
  C   0.57196648223024     -0.13925389363133     -0.46273297251241
  Br  -1.33733715186357     -2.11767707950014     -1.25476339281901
  H   0.89732382436928     -0.45659496182939     -1.45909013093157
  H   -1.48111067812939      0.34268310640214     -0.98785507939891
  N   -1.51151860597557     -0.36591624220149      0.97854087906967
  O   -2.45000508148487     -1.09084796065879      1.26395173117097
  O   -1.00384121872384      0.48693342013878      1.70048988637207
  C   1.26623587154922     -0.99583152282085      0.50085733053955
  N   1.83882825283078     -1.66672186011944      1.27568927250191
  C   0.95920675719070      1.33639506637085     -0.29877788061810
  H   0.76087343740052      1.69371383259808      0.70730732731757
  H   2.02304202153029      1.45031140074421     -0.51548955335908
  H   0.40035331879869      1.94596794915566     -1.01341881346788
