14
Coordinates from ORCA-job run
  C   -0.51815857247857     -0.12153779888809     -0.24514197159049
  C   0.80971981554555     -0.64656679473183     -0.78356277075356
  Cl  -1.80466330331757     -0.63279871663421     -1.36278514485381
  H   0.97428496598941     -0.20554778793845     -1.77013526685716
  H   0.76375409299640     -1.73000569799913     -0.89424131001292
  C   -0.55264704411063      1.37410964986941     -0.04837972809517
  H   -0.32362169117927      1.86318124167400     -0.99671140630316
  H   -1.53714924716253      1.68955715336850      0.28912703014405
  H   0.18852701373482      1.66925804872223      0.69718098111583
  N   -0.81870969046651     -0.82500754165611      1.08354610613344
  O   -0.34304877402480     -1.94439764342063      1.23753604993465
  O   -1.54128290719963     -0.22845406734492      1.87175808900189
  C   1.91439318552383     -0.28758755703566      0.10213997118840
  N   2.78760215614950      0.02579751201489      0.82066937094800
