16

C	0.0	0.0	0.0
C	0.007106	-0.074939	-1.552993
Br	2.296747	0.0	0.0
H	0.76571	0.627694	-1.909916
N	-0.312063	1.206504	0.581569
H	0.423194	1.877432	0.693849
H	-1.111883	1.220697	1.198666
N	-0.551209	-1.097876	0.525594
H	-0.730261	-1.85183	-0.124874
H	-1.152533	-1.033829	1.332418
C	-1.239964	0.337443	-2.222765
N	-1.994681	0.670694	-3.062044
N	0.257535	-1.460521	-1.964845
H	-0.098345	-1.590573	-2.901382
H	1.258232	-1.616804	-1.947811
Br	-3.722522	0.0	0.0
