16

C	0.0	0.0	0.0
C	-0.47192	0.273093	-1.448449
Br	1.954284	0.0	0.0
H	-1.567255	0.185611	-1.366287
N	-0.472641	1.096388	0.801601
H	-1.496677	1.067496	0.742661
H	-0.218473	0.8992	1.76423
N	-0.426703	-1.274632	0.518529
H	-0.113898	-2.029024	-0.084065
H	-1.449251	-1.254087	0.521373
C	-0.015335	-0.792519	-2.349605
N	0.307157	-1.652843	-3.081639
N	-0.032751	1.579996	-1.936819
H	-0.013372	2.183117	-1.119255
H	-0.751614	1.938159	-2.556884
Br	-3.721455	0.0	0.0
