17

C	0.0	0.0	0.0
C	-0.530316	0.045481	-1.47908
Cl	1.775555	0.0	0.0
H	0.194544	0.697451	-1.979336
N	-0.404076	1.303763	0.693512
O	-0.996329	1.223712	1.759271
O	-0.089977	2.327589	0.100443
C	-0.476638	-1.129341	0.780856
N	-0.776038	-2.112587	1.351427
N	-1.829258	0.602047	-1.661926
H	-1.863244	1.583127	-1.421597
H	-2.603495	0.139908	-1.169865
C	-0.46806	-1.358063	-2.066788
H	0.501682	-1.837007	-1.908104
H	-1.249239	-1.978875	-1.620892
H	-0.663519	-1.286235	-3.137188
Cl	-4.467136	0.0	0.0
