17

C	0.0	0.0	0.0
C	-0.537395	-0.128848	-1.484493
Cl	1.775304	0.0	0.0
H	0.276074	0.307399	-2.074362
N	-0.393629	1.381471	0.529623
O	-0.010165	2.327633	-0.146296
O	-1.057298	1.432518	1.554323
C	-0.47082	-1.016542	0.926872
N	-0.746189	-1.918279	1.629135
N	-1.736765	0.573471	-1.798854
H	-1.624813	1.573324	-1.70635
H	-2.564497	0.279601	-1.264049
C	-0.703078	-1.60545	-1.814592
H	-1.578061	-1.993766	-1.288145
H	0.173077	-2.19914	-1.541335
H	-0.882968	-1.695986	-2.886678
Cl	-4.2957	0.0	0.0
