17

C	0.0	0.0	0.0
C	-0.531011	0.051922	-1.479916
Cl	1.7749	0.0	0.0
H	0.199857	0.698052	-1.979784
N	-0.401649	1.30133	0.700547
O	-0.985325	1.21777	1.771227
O	-0.092129	2.326985	0.109022
C	-0.472551	-1.132991	0.779106
N	-0.7714	-2.115279	1.352051
N	-1.82409	0.620604	-1.663555
H	-1.846959	1.603634	-1.431077
H	-2.604308	0.167061	-1.172258
C	-0.479674	-1.351155	-2.068364
H	0.493782	-1.826395	-1.934482
H	-1.246773	-1.974782	-1.604864
H	-0.703083	-1.27827	-3.132437
Cl	-4.453918	0.0	0.0
