17

C	0.0	0.0	0.0
C	-0.510277	-0.100348	-1.493351
Cl	1.768898	0.0	0.0
H	0.272769	0.42574	-2.05023
N	-0.403564	1.362483	0.570283
O	-0.098143	2.325715	-0.121053
O	-0.980337	1.384719	1.647387
C	-0.473826	-1.050246	0.887149
N	-0.796884	-1.965283	1.550637
N	-1.756769	0.518677	-1.796429
H	-2.561894	0.174913	-1.257339
H	-1.712482	1.522378	-1.685529
C	-0.543901	-1.570058	-1.891063
H	-0.680286	-1.628593	-2.97142
H	0.368663	-2.103364	-1.613107
H	-1.399052	-2.053616	-1.413877
Cl	-4.313201	0.0	0.0
