17

C	0.0	0.0	0.0
C	-0.497947	-0.015985	-1.510813
Cl	1.775468	0.0	0.0
H	0.333096	0.459687	-2.040642
N	-0.386665	1.330933	0.649574
O	-0.084913	2.330791	0.009959
O	-0.933609	1.296651	1.74246
C	-0.470061	-1.093732	0.833744
N	-0.791126	-2.045984	1.443082
N	-1.686524	0.703311	-1.821586
H	-1.574025	1.693884	-1.657979
H	-2.517552	0.378023	-1.312528
C	-0.639469	-1.467255	-1.946958
H	-0.778519	-1.485833	-3.02868
H	-1.528351	-1.896667	-1.480479
H	0.23243	-2.07157	-1.684079
Cl	-4.177751	0.0	0.0
