17

C	0.0	0.0	0.0
C	-0.40114	0.488719	-1.427479
Cl	1.766682	0.0	0.0
H	0.291164	-0.08287	-2.055075
N	-0.508262	0.866621	1.153101
O	-1.183937	1.845713	0.872249
O	-0.188248	0.491046	2.273474
C	-0.43763	-1.368763	0.260375
N	-0.724211	-2.499992	0.397973
N	-0.009448	1.889112	-1.565415
H	0.170389	2.069382	-2.545711
H	-0.789657	2.468266	-1.280025
C	-1.810847	0.153449	-1.880622
H	-1.866736	0.421446	-2.942027
H	-2.595569	0.666593	-1.325263
H	-2.028714	-0.912741	-1.787716
Cl	-4.63354	0.0	0.0
