19

C	0.0	0.0	0.0
C	-0.284366	0.181435	-1.532868
F	1.368331	0.0	0.0
H	0.49292	0.904185	-1.814327
C	-0.492915	1.142729	0.84754
H	-0.09767	1.011105	1.856713
H	-1.589846	1.095808	0.872717
H	-0.170884	2.101831	0.432559
N	-0.616605	-1.212914	0.527051
O	-0.296651	-1.569991	1.694789
O	-1.799999	-1.389083	-0.02034
N	-1.552352	0.742117	-1.963041
H	-1.59368	1.710668	-1.66188
H	-2.290786	0.272099	-1.427951
C	-0.004613	-1.113433	-2.287818
H	0.921607	-1.579095	-1.93998
H	-0.829414	-1.807226	-2.134179
H	0.079993	-0.891324	-3.355001
H	-3.052991	0.0	0.0
