19

C	0.0	0.0	0.0
C	-0.430276	-0.031096	-1.471465
F	1.376901	0.0	0.0
H	0.267837	-0.741931	-1.932333
C	-0.582868	1.083097	0.847714
H	-1.672692	0.979219	0.867576
H	-0.194016	1.014119	1.864307
H	-0.314525	2.036604	0.396167
N	-0.311522	-1.379825	0.596031
O	-1.000569	-1.453851	1.605996
O	0.196984	-2.336193	0.008131
N	-0.230784	1.320485	-2.007752
H	-0.965669	1.529139	-2.670531
H	0.65872	1.379557	-2.485009
C	-1.850852	-0.532226	-1.670237
H	-1.904132	-1.602278	-1.464001
H	-2.633182	-0.071957	-1.036339
H	-2.13179	-0.393161	-2.720877
H	-4.301946	0.0	0.0
