19

C	0.0	0.0	0.0
C	-0.279327	0.307043	-1.50447
F	1.368256	0.0	0.0
H	0.546862	0.990346	-1.745662
C	-0.488822	1.067994	0.943952
H	-1.583803	1.022281	0.977097
H	-0.180609	2.05518	0.597854
H	-0.080872	0.848991	1.932761
N	-0.617831	-1.25897	0.423038
O	-1.80645	-1.38346	-0.127995
O	-0.291543	-1.714655	1.554071
N	-1.513541	1.040084	-1.75288
H	-1.753674	0.92597	-2.732837
H	-2.26298	0.594707	-1.20325
C	-0.085339	-0.94388	-2.366159
H	-0.939706	-1.607871	-2.25091
H	0.826975	-1.478527	-2.08291
H	0.007583	-0.647423	-3.418925
H	-3.055088	0.0	0.0
