19

C	-0.475478	0.00273	-1.430993
C	0.0	0.0	0.0
Br	0.391936	1.399082	-2.492159
H	1.095509	0.0	0.0
N	-0.281334	-1.223478	-2.106196
H	-0.620557	-1.170722	-3.058208
H	-0.766416	-1.96218	-1.615931
N	-2.015184	0.379093	-1.428433
O	-2.781363	-0.590081	-1.371747
O	-2.374773	1.548673	-1.366029
C	-0.392619	-1.284511	0.728335
H	0.134271	-2.141377	0.302089
H	-0.042811	-1.19565	1.760246
H	-1.473666	-1.479756	0.747551
C	-0.428774	1.226798	0.793736
H	-0.23383	2.148534	0.243235
H	-1.488373	1.218345	1.083628
H	0.182698	1.253266	1.700018
F	2.602394	0.0	0.0
