19

C	-0.493234	-0.00543	-1.44212
C	0.0	0.0	0.0
Br	0.449692	-1.379772	-2.471206
H	1.094244	0.0	0.0
N	-1.900412	-0.187662	-1.716101
H	-2.172546	-1.07733	-1.317656
H	-2.409818	0.554843	-1.25003
N	-0.116108	1.349145	-2.048214
O	1.049229	1.554942	-2.346845
O	-1.026346	2.181388	-2.094074
C	-0.479686	-1.240832	0.739604
H	-1.563318	-1.245702	0.927926
H	0.029731	-1.274163	1.706177
H	-0.208406	-2.153866	0.204789
C	-0.437059	1.264899	0.734479
H	-0.109501	1.172364	1.77332
H	0.058393	2.148286	0.327237
H	-1.523013	1.435601	0.735674
F	2.626166	0.0	0.0
