19

C	-0.07319	0.090074	-1.532502
C	0.0	0.0	0.0
Br	-1.723016	0.937689	-2.246227
H	1.098632	0.0	0.0
N	1.0656	0.73332	-2.106944
H	1.870619	0.51018	-1.468759
H	0.915545	1.732928	-2.102195
N	-0.086072	-1.3632	-2.061192
O	1.01959	-1.857108	-2.248554
O	-1.154827	-1.961295	-2.152843
C	-0.641564	-1.209099	0.64761
H	-1.716611	-1.26757	0.442864
H	-0.174878	-2.138755	0.315938
H	-0.500832	-1.145182	1.730995
C	-0.427642	1.301343	0.65962
H	0.004717	2.16359	0.146853
H	-1.51641	1.420539	0.684198
H	-0.048311	1.311863	1.685777
F	2.7075	0.0	0.0
