14

C	-0.514663	-0.085431	-1.444616
C	0.0	0.0	0.0
Cl	0.267913	-1.388312	-2.324852
H	1.090548	0.0	0.0
H	-0.373821	0.943019	0.410417
C	-1.964641	-0.274944	-1.486958
N	-3.126671	-0.447392	-1.499235
N	-0.220181	1.269311	-2.119134
O	-1.004372	2.159503	-1.798621
O	0.764374	1.383229	-2.824161
N	-0.48664	-1.162763	0.727488
H	-1.047228	-0.888239	1.516998
H	0.30783	-1.685289	1.064852
Cl	3.364977	0.0	0.0
