14

C	-0.505876	-0.068875	-1.445073
C	0.0	0.0	0.0
Cl	0.100116	-1.498668	-2.265807
H	1.097808	0.0	0.0
H	-0.361624	0.94548	0.410029
C	-1.967011	-0.058944	-1.501666
N	-3.141359	-0.042037	-1.53382
N	-0.040289	1.210286	-2.176736
O	-0.512348	2.237085	-1.699799
O	0.725649	1.124106	-3.118305
N	-0.547347	-1.140066	0.727693
H	-0.893137	-0.839202	1.627977
H	0.202598	-1.79957	0.894806
Cl	3.387158	0.0	0.0
