14

C	-0.541581	0.007352	-1.419965
C	0.0	0.0	0.0
Cl	-2.317262	0.208647	-1.419247
H	1.106157	0.0	0.0
H	-0.316311	0.95323	0.434399
C	0.030238	1.063661	-2.249713
N	0.453618	1.935287	-2.914223
N	-0.237821	-1.319851	-2.146563
O	0.556332	-2.073141	-1.605558
O	-0.789884	-1.485799	-3.226364
N	-0.566282	-1.126296	0.733855
H	0.17394	-1.7998	0.881796
H	-0.890186	-0.816481	1.638665
Cl	3.389233	0.0	0.0
