14

C	-0.512281	-0.009437	-1.426038
C	0.0	0.0	0.0
Cl	-0.066115	1.480151	-2.28444
H	1.092994	0.0	0.0
H	-0.34553	0.924728	0.466228
C	-0.066641	-1.174553	-2.181034
N	0.305459	-2.109276	-2.787284
N	-2.054506	-0.039483	-1.404726
O	-2.595591	0.60184	-0.513554
O	-2.623705	-0.658611	-2.294418
N	-0.519799	-1.203328	0.639425
H	0.252098	-1.730748	1.024844
H	-1.164443	-0.972813	1.38203
Cl	3.373891	0.0	0.0
