14

C	-0.456003	-0.070588	-1.45222
C	0.0	0.0	0.0
Cl	-2.230817	-0.228565	-1.598736
H	1.094094	0.0	0.0
H	-0.340736	0.970861	0.369318
C	-0.045275	1.112375	-2.201408
N	0.23515	2.108403	-2.757368
N	0.13044	-1.293635	-2.174819
O	0.071402	-1.269407	-3.399124
O	0.576498	-2.192575	-1.479517
N	-0.567596	-1.079192	0.796418
H	-0.820903	-0.721868	1.70673
H	0.148611	-1.776671	0.929769
Cl	3.375013	0.0	0.0
