14

C	-0.50045	-0.002713	-1.443339
C	0.0	0.0	0.0
Cl	0.179965	1.332487	-2.361733
H	1.098519	0.0	0.0
H	-0.364	-0.920549	0.460559
C	-0.236365	-1.264384	-2.127598
N	-0.053487	-2.28923	-2.670733
N	-2.042183	0.134029	-1.38001
O	-2.591172	-0.802819	-0.811702
O	-2.581957	1.120162	-1.845362
N	-0.561289	1.169377	0.673998
H	-0.788984	0.923388	1.626826
H	0.157043	1.882924	0.715585
Cl	3.386591	0.0	0.0
