14

C	-0.557084	0.05817	-1.412082
C	0.0	0.0	0.0
Cl	0.167553	-1.19487	-2.437318
H	1.091581	0.0	0.0
H	-0.323556	-0.961018	0.411736
C	-2.012542	-0.086674	-1.42058
N	-3.171704	-0.268642	-1.362306
N	-0.242048	1.408358	-2.069058
O	-0.931928	1.704954	-3.039464
O	0.681188	2.053881	-1.600729
N	-0.5792	1.118551	0.740525
H	-0.9454	0.803218	1.626936
H	0.155764	1.789859	0.92394
Cl	3.42244	0.0	0.0
