14

C	-0.568045	0.027572	-1.418589
C	0.0	0.0	0.0
Cl	-2.333539	0.275934	-1.36704
H	1.093602	0.0	0.0
H	-0.322975	0.93801	0.468848
C	0.010488	1.074375	-2.253142
N	0.41555	1.948004	-2.925964
N	-0.273659	-1.324766	-2.091459
O	0.895328	-1.459306	-2.420393
O	-1.176129	-2.136394	-2.204903
N	-0.458939	-1.198326	0.675306
H	-1.247729	-1.018295	1.280153
H	0.303051	-1.568651	1.22384
Cl	3.366225	0.0	0.0
