12

C	-0.489805	-0.058826	-1.427598
C	0.0	0.0	0.0
F	-1.884352	-0.189609	-1.44674
H	1.093264	0.0	0.0
H	-0.073167	-0.940844	-1.917066
H	-0.353595	0.932431	0.460842
C	-0.164939	1.149713	-2.203004
N	0.048527	2.107297	-2.845962
N	-0.444167	-1.215844	0.677972
H	0.241524	-1.458429	1.380702
H	-1.336326	-1.071427	1.129969
Br	3.596441	0.0	0.0
