12

C	-0.493773	-0.090441	-1.423676
C	0.0	0.0	0.0
F	-1.892678	-0.183693	-1.436833
H	1.095018	0.0	0.0
H	-0.103611	-0.99939	-1.885758
H	-0.349766	0.945044	0.437167
C	-0.138616	1.084015	-2.237655
N	0.090234	2.020224	-2.9066
N	-0.448528	-1.195254	0.71221
H	0.252603	-1.437498	1.399408
H	-1.323572	-1.024451	1.18843
Br	3.598977	0.0	0.0
