12

C	-0.478269	-0.011667	-1.431659
C	0.0	0.0	0.0
F	-1.851456	-0.296246	-1.479795
H	1.09357	0.0	0.0
H	0.034024	-0.796555	-1.995528
H	-0.31367	-0.961528	0.432275
C	-0.278745	1.277228	-2.114955
N	-0.147815	2.273071	-2.719647
N	-0.509778	1.163393	0.711488
H	0.183274	1.474989	1.374079
H	-1.358037	0.946493	1.209683
Br	3.585442	0.0	0.0
