12

C	-0.555216	-0.00106	-1.404504
C	0.0	0.0	0.0
F	-0.103497	1.114656	-2.100231
H	1.099526	0.0	0.0
H	-1.646457	0.080841	-1.359634
H	-0.3499	-0.911171	0.496543
C	-0.205346	-1.214967	-2.161897
N	0.036272	-2.213443	-2.729231
N	-0.566075	1.169185	0.69326
H	-0.279109	1.107398	1.664197
H	-0.079346	1.98101	0.326508
Br	3.663297	0.0	0.0
