16

C	-0.443632	0.001488	-1.450767
C	0.0	0.0	0.0
Cl	0.014051	-1.578662	-2.178115
H	1.090498	0.0	0.0
H	0.191595	0.742846	-1.93987
C	-1.913122	0.263968	-1.717895
H	-2.090893	0.28552	-2.796087
H	-2.53243	-0.51275	-1.27082
H	-2.186601	1.231577	-1.294958
N	-0.530498	-1.158168	0.763516
O	0.26114	-2.027067	1.11704
O	-1.746585	-1.180959	0.971636
N	-0.347422	1.209124	0.685653
O	-0.394792	1.181655	1.927788
O	-0.334808	2.253699	0.001036
H	2.427696	0.0	0.0
