16

C	-0.5523	-0.033922	-1.407064
C	0.0	0.0	0.0
Cl	0.195228	1.300405	-2.35925
H	1.08747	0.0	0.0
H	-1.622403	0.188209	-1.389111
C	-0.241173	-1.345136	-2.105928
H	-0.546939	-1.282413	-3.152319
H	-0.773879	-2.174152	-1.636178
H	0.831603	-1.538665	-2.049235
N	-0.424073	-1.227106	0.716981
O	0.318614	-2.20658	0.627857
O	-1.511443	-1.209234	1.310206
N	-0.490929	1.126394	0.794369
O	-0.053734	1.18032	1.947284
O	-1.232917	1.970829	0.274511
H	2.509629	0.0	0.0
