16

C	-0.530649	-0.010988	-1.419428
C	0.0	0.0	0.0
Cl	0.187155	-1.381268	-2.330063
H	1.089757	0.0	0.0
H	-0.132392	0.889688	-1.884957
C	-2.041451	-0.070949	-1.539494
H	-2.423494	-1.010699	-1.139859
H	-2.334896	0.004248	-2.589142
H	-2.483572	0.756726	-0.9846
N	-0.472204	-1.168835	0.776462
O	-1.563676	-1.093263	1.347033
O	0.244209	-2.166703	0.756305
N	-0.342237	1.210326	0.702876
O	-0.616309	2.224522	0.026741
O	-0.116412	1.220782	1.923248
H	2.429234	0.0	0.0
