16

C	-0.536294	-0.015906	-1.416449
C	0.0	0.0	0.0
Cl	0.2488	-1.340166	-2.343871
H	1.089859	0.0	0.0
H	-0.186	0.909911	-1.872012
C	-2.041978	-0.153951	-1.540616
H	-2.529149	0.624248	-0.951823
H	-2.372221	-1.128848	-1.179466
H	-2.339294	-0.053453	-2.587324
N	-0.443508	-1.195318	0.76261
O	-1.563926	-1.168219	1.281574
O	0.320308	-2.158184	0.780982
N	-0.37971	1.182001	0.722722
O	-0.710171	2.19429	0.068074
O	-0.140202	1.180599	1.941939
H	2.422551	0.0	0.0
