17

C	0.0	0.0	0.0
C	-0.432374	-0.523408	-1.399653
F	1.384947	0.0	0.0
H	0.453993	-0.26586	-1.991486
C	-0.390136	1.405152	0.215951
N	-0.557903	2.556304	0.375197
C	-0.443199	-0.833753	1.128317
N	-0.629591	-1.573135	2.022213
C	-1.657032	0.166043	-2.021873
H	-2.191636	0.815373	-1.331945
H	-2.406705	-0.572846	-2.303144
H	-1.361894	0.730687	-2.910298
C	-0.572907	-2.042935	-1.374923
H	-1.474275	-2.324455	-0.82509
H	0.295166	-2.529046	-0.918089
H	-0.670942	-2.409411	-2.399291
Cl	-4.246325	0.0	0.0
