17

C	0.0	0.0	0.0
C	-0.436768	0.411409	-1.436381
F	1.385051	0.0	0.0
H	0.479323	0.185481	-1.995668
C	-0.438216	0.913232	1.067116
N	-0.65967	1.675587	1.932368
C	-0.379534	-1.385917	0.345964
N	-0.553426	-2.516241	0.613726
C	-0.687367	1.916332	-1.505982
H	0.133961	2.491584	-1.066981
H	-0.785294	2.211712	-2.554642
H	-1.620462	2.156665	-0.990881
C	-1.591934	-0.398374	-2.051463
H	-1.22251	-1.00166	-2.884408
H	-2.374913	0.269709	-2.408158
H	-2.103815	-1.033589	-1.333721
Cl	-4.067302	0.0	0.0
