17

C	0.0	0.0	0.0
C	-0.359731	-0.342411	-1.500032
F	1.369988	0.0	0.0
H	0.647105	-0.409246	-1.927439
C	-0.43001	1.343719	0.420253
N	-0.586613	2.469981	0.714081
C	-0.433912	-1.016916	0.970866
N	-0.571662	-1.893579	1.741076
C	-1.099334	0.755457	-2.260759
H	-0.628351	1.73355	-2.123311
H	-1.058549	0.515407	-3.329796
H	-2.138423	0.806258	-1.934855
C	-1.013426	-1.711119	-1.672477
H	-0.396852	-2.504123	-1.238
H	-1.117076	-1.917343	-2.742205
H	-2.000734	-1.716842	-1.211278
Cl	-3.411464	0.0	0.0
