17

C	0.0	0.0	0.0
C	-0.492148	0.082497	-1.450472
F	1.370027	0.0	0.0
H	-1.583188	0.121365	-1.371921
C	-0.416372	1.172983	0.796531
N	-0.555733	2.157589	1.421818
C	-0.419646	-1.247474	0.670182
N	-0.559494	-2.28914	1.194672
C	-0.074779	-1.167365	-2.21865
H	-0.540409	-2.062051	-1.800038
H	-0.404565	-1.078423	-3.25684
H	1.011402	-1.298995	-2.215631
C	0.034425	1.35527	-2.106893
H	-0.351537	1.417771	-3.127507
H	-0.299735	2.248023	-1.573208
H	1.127387	1.362305	-2.153838
Cl	-3.432047	0.0	0.0
