12
Coordinates from ORCA-job run
  C   1.08849678866043     -0.67085284461544      0.24981644051895
  C   -0.06198450505395      0.06622616918643     -0.43001963596441
  Br  2.71080360495131     -0.62408886245716     -0.81206657968803
  H   -0.19078244754095     -0.34764558267146     -1.43580628707754
  H   1.32269007845903     -0.22424932550580      1.21639542946932
  H   0.82745337979864     -1.72064726915469      0.38426259817277
  C   0.24585242499511      1.49127009107051     -0.57561849343639
  N   0.46203618039177      2.64203562533259     -0.65997019894954
  C   -1.35907034651400     -0.11782037085759      0.36819424743659
  H   -1.60868779766735     -1.17867369763357      0.43843500751082
  H   -2.18642646125494      0.39926551189682     -0.11997294728611
  H   -1.25238089922510      0.28518055540937      1.37735041929356
