12
Coordinates from ORCA-job run
  C   1.07162932388446     -0.67979034704994      0.28082085088104
  C   -0.05994062463175      0.05495810478413     -0.43259028479212
  Br  2.70101231886960     -0.70411205482273     -0.77101836248193
  H   -0.18778245140238     -0.38891638363778     -1.42558877098256
  H   0.78844412857859     -1.71851438509446      0.45109609517871
  H   1.30884064072876     -0.20311576985234      1.23206070492495
  C   0.27662881530288      1.46846279600278     -0.62058662939731
  N   0.54630201037277      2.60481723882300     -0.73896611177564
  C   -1.36669362964563     -0.08197406307207      0.35950056415799
  H   -1.25845103344205      0.34213482991319      1.35994399678425
  H   -1.63993153233163     -1.13533622141220      0.45238566535557
  H   -2.17905796628361      0.44138625541842     -0.14705771785297
