12
Coordinates from ORCA-job run
  C   1.22338219996001     -0.49321324256852      0.14315400326056
  C   -0.08402129801144      0.02322472048336     -0.46297834354047
  Br  1.11854940111356     -2.39019773322409      0.54695868790014
  H   -0.31397624257482     -0.57676942071222     -1.35040450427181
  H   2.05312089032235     -0.36992621653870     -0.55139557056169
  H   1.44841735735688      0.02340009000719      1.07657439388625
  C   0.15279586477673      1.40091590192194     -0.90919229860724
  N   0.34854205323993      2.51054288881933     -1.23997716455545
  C   -1.26695628870208     -0.02390336875354      0.50665402641667
  H   -2.16117267857791      0.38956671350096      0.03791003130460
  H   -1.04718255439767      0.56004168956857      1.40329990018161
  H   -1.47149870450555     -1.05368202250427      0.79939683858683
