13

C	0.0	0.0	0.0
C	-0.52606	0.416868	-1.369692
Br	1.937387	0.0	0.0
H	-0.189369	-0.312999	-2.107644
H	-1.628255	0.371884	-1.271602
C	-0.426936	0.870706	1.086644
N	-0.636592	1.637463	1.953276
N	-0.412229	-1.449957	0.298737
O	-0.496833	-2.190888	-0.668576
O	-0.523243	-1.752204	1.474655
C	-0.081863	1.754987	-1.725982
N	0.269161	2.836171	-2.018887
Cl	-3.337566	0.0	0.0
