13

C	0.0	0.0	0.0
C	-0.25507	-0.175195	-1.518686
Br	1.939679	0.0	0.0
H	0.357821	-1.027374	-1.818032
H	0.195378	0.709048	-1.981334
C	-0.461633	1.234373	0.609605
N	-0.553791	2.306343	1.087813
N	-0.392608	-1.222123	0.822286
O	-0.440065	-2.280167	0.213473
O	-0.497898	-1.054501	2.026366
C	-1.55897	-0.378038	-2.162852
N	-2.221453	-0.596495	-3.116052
Cl	-2.95911	0.0	0.0
