13

C	0.0	0.0	0.0
C	-0.531729	0.392825	-1.371721
Br	1.937784	0.0	0.0
H	-1.63429	0.351828	-1.263735
H	-0.202022	-0.349765	-2.100058
C	-0.430512	0.88355	1.074046
N	-0.636355	1.662662	1.931001
N	-0.407924	-1.447308	0.325871
O	-0.495505	-2.205967	-0.626952
O	-0.514077	-1.726325	1.508298
C	-0.093961	1.724732	-1.757965
N	0.252556	2.796698	-2.088646
Cl	-3.344715	0.0	0.0
