13

C	0.0	0.0	0.0
C	-0.559146	0.11539	-1.413495
Br	1.933694	0.0	0.0
H	-0.441684	1.154694	-1.734242
H	-1.645322	-0.075346	-1.304851
C	-0.421834	1.108535	0.847909
N	-0.632685	2.049778	1.519483
N	-0.411893	-1.327561	0.656843
O	-0.648827	-2.249506	-0.106824
O	-0.389023	-1.354939	1.876673
C	0.070799	-0.757957	-2.391195
N	0.564081	-1.412951	-3.231906
Cl	-3.372143	0.0	0.0
