13

C	0.0	0.0	0.0
C	-0.527624	0.667833	-1.263873
Br	1.926353	0.0	0.0
H	-0.178417	0.104209	-2.130307
H	-1.629989	0.595376	-1.184922
C	-0.434285	0.644666	1.231894
N	-0.623797	1.169732	2.267057
N	-0.41439	-1.481595	0.019837
O	-0.497635	-2.005743	1.117634
O	-0.530647	-2.019231	-1.070327
C	-0.097062	2.054335	-1.351555
N	0.241985	3.174644	-1.447287
Cl	-3.339713	0.0	0.0
