13

C	0.0	0.0	0.0
C	-0.52447	0.419891	-1.366702
Br	1.937429	0.0	0.0
H	-0.188008	-0.306318	-2.107929
H	-1.627234	0.375165	-1.274597
C	-0.433304	0.865475	1.088013
N	-0.6236	1.629994	1.961361
N	-0.409673	-1.45135	0.295871
O	-0.520172	-1.752199	1.473116
O	-0.495197	-2.191678	-0.671384
C	-0.080485	1.757226	-1.725162
N	0.268928	2.834771	-2.034497
Cl	-3.329273	0.0	0.0
