17

C	-0.395251	-0.007095	-1.459884
C	0.0	0.0	0.0
F	-1.778863	-0.240366	-1.626674
H	1.104138	0.0	0.0
H	-0.216782	0.994147	-1.872267
C	0.369947	-1.03124	-2.267658
H	0.135021	-0.9335	-3.331609
H	1.441846	-0.885299	-2.099905
H	0.102966	-2.042329	-1.951679
C	-0.51437	-1.209711	0.756518
H	-1.606797	-1.199266	0.799796
H	-0.178789	-2.141331	0.296309
H	-0.116379	-1.197255	1.776618
N	-0.520731	1.226284	0.647966
H	-0.255021	1.159754	1.627171
H	0.046903	1.992273	0.289934
H	3.094017	0.0	0.0
