17

C	-0.493717	0.019324	-1.431253
C	0.0	0.0	0.0
F	-0.143617	1.256925	-2.008664
H	1.102848	0.0	0.0
H	0.051689	-0.742479	-2.000078
C	-1.992527	-0.128854	-1.60117
H	-2.267997	0.060427	-2.642012
H	-2.317562	-1.137684	-1.336244
H	-2.501083	0.587903	-0.954916
C	-0.444908	-1.263935	0.718833
H	-1.520637	-1.260971	0.919519
H	0.089103	-1.340111	1.670667
H	-0.183912	-2.154715	0.138587
N	-0.537786	1.18249	0.704526
H	-0.082702	1.190348	1.613767
H	-0.148434	1.986166	0.219049
H	3.08773	0.0	0.0
