17

C	-0.416729	0.005987	-1.449358
C	0.0	0.0	0.0
F	-1.833138	-0.071857	-1.556022
H	1.097414	0.0	0.0
H	-0.145077	0.981169	-1.862571
C	0.190175	-1.111255	-2.265513
H	-0.206726	-2.079016	-1.949594
H	-0.034812	-0.980459	-3.327702
H	1.273379	-1.101791	-2.111685
C	-0.463051	-1.245462	0.750138
H	-0.12476	-1.18049	1.788716
H	-1.555909	-1.333367	0.738757
H	-0.032838	-2.157706	0.327551
N	-0.438275	1.250267	0.634588
H	0.241152	1.477384	1.352113
H	-1.336674	1.113526	1.088067
H	3.030838	0.0	0.0
