17

C	-0.524966	-0.012744	-1.423525
C	0.0	0.0	0.0
F	0.052198	1.040481	-2.136428
H	1.095547	0.0	0.0
H	-0.191474	-0.925546	-1.920796
C	-2.018119	0.161987	-1.558785
H	-2.282744	1.091555	-1.066182
H	-2.308147	0.211881	-2.610822
H	-2.561384	-0.656085	-1.091918
C	-0.422272	-1.261108	0.741098
H	-0.149011	-2.159951	0.175033
H	-1.506751	-1.294504	0.943747
H	0.114984	-1.301211	1.699103
N	-0.429499	1.225315	0.691103
H	-0.983332	0.980896	1.525424
H	0.422413	1.712521	1.008464
H	3.058252	0.0	0.0
