14
Coordinates from ORCA-job run
  C   -0.53923019067633      0.23421766047039     -0.44273825608670
  C   0.78103959610930     -0.54730240522215     -0.55467741235764
  Br  -1.51920002193722     -0.01347717476231     -2.12907597984641
  H   1.28275309844219     -0.25256507326947     -1.48483834958969
  H   0.52253564338739     -1.60638773543686     -0.63634540888799
  C   -1.40319785079195     -0.24411111259359      0.71550002340580
  H   -0.83394790646475     -0.13272223156207      1.63903015275670
  H   -2.32689011863627      0.33215917789488      0.77650231779886
  H   -1.65282138795107     -1.29724010824574      0.57009686534538
  C   -0.23734699044489      1.65819264082258     -0.31722630883421
  N   0.05859624648030      2.78775395018345     -0.18178418187427
  N   1.56098764540806     -0.32688800017786      0.65403556820207
  H   2.18518008152134     -1.10382932267699      0.82321299807607
  H   2.12054215555392      0.51219973457573      0.56830797189202
