14
Coordinates from ORCA-job run
  C   -0.49101997620853      0.21425653426789     -0.24182191585207
  C   0.76603136210413     -0.63088597182859      0.01024149649460
  Br  -1.01582115186640      0.04748226067115     -2.12399605730409
  H   0.53655083813707     -1.65273932658848     -0.30260946618800
  H   0.91333280988858     -0.64134420079787      1.10218736948901
  C   -1.65589727943382     -0.23747698110009      0.63221348456084
  H   -1.87650690415655     -1.28814930017176      0.43343549419589
  H   -2.54855842260035      0.35263607293329      0.42504017790405
  H   -1.39132069409308     -0.11889793472691      1.68673273483025
  C   -0.17517103499122      1.61914457991630      0.00505427292209
  N   0.10131933167540      2.72986139914902      0.27250235012434
  N   1.90094437171758     -0.13593659711007     -0.74091045737565
  H   2.57120087003699     -0.87184702271071     -0.91201013098479
  H   2.36691587979019      0.61189648809684     -0.24405935281647
