14
Coordinates from ORCA-job run
  C   -0.44709559667556      0.36969168170632     -0.32742682551229
  C   1.04521903321097      0.06181052403018     -0.12690888914803
  Br  -1.01399013835267     -0.41540690520933     -2.04767018774429
  H   1.60550647739411      0.53300046708832     -0.94526684836628
  H   1.33821788818086      0.55910874811265      0.80432911782369
  C   -1.31858824678576     -0.19802069728815      0.78345850063061
  H   -2.37170722929610      0.01352736817059      0.59719361098486
  H   -1.15610237516569     -1.27220269138505      0.84785000249975
  H   -1.02704587693105      0.26341921665647      1.73187907643932
  C   -0.62144599507167      1.81438084128597     -0.44704066984064
  N   -0.73642485973464      2.98343179458710     -0.48999943855355
  N   1.26172200474248     -1.36682898933665      0.02085954556914
  H   2.14308348866391     -1.53604321017636      0.48686186819029
  H   1.29865142582081     -1.80986814824207     -0.88811886297258
