14
Coordinates from ORCA-job run
  C   -0.47082605422808      0.35485098171509     -0.30816232729332
  C   1.03221376068111      0.05069958463189     -0.21239030755006
  Br  -1.17440098336041     -0.51272537392104     -1.93630981906225
  H   1.39929385227314      0.59159427372571      0.66687266864833
  H   1.52634030839570      0.47798893672923     -1.09494012743600
  C   -1.25134514058955     -0.15204580213733      0.89580646691252
  H   -1.08214364737225     -1.22180645880069      1.00321979582218
  H   -2.31631368155144      0.05142843426022      0.78220883968921
  H   -0.88751420527948      0.35762463469862      1.79316800141593
  C   -0.65375153139477      1.79225386075400     -0.48592749708736
  N   -0.77499417922339      2.95800584923433     -0.57575375872159
  N   1.25919230063583     -1.37022337166475     -0.01104849565277
  H   2.17901197819074     -1.51964907706648      0.38189067583321
  H   1.21523722282284     -1.85799647215880     -0.89663411551804
