14
Coordinates from ORCA-job run
  C   -0.42869436840391      0.38035649065363     -0.33979886251386
  C   1.04990326026348      0.06067369817260     -0.06845936842367
  Br  -0.90493852521275     -0.35446899471285     -2.10900162406814
  H   1.29332499319456      0.52828345318492      0.89206926466157
  H   1.65479595279049      0.55433460615548     -0.84063140607588
  C   -1.35989689973720     -0.21388776723668      0.70682024387752
  H   -1.12039645792303      0.22284706202345      1.68109239742032
  H   -2.40122196526879      0.00437518399159      0.46913125093490
  H   -1.20187818529337     -1.28969720736427      0.75212587254813
  C   -0.59188804367690      1.82852775936529     -0.42859010078311
  N   -0.69375484738866      2.99940357966678     -0.44781301057915
  N   1.25458948589795     -1.37281960210477      0.04699730276017
  H   1.34348770593902     -1.78772664876063     -0.87159475645718
  H   2.10656789481911     -1.56020161303453      0.55865279669839
