14
Coordinates from ORCA-job run
  C   -0.49661212454901      0.22397619972671     -0.45806572273771
  C   0.81701454682355     -0.57286619110063     -0.65741538383301
  Br  -1.57685476972418      0.00008249898428     -2.08544214743657
  H   1.28050943633033     -0.23845682646248     -1.58863720416187
  H   0.54279341733190     -1.62381909191143     -0.78809595472111
  C   -1.30930331587916     -0.25928521950382      0.73674038286705
  H   -1.53072784567103     -1.32251266162753      0.62196204806657
  H   -2.24812821904638      0.28902361448349      0.81755279609012
  H   -0.74175685616186     -0.10419260859355      1.65744550152994
  C   -0.17965897321202      1.64318210478410     -0.32747733128939
  N   0.14011050613366      2.76471917417466     -0.17836847428271
  N   1.78134896617843     -0.45931564120937      0.41161715811175
  H   1.43940852909678     -0.83909667329843      1.28304985220834
  H   2.07885670234900      0.49756132155400      0.55413447958859
