14
Coordinates from ORCA-job run
  C   -0.41704833150793      0.25253217123665     -0.14682583350250
  C   0.80120176127036     -0.69791324646484     -0.06700019629728
  Br  -0.67731711169782      0.77984992310835     -2.02662315018592
  H   0.85491925504649     -1.04011583598206      0.97314429245005
  H   0.57028118624874     -1.56815847358729     -0.68849506376444
  C   -1.69014638883548     -0.41666786885359      0.35390876141888
  H   -1.56401785115363     -0.69157304109477      1.40505563292836
  H   -2.54774414651294      0.25062374023297      0.26527363057389
  H   -1.88347564628585     -1.31862997233543     -0.22996993563560
  C   -0.12692211868834      1.46966836859391      0.60439500893012
  N   0.15021847988464      2.40907130562438      1.25479245639981
  N   2.08947627190278     -0.17362602326450     -0.44323270466440
  H   2.08310678445464      0.14326554488235     -1.40400177993139
  H   2.35646785587435      0.60167340790389      0.15057888128042
