14
Coordinates from ORCA-job run
  C   -0.39360675509321      0.39118465172337     -0.32351274704523
  C   1.11765203282222      0.04513951433573     -0.26972643804336
  Br  -1.15766987895815     -0.38955689542282     -1.96411779747647
  H   1.52577598295134      0.58043848435361      0.59522707037389
  H   1.59056980114786      0.46269913374778     -1.16186684656948
  C   -1.16845286544352     -0.14135463011877      0.87415779833951
  H   -2.22031683032012      0.13827697982974      0.81416833920445
  H   -1.10200517998784     -1.22917860671684      0.90863171863404
  H   -0.74411841227666      0.27653205476985      1.79227283940684
  C   -0.54243534606546      1.83876981587036     -0.42802079108491
  N   -0.63361615919360      3.01064072666918     -0.45628254522994
  N   1.47200628686296     -1.34761610921357     -0.15921529438959
  H   1.10034587578340     -1.88351967055360     -0.93234751928006
  H   1.15387144777079     -1.75345544927404      0.70963221316031
