14
Coordinates from ORCA-job run
  C   -0.40400099615965      0.39878509232216     -0.30252896229582
  C   1.10510302955224      0.03790997110929     -0.31163265248875
  Br  -1.23897068404566     -0.35581849662983     -1.92057529734878
  H   1.55146797778147      0.55977319343647      0.54255619123031
  H   1.54673141360102      0.46116820553566     -1.21700615021202
  C   -1.13648507524459     -0.14099764628250      0.91837911014113
  H   -2.18692430693585      0.14986208723093      0.90362756326695
  H   -1.08023550628383     -1.22974631308408      0.93716276413071
  H   -0.67170489652648      0.26114462855968      1.82388422273633
  C   -0.54030711248876      1.84891051135706     -0.38537595737820
  N   -0.60029347046958      3.02293141358091     -0.40822037307296
  N   1.44957752457194     -1.35918444388357     -0.23027295301307
  H   1.16077315214630     -1.77209597646309      0.64548504474378
  H   1.04326895050141     -1.88264222678909     -0.99448255043961
