14
Coordinates from ORCA-job run
  C   -0.41885522467847      0.25460550160650     -0.13710306668289
  C   0.80216663704552     -0.69432237203291     -0.09058371436517
  Br  -0.69816103152819      0.82367538636120     -2.00210876280821
  H   0.56760857276950     -1.55036631569438     -0.73019424912221
  H   0.86647441677895     -1.06087432998604      0.94067853434852
  C   -1.68561553548795     -0.42883613181591      0.36039312396531
  H   -1.54961246139510     -0.72454498097732      1.40456687489993
  H   -1.88128222303960     -1.31929565876535     -0.23999797357267
  H   -2.54593201752143      0.23734102828365      0.29268204437181
  C   -0.12466583143722      1.45534016367225      0.63861277025528
  N   0.15635515547630      2.38044369109350      1.30750569568851
  N   2.08576840865426     -0.15812092503232     -0.46633099202564
  H   2.06976445437657      0.18060979110976     -1.41957335058215
  H   2.35598667998687      0.60434515217737      0.14245306562958
