14
Coordinates from ORCA-job run
  C   -0.49816068253996      0.23541743942935     -0.44753662472182
  C   0.81394929796393     -0.55257452533023     -0.68406302472253
  Br  -1.59396379914499      0.06059549333192     -2.07086077284381
  H   0.54061016042435     -1.60037705074315     -0.83938729426667
  H   1.26639801006887     -0.19329158883838     -1.61136739562181
  C   -1.29911733449568     -0.28619111053509      0.73927670222489
  H   -0.72243848920703     -0.16095870976969      1.65886486157597
  H   -2.23671845438165      0.25942024313840      0.84715873517139
  H   -1.52201873930338     -1.34514213593215      0.59235561905475
  C   -0.18608633452289      1.65086754332262     -0.27259807141105
  N   0.09580510386613      2.77398327188257     -0.06894288175527
  N   1.79105623703424     -0.46530247469708      0.37615817255834
  H   1.45929741110794     -0.86475802057653      1.24245540835267
  H   2.09138761313012      0.48731162531744      0.53748656640496
