15
Coordinates from ORCA-job run
  C   -0.95223088276908      0.13167189984663      0.28533730622586
  C   0.40033457146781      0.66872695219505     -0.21010275372076
  Br  -0.89671661044239     -0.22309566207082      2.20808652813264
  H   0.25440207307453      0.88381288951200     -1.27821880895589
  H   -1.69625915381162      0.92412060391512      0.17979204750093
  C   -1.40554456930222     -1.11537068017317     -0.45324449708931
  H   -2.41664187191881     -1.38788804026420     -0.14847398242712
  H   -0.75286450761114     -1.96397974459277     -0.24712551216974
  H   -1.40996168254732     -0.92558997332117     -1.53162157614317
  C   1.57572360997437     -0.30175092110851     -0.06759758897740
  H   1.39004616914705     -1.21677629804704     -0.63158291736655
  H   1.73960521815702     -0.55748336983038      0.97929910683805
  H   2.48544159901884      0.15808264884167     -0.45728565593567
  C   0.71078224660484      1.94817696151212      0.43347467671694
  N   0.97288379095814      2.97534273358545      0.93826362737119
