15
Coordinates from ORCA-job run
  C   -0.96068052312026      0.24915500792781      0.14299683073118
  C   0.48850259365909      0.59978585229230     -0.23125825418097
  Br  -1.16847029901458      0.13480537052573      2.08458781300021
  H   0.49217145888249      0.69136544195769     -1.32670252963590
  H   -1.60219258245710      1.08402348241944     -0.14709734916100
  C   -1.44887337754199     -1.03636512126420     -0.50141738731432
  H   -2.51185716433085     -1.17815762393371     -0.30286227218007
  H   -1.30459649766934     -0.98487870235530     -1.58558545379772
  H   -0.91679257872984     -1.90626332704849     -0.11573060427221
  C   1.53361882895870     -0.44379054725194      0.17143174220087
  H   1.32098148343184     -1.40371614084941     -0.30087191081361
  H   2.52457242153909     -0.11953627815383     -0.15059096718360
  H   1.54888805871767     -0.57659689196043      1.25322969880443
  C   0.85015853352162      1.91790298148391      0.29758403844521
  N   1.15456964415347      2.97326649621044      0.71228660535749
