15
Coordinates from ORCA-job run
  C   -0.67279463594882     -0.41177028864819     -0.39457036398913
  C   0.49952959642303      0.46844456655187      0.07006073150007
  Br  -1.27833701718180      0.21196012691472     -2.15016719201008
  H   0.14203520898133      1.50426047303248      0.12031268230160
  H   -0.31112488147280     -1.42886816945194     -0.56649334532654
  C   -1.85108707946100     -0.40903843685189      0.56274069222611
  H   -2.22205569295372      0.60735654207135      0.71297492149454
  H   -1.54876105981121     -0.81969186321979      1.52928806588208
  H   -2.66641068390718     -1.01664689941128      0.16870869598860
  C   1.73513925621647      0.39549484137752     -0.83253525781983
  H   2.54323496564156      0.99982446236840     -0.41699904438757
  H   2.08546798540960     -0.63605762069296     -0.91367660522251
  H   1.49929247351551      0.76653113972641     -1.82913470887021
  C   0.86830783933577      0.06044334841105      1.43086451610979
  N   1.17656372521324     -0.29024222217776      2.50862621212308
