15
Coordinates from ORCA-job run
  C   -0.95820174736627      0.18101544813832      0.23376200061566
  C   0.43987302607414      0.64547040681615     -0.20532531176877
  Br  -1.01368880659937     -0.12603237653302      2.16467199538140
  H   0.35629502888024      0.84053036188196     -1.28394475538208
  H   -1.65973546794834      1.00224756191473      0.07209880891820
  C   -1.42999590683957     -1.06375565923905     -0.49707010331353
  H   -2.46718719543990     -1.28197342037335     -0.23997048142017
  H   -1.36916521135185     -0.90336073272806     -1.57848899668462
  H   -0.82921031903932     -1.93513905482358     -0.23551740553266
  C   1.56150017139228     -0.37228540611912      0.01775026145773
  H   2.50887050067368      0.03614854711351     -0.33802327393318
  H   1.36120737891211     -1.29275733174015     -0.53224449926793
  H   1.66343919650136     -0.60737024960461      1.07731037197202
  C   0.77655368003737      1.92541192826174      0.42420028845853
  N   1.06044567211345      2.95184997703454      0.91879110049944
