14

C	0.0	0.0	0.0
C	-0.374968	0.113401	-1.508675
Cl	1.787463	0.0	0.0
H	-0.043971	-0.814692	-1.982745
C	-0.447084	1.116912	0.831843
N	-0.572819	2.026058	1.567076
C	-0.472887	-1.287777	0.505769
N	-0.587934	-2.393021	0.892294
N	0.457794	1.18944	-2.173426
O	0.384157	2.315557	-1.696204
O	1.118576	0.855606	-3.153189
C	-1.77178	0.399323	-1.866469
N	-2.554895	0.682796	-2.706571
F	-2.324012	0.0	0.0
