13

C	0.0	0.0	0.0
C	-0.502209	0.174034	-1.437379
Cl	1.787659	0.0	0.0
H	-1.601133	0.181048	-1.378918
H	-0.158669	1.132835	-1.833684
C	-0.354668	1.21575	0.773284
N	-0.570576	2.189438	1.395054
N	-0.501937	-1.227906	0.533095
H	-1.526611	-1.163568	0.469513
H	-0.251187	-1.30454	1.512753
C	-0.044341	-0.902014	-2.309048
N	0.302086	-1.735601	-3.058754
Cl	-3.50521	0.0	0.0
