13

C	0.0	0.0	0.0
C	-0.46874	-0.296494	-1.441319
Cl	1.793671	0.0	0.0
H	-0.058965	0.437752	-2.139838
H	-1.566294	-0.221578	-1.413989
C	-0.390318	1.381251	0.337377
N	-0.633254	2.492653	0.626871
N	-0.483953	-0.893408	1.008629
H	-1.507705	-0.800146	0.993138
H	-0.241067	-1.843908	0.742979
C	-0.072029	-1.639288	-1.84635
N	0.232501	-2.728197	-2.163141
Cl	-3.467237	0.0	0.0
