13

C	0.0	0.0	0.0
C	-0.47563	-0.210456	-1.450387
Cl	1.792254	0.0	0.0
H	-0.165061	-1.212906	-1.76231
H	-1.574241	-0.170242	-1.405717
C	-0.377408	1.347887	0.464699
N	-0.580846	2.440751	0.843036
N	-0.499985	-0.975897	0.923543
H	-1.521386	-0.851116	0.930403
H	-0.297078	-1.900529	0.555377
C	0.040725	0.768009	-2.399328
N	0.449557	1.546553	-3.177673
Cl	-3.472792	0.0	0.0
