13

C	0.0	0.0	0.0
C	-0.201717	0.070829	-1.551858
Cl	1.842748	0.0	0.0
H	0.282017	-0.832473	-1.939204
H	0.395049	0.912695	-1.914384
C	-0.384997	1.261262	0.644101
N	-0.54872	2.31633	1.13318
N	-0.506654	-1.116489	0.705638
H	-0.334911	-1.957422	0.164351
H	-1.528198	-0.965513	0.748631
C	-1.496035	0.175771	-2.233698
N	-2.255058	0.276267	-3.127094
Cl	-3.338661	0.0	0.0
