13

C	0.0	0.0	0.0
C	-0.476112	-0.400372	-1.414535
Cl	1.793256	0.0	0.0
H	-0.081333	0.291443	-2.163907
H	-1.574255	-0.328364	-1.378317
C	-0.383252	1.406032	0.222683
N	-0.604234	2.55066	0.360273
N	-0.488846	-0.809314	1.073869
H	-1.511505	-0.701325	1.063978
H	-0.269504	-1.781151	0.875478
C	-0.071892	-1.763137	-1.732322
N	0.250356	-2.867066	-1.969119
Cl	-3.478744	0.0	0.0
