13

C	0.0	0.0	0.0
C	-0.500264	0.143148	-1.442048
Cl	1.786865	0.0	0.0
H	-0.151697	1.090674	-1.860368
H	-1.599501	0.156153	-1.38819
C	-0.35356	1.233118	0.746187
N	-0.573361	2.214516	1.354247
N	-0.5048	-1.214406	0.560085
H	-0.248997	-1.271532	1.539803
H	-1.530053	-1.146955	0.496564
C	-0.044374	-0.956092	-2.286504
N	0.293169	-1.820904	-3.004198
Cl	-3.50146	0.0	0.0
