13

C	0.0	0.0	0.0
C	-0.565283	0.011117	-1.4176
Cl	1.828498	0.0	0.0
H	-1.662623	0.080429	-1.272041
H	-0.334384	-0.945664	-1.896146
C	-0.35256	1.236764	0.714083
N	-0.535552	2.235719	1.303111
N	-0.513481	-1.115219	0.684787
H	-0.277337	-1.991757	0.243817
H	-0.310288	-1.118513	1.672399
C	-0.052883	1.096278	-2.242122
N	0.357338	1.953155	-2.931605
Cl	-3.682789	0.0	0.0
