13

C	0.0	0.0	0.0
C	-0.495979	0.139722	-1.445823
Cl	1.787588	0.0	0.0
H	-1.594636	0.15454	-1.398614
H	-0.143201	1.084835	-1.865427
C	-0.355184	1.233642	0.741998
N	-0.578104	2.216382	1.346861
N	-0.511071	-1.210487	0.559859
H	-0.25735	-1.271523	1.540365
H	-1.535754	-1.13514	0.495853
C	-0.039109	-0.963684	-2.283768
N	0.312763	-1.821335	-3.003881
Cl	-3.501335	0.0	0.0
