16

C	-0.582	0.017298	-1.391456
C	0.0	0.0	0.0
Cl	-2.319639	-0.370132	-1.438987
H	1.09001	0.0	0.0
C	-0.355157	1.286487	-2.077494
N	-0.185963	2.246322	-2.735662
N	0.19228	-1.023417	-2.283429
O	1.347061	-0.688123	-2.50039
O	-0.389377	-2.019152	-2.66912
N	-0.318826	-1.251095	0.68508
O	0.091602	-2.252458	0.085155
O	-0.906604	-1.25198	1.766634
N	-0.384584	1.152599	0.785844
O	0.175239	1.238216	1.885984
O	-1.136755	2.010612	0.292509
H	2.300003	0.0	0.0
