16

C	-0.504062	-0.007869	-1.426736
C	0.0	0.0	0.0
Cl	0.103324	1.44904	-2.217064
H	1.091256	0.0	0.0
C	-0.05839	-1.164887	-2.191872
N	0.309801	-2.047416	-2.875982
N	-2.067873	-0.043458	-1.546022
O	-2.607335	-0.804454	-0.759504
O	-2.59307	0.673312	-2.379744
N	-0.426882	-1.172409	0.805218
O	-0.774218	-0.95429	1.965504
O	-0.15917	-2.26205	0.308852
N	-0.455638	1.237327	0.709662
O	0.353664	1.739935	1.480714
O	-1.548268	1.715544	0.361191
H	2.389971	0.0	0.0
