13

C	0.0	0.0	0.0
C	-0.459461	-0.01529	-1.442716
F	1.356582	0.0	0.0
H	-1.551091	0.049653	-1.394674
H	-0.147	-0.975268	-1.868468
H	-0.003892	0.795226	-2.010178
N	-0.342651	1.385218	0.60546
O	-0.112721	2.353414	-0.119239
O	-0.718026	1.458383	1.765209
N	-0.561391	-0.972358	0.849664
H	-0.403459	-1.867538	0.396019
H	-1.594595	-0.739005	0.719716
F	-2.807018	0.0	0.0
