13

C	0.0	0.0	0.0
C	-0.495579	0.214707	-1.405048
F	1.355856	0.0	0.0
H	-0.238681	-0.683387	-1.971754
H	-1.581577	0.322196	-1.324456
H	-0.011976	1.085082	-1.845144
N	-0.255402	1.331043	0.82969
O	-0.35141	1.206729	2.049118
O	-0.242849	2.408801	0.24261
N	-0.590335	-1.088114	0.618139
H	-1.629954	-0.871811	0.460117
H	-0.392104	-1.050299	1.611518
F	-2.84908	0.0	0.0
