13
Coordinates from ORCA-job run
  C   0.90953902206592      0.47669142971707      0.43988830302716
  C   -0.26508866199005      0.01437069415023     -0.42259747657342
  Cl  0.71729128474357     -0.11236451877479      2.11446598568087
  H   -0.14245041202520      0.44296081949935     -1.42131524617910
  H   0.90753487871575      1.56600655911466      0.48906585201712
  C   2.16475098705780      0.00380344002104     -0.12923466239481
  N   3.18072059341204     -0.34411253907802     -0.60353628741778
  N   -1.50845170161034      0.75206944129469      0.13027014477187
  O   -1.43517478850201      1.97638848140003      0.15954549072032
  O   -2.46507554459853      0.06890154024888      0.47354084865282
  N   -0.38350289576189     -1.38309200594512     -0.48567399664929
  H   -1.07736916292561     -1.67497306701307     -1.15895755752716
  H   -0.60172359858145     -1.78665027463495      0.41553860187142
