13
Coordinates from ORCA-job run
  C   0.83715889676926      0.54480018177457      0.50092268178373
  C   -0.20350754735116     -0.04082698746239     -0.45348771856830
  Cl  0.41700452240856      0.15199796574721      2.19156264628202
  H   0.05439494332494      0.26997893883592     -1.46989855285663
  H   0.82254370024574      1.63216149687535      0.41977574693029
  C   2.16186395003146      0.03619175838915      0.16996895138576
  N   3.23146567365389     -0.34894131534546     -0.12337813063850
  N   -1.51552446190577      0.72978136501071     -0.16807896584652
  O   -1.45335653964314      1.95024646107809     -0.27543740778287
  O   -2.50636188135604      0.07096755338504      0.12127333474663
  N   -0.30524521348323     -1.43813636456941     -0.36544122305875
  H   -0.89833222816000     -1.82176554288506     -1.08719764297836
  H   -0.64210381453451     -1.73845551083372      0.53941628060151
