13
Coordinates from ORCA-job run
  C   0.95932505321280      0.55665748551685      0.35183156280966
  C   -0.31474709462765      0.03882510564633     -0.33358082304799
  Cl  0.94410858101986      0.13752949813082      2.07804538430166
  H   -0.34941903669664      0.46078062208182     -1.34584137197413
  H   1.01348270075731      1.64368959025301      0.27788353281369
  C   2.10663986925855     -0.04786563622506     -0.31488240288362
  N   2.97759638703180     -0.56249244517292     -0.91084827993542
  N   -1.49309790621375      0.70200484863052      0.36781376866645
  O   -1.39357415394626      1.91042292906110      0.53865582747562
  O   -2.44742124589203      0.00165303169927      0.68270453663032
  N   -0.40675449045153     -1.38308939529762     -0.29028701377128
  H   -1.29041036668501     -1.67232185330487      0.10954771688152
  H   -0.30472829676742     -1.78379378101925     -1.21104243796649
