13
Coordinates from ORCA-job run
  C   1.10402032379845     -0.06691840137676      0.25525403024511
  C   -0.20674817342424      0.07202493969496     -0.53058736773697
  Cl  2.47928404585283     -0.12976875787838     -0.86798581755589
  H   -0.19071105443385      0.97381389587768     -1.14266408145830
  H   1.08418492909961     -1.00955519623156      0.80794077936665
  C   1.27969347595653      1.03433909058326      1.19703648103025
  N   1.40840441475483      1.92160749689049      1.95564099610914
  N   -1.28711521621593      0.31959328094101      0.52375678332865
  O   -1.51447422290610     -0.62787980731401      1.27532964136889
  O   -1.83973325189493      1.41414089891110      0.53667449548697
  N   -0.45531020221485     -1.08074688137107     -1.31076299633371
  H   -1.20567658211083     -0.93703317216517     -1.97220219817662
  H   -0.65581848626154     -1.88361738656156     -0.72743074567418
