13
Coordinates from ORCA-job run
  C   0.79815681720973      0.52938341422066      0.47779449773525
  C   -0.31455829712622      0.01016178414658     -0.46160397854719
  Cl  0.40461032287131      0.16078276572917      2.17548802521776
  H   -0.05608550891770      0.32874264870758     -1.47464029273705
  H   0.87280624291725      1.61484213242561      0.38971458823850
  C   2.05672463281025     -0.09930578034822      0.09793339515074
  N   3.04285129659164     -0.62865536904149     -0.25857949033137
  N   -1.54669570173928      0.82475496968151     -0.10272015707591
  O   -2.49720798791343      0.24453313611925      0.40075758000756
  O   -1.45237683803600      2.02981303845703     -0.32235875291228
  N   -0.61853158485433     -1.36926222344101     -0.44906836554343
  H   -0.75768509714028     -1.73492093640903      0.48253847527687
  H   0.06799170332705     -1.91086958024763     -0.95425552447945
