17

C	0.0	0.0	0.0
C	-0.536541	-0.16081	-1.439495
Cl	1.790086	0.0	0.0
H	-1.627343	-0.226806	-1.254786
C	-0.367363	1.361092	0.465557
N	-0.562789	2.430991	0.912032
N	-0.532954	-1.042859	0.81373
H	-1.568809	-0.875704	0.6804
H	-0.289077	-0.854872	1.781373
N	-0.084127	-1.474291	-1.990383
O	0.970929	-1.50389	-2.63209
O	-0.805628	-2.451334	-1.798119
C	-0.153922	0.957528	-2.381801
H	-0.530797	0.737146	-3.383222
H	-0.622726	1.88182	-2.039674
H	0.926192	1.092732	-2.443643
F	-2.770216	0.0	0.0
