17

C	0.0	0.0	0.0
C	-0.418681	-0.48995	-1.42745
Cl	1.798849	0.0	0.0
H	0.457346	-0.363	-2.068739
C	-0.344074	1.408359	0.29888
N	-0.481013	2.495629	0.725941
N	-0.48349	-0.88631	1.016537
H	-1.522591	-0.708946	0.878197
H	-0.197441	-0.503506	1.91242
N	-1.412682	0.397432	-2.138661
O	-2.29189	-0.135327	-2.801157
O	-1.149628	1.596798	-2.158611
C	-0.887694	-1.926265	-1.440742
H	-0.193775	-2.545599	-0.874577
H	-0.958545	-2.285123	-2.467811
H	-1.868439	-1.942117	-0.971789
F	-2.585732	0.0	0.0
