17

C	0.0	0.0	0.0
C	-0.218515	0.55847	-1.454257
Cl	1.83342	0.0	0.0
H	0.306979	-0.166776	-2.074072
C	-0.364568	0.914308	1.099714
N	-0.572581	1.51022	2.091396
N	-0.618404	-1.270518	0.071785
H	-0.417016	-1.665232	0.987186
H	-1.669066	-0.934977	0.068384
N	0.550026	1.832908	-1.654275
O	1.308195	1.885403	-2.62328
O	0.319818	2.76959	-0.893375
C	-1.590727	0.836899	-2.041248
H	-1.425135	1.17531	-3.071824
H	-2.125071	1.580842	-1.460224
H	-2.201787	-0.056773	-2.011147
F	-2.807651	0.0	0.0
