14

C	0.0	0.0	0.0
C	-0.341834	0.347328	-1.483373
F	1.351121	0.0	0.0
H	0.578695	0.053176	-2.00576
C	-0.463634	0.932972	1.023472
N	-0.476193	1.750961	1.871845
N	-0.342133	-1.437527	0.343329
O	-0.296472	-2.22384	-0.59605
O	-0.440343	-1.70958	1.53064
C	-0.434614	1.802976	-1.631705
N	-0.410818	2.962445	-1.818962
C	-1.412881	-0.314822	-2.240802
N	-1.991373	-0.74483	-3.171586
Cl	-2.864152	0.0	0.0
