16

C	-0.008917	0.009882	0.029691
C	-0.479493	0.023506	-1.424694
F	1.398269	-0.095122	0.021165
H	-0.21128	0.945595	-1.937988
H	-1.593459	-0.105043	-1.348049
C	-0.395781	1.331394	0.653166
H	0.086073	2.162452	0.131803
H	-1.48503	1.423482	0.59242
H	-0.085234	1.320423	1.699115
N	-0.534766	-1.058274	0.826003
H	-0.316179	-1.92478	0.344476
H	-1.559579	-0.949031	0.735854
N	0.085914	-1.059772	-2.24387
O	0.52913	-0.765705	-3.359263
O	0.060171	-2.21357	-1.806001
H	-3.077701	-0.254782	-0.302026
