16

C	-0.025704	0.01731	0.01078
C	-0.488482	0.060845	-1.447088
F	1.378642	-0.136862	-0.01837
H	-0.20957	-0.871466	-1.936223
H	-1.583126	0.182355	-1.417416
C	-0.356708	1.263579	0.793298
H	-1.441848	1.394549	0.777413
H	0.132664	2.140395	0.370821
H	-0.023701	1.105464	1.820188
N	-0.603405	-1.11719	0.660861
H	-1.643446	-0.973445	0.57063
H	-0.394611	-1.942418	0.102917
N	0.134973	1.136709	-2.251333
O	-0.229317	2.2975	-2.049472
O	0.987967	0.815829	-3.084346
H	-3.124284	-0.429848	-0.082953
