15

C	-0.384783	-0.007786	-1.462638
C	0.0	0.0	0.0
Cl	-0.102771	-1.585609	-2.20259
H	1.093961	0.0	0.0
H	0.186962	0.727538	-2.019925
N	-1.840507	0.347857	-1.706816
O	-2.640741	0.147498	-0.794035
O	-2.12153	0.795145	-2.814384
N	-0.480491	-1.078364	0.782186
H	0.135714	-1.203594	1.571802
H	-1.422577	-0.90886	1.104878
N	-0.385242	1.350736	0.524492
O	-0.307774	2.310308	-0.247132
O	-0.697706	1.447766	1.711246
F	2.508926	0.0	0.0
