15

C	-0.598892	-0.08457	-1.380983
C	0.0	0.0	0.0
Cl	-2.383293	-0.055698	-1.360402
H	1.091302	0.0	0.0
H	-0.295266	-1.042498	-1.793627
N	-0.069868	0.943039	-2.365591
O	-0.788857	1.850905	-2.759204
O	1.087551	0.72986	-2.706072
N	-0.375382	-1.166619	0.739674
H	-1.21367	-1.007869	1.28409
H	0.389582	-1.370889	1.370567
N	-0.41914	1.275347	0.656331
O	-0.254697	2.308976	0.009293
O	-0.857478	1.235656	1.808965
F	2.500093	0.0	0.0
