15

C	-0.442618	0.018835	-1.451335
C	0.0	0.0	0.0
Cl	0.188312	-1.385482	-2.315005
H	1.096688	0.0	0.0
H	-0.114553	0.917369	-1.958786
N	-1.94974	0.015637	-1.576366
O	-2.474487	1.056034	-1.971494
O	-2.558902	-0.995864	-1.224576
N	-0.396142	-1.10551	0.791844
H	0.387886	-1.733183	0.882316
H	-1.2269	-1.580815	0.472393
N	-0.437796	1.305556	0.614187
O	-0.360526	2.307269	-0.10627
O	-0.770958	1.331764	1.79417
F	2.507908	0.0	0.0
