15

C	-0.595418	0.000586	-1.39504
C	0.0	0.0	0.0
Cl	0.045473	1.306248	-2.396165
H	1.08916	0.0	0.0
H	-1.681675	0.072377	-1.393914
N	-0.299276	-1.329537	-2.037118
O	-1.277964	-2.058468	-2.206656
O	0.857226	-1.592741	-2.326172
N	-0.47708	-1.147893	0.703558
H	-1.416863	-1.029335	1.060728
H	0.175839	-1.367846	1.442924
N	-0.523158	1.281255	0.637086
O	-1.750357	1.34906	0.808832
O	0.265506	2.159103	0.968056
F	2.5426	0.0	0.0
