15

C	-0.397851	-0.005322	-1.453587
C	0.0	0.0	0.0
Cl	-0.092591	-1.56781	-2.213078
H	1.094024	0.0	0.0
H	0.151321	0.747014	-2.009517
N	-1.862473	0.322081	-1.679677
O	-2.63891	0.147032	-0.74192
O	-2.17485	0.736932	-2.791701
N	-0.486077	-1.074118	0.783481
H	0.139352	-1.208036	1.567552
H	-1.426439	-0.902013	1.115923
N	-0.37328	1.35341	0.531498
O	-0.316338	2.313399	-0.246011
O	-0.662051	1.448705	1.725075
F	2.510964	0.0	0.0
