15

C	-0.573446	-0.053679	-1.410104
C	0.0	0.0	0.0
Cl	0.065401	1.233668	-2.423337
H	1.089078	0.0	0.0
H	-1.65935	0.007086	-1.422264
N	-0.251905	-1.401445	-2.003604
O	0.780976	-1.56425	-2.630981
O	-1.091246	-2.273954	-1.760411
N	-0.407695	-1.084532	0.84447
H	0.389925	-1.690734	0.975289
H	-1.206694	-1.603672	0.509208
N	-0.556449	1.260751	0.619145
O	-1.71832	1.582233	0.333368
O	0.146961	1.858751	1.423909
F	2.541016	0.0	0.0
