15

C	-0.53741	-0.065883	-1.407038
C	0.0	0.0	0.0
Cl	-2.31754	0.039822	-1.479476
H	1.091325	0.0	0.0
H	-0.252638	-1.037148	-1.799816
N	0.083206	0.927456	-2.371982
O	1.220575	0.624746	-2.708942
O	-0.552028	1.900775	-2.751214
N	-0.428129	-1.160629	0.712721
H	0.251172	-1.33955	1.440279
H	-1.332626	-1.015375	1.142963
N	-0.422048	1.283247	0.645559
O	-0.939049	1.242401	1.764703
O	-0.180393	2.318761	0.028117
F	2.499324	0.0	0.0
