16
Coordinates from ORCA-job run
  C   0.88926703311114     -0.39340546094886      0.23408023895079
  C   -0.58570769825493      0.06757008991780      0.19844702394926
  Cl  1.18436545740680     -1.72972873251716     -0.87250243556368
  H   -0.64508649552969      0.84442601779206      0.96748287307149
  N   1.74098229825344      0.82895495218238     -0.16532461988155
  O   2.28585537937418      0.84354351140446     -1.25534390366826
  O   1.71807315020197      1.72736780982280      0.66787090151338
  C   1.28105716448084     -0.77639159505448      1.58394822698134
  N   1.59880602466093     -1.07578061211451      2.67477966754856
  N   -1.38526225740560     -1.05788979437126      0.64129390136872
  H   -1.63085736523910     -1.65640907955284     -0.13758817952304
  H   -2.23663484689853     -0.73811230522258      1.08256647388428
  C   -0.96792467883522      0.66570012318519     -1.15163706284329
  H   -2.01908176447171      0.95927322106566     -1.11437539844761
  H   -0.38281112193040      1.55407001055184     -1.39921032446675
  H   -0.84404027892412     -0.06418815614050     -1.95448738287366
