16
Coordinates from ORCA-job run
  C   0.75675145202404     -0.50348027151355      0.41740838165497
  C   -0.47815490774487      0.37799672325146      0.12097592648324
  Cl  0.38076644995706     -2.21838353506407      0.29955859155712
  H   -0.12669249697654      1.40105017159149      0.28892931887270
  N   1.83061325083822     -0.11902636406980     -0.62110412714207
  O   2.10244230547251     -0.90257738520854     -1.51430183686002
  O   2.26509729629602      1.01702237099735     -0.46960430588783
  C   1.29974444404601     -0.20792926302434      1.73657700738879
  N   1.74123522501182      0.03760796585506      2.79732810844094
  N   -1.46277163810036      0.07275091980212      1.14052632462000
  H   -2.04940591036459      0.87538870058712      1.32178062264811
  H   -2.05157358207242     -0.70024558165513      0.85648083479307
  C   -0.95052888528474      0.23805482092670     -1.32241836123627
  H   -0.19252232540097      0.54729499126686     -2.04524640403424
  H   -1.82523643154614      0.87632389219497     -1.46322407269700
  H   -1.23876424615506     -0.79184815593770     -1.54366600860152
