16
Coordinates from ORCA-job run
  C   0.72569902603833     -0.28897856592706      0.73247827421210
  C   -0.71494638976350     -0.07831036520159      0.20432604547317
  Cl  0.74313963364931     -1.60075388945583      1.91818249740369
  H   -1.31555929316811      0.03052226337490      1.12068913621624
  N   1.62452489169631     -0.66099783357954     -0.46300959603208
  O   1.92291009862518     -1.82642407562247     -0.63239018383088
  O   1.91538869962774      0.29789352445020     -1.16849987817553
  C   1.26973309115818      0.91486243269106      1.34478617891938
  N   1.66057359502223      1.89289241557392      1.86649201582333
  N   -1.05351143749489     -1.23940680158756     -0.59575149305308
  H   -1.22849593852423     -2.05304077232244     -0.01979561444311
  H   -1.88230793878393     -1.05197144885149     -1.14419086120130
  C   -0.87398781227400      1.18226169193161     -0.63296886287340
  H   -0.50806474029522      2.06813368061946     -0.11321939426585
  H   -0.34755609008473      1.08482927480033     -1.58184895583640
  H   -1.93853939542867      1.32848846910648     -0.83527930833623
