16
Coordinates from ORCA-job run
  C   0.73416686755585     -0.05940202737723      0.62710561145719
  C   -0.71215903429180     -0.16398625193953      0.06768351098986
  Cl  0.75144061184422      0.26949916111911      2.36505596197587
  H   -1.20873978633130     -0.89240701738161      0.71599747566427
  N   1.38488465355892     -1.43052590160198      0.40658724544711
  O   2.34049437764953     -1.48407900817188     -0.35738003085287
  O   0.83711356145177     -2.36691795832469      0.96960031752450
  C   1.50604634791285      0.94708747690900     -0.08633663161604
  N   2.03668917183640      1.80738539759260     -0.68678356810514
  N   -0.74939470861666     -0.66376379256597     -1.28422192344467
  H   -0.41521733656196     -1.61346651843730     -1.37395050343085
  H   -0.26583315378902     -0.06057208604179     -1.93777833059114
  C   -1.42003966278720      1.17935150739149      0.14101370720188
  H   -0.94591025645869      1.90257004241133     -0.52809646529631
  H   -2.45003174599676      1.03849523366357     -0.18716325420936
  H   -1.42150990697616      1.58973174275488      1.15066687728570
