16
Coordinates from ORCA-job run
  C   0.83597123725724     -0.40095740576655      0.14396895931770
  C   -0.63801953476416      0.12508042980882      0.18363021835180
  Cl  1.08035085388192     -1.59540279557455     -1.12425113368443
  H   -0.64174279622663      0.83614906786495      1.01658284952564
  N   1.74052954228879      0.82083927878808     -0.08514777064029
  O   1.78011581718255      1.58013986631651      0.87666471118638
  O   2.25922729934754      0.97762064912440     -1.17678797282856
  C   1.18941609281414     -0.97728838060493      1.43429047126565
  N   1.39056615811606     -1.46289431577680      2.48579610048798
  N   -1.60311927695856     -0.90279418388007      0.47329224409975
  H   -1.61479143599553     -1.61579107918590     -0.24494317167060
  H   -1.44393185782258     -1.33733851911154      1.37383976531772
  C   -1.00173900614987      0.85231453710567     -1.10096383838806
  H   -0.95843019274869      0.18196336076484     -1.96179872913094
  H   -2.02461250585176      1.21505722310161     -0.99879319653578
  H   -0.34879039437045      1.70430226702545     -1.29537950667395
