16
Coordinates from ORCA-job run
  C   0.73261570184474     -0.28795955523829      0.72512288462434
  C   -0.71235050099911     -0.08433138536865      0.20823898604423
  Cl  0.76818180017700     -1.60651930678476      1.90301417324410
  H   -1.30729288275870      0.01771433870878      1.12916462700101
  N   1.62743140870505     -0.64584109197843     -0.47753147676476
  O   1.93197142469395     -1.80826011724700     -0.65680328298912
  O   1.90837446246058      0.31949959816705     -1.17822565563400
  C   1.27073975826075      0.91642818160747      1.34169070869669
  N   1.65659559419557      1.89424510126710      1.86755236455603
  N   -1.05073670074828     -1.24450817646461     -0.59367056841090
  H   -1.88607982855095     -1.06000867556837     -1.13338116117916
  H   -1.21561115713540     -2.06101525594167     -0.01856914607045
  C   -0.88521376359605      1.17860372368654     -0.62293460545541
  H   -1.95189452563977      1.31730412976798     -0.81929066737829
  H   -0.52408143747077      2.06493703525318     -0.10065976267359
  H   -0.36264935343862      1.08971145613367     -1.57471741761070
