16
Coordinates from ORCA-job run
  C   0.75285700671349     -0.29844645273300      0.69937312806274
  C   -0.70634361293298     -0.08778497799962      0.22713823025065
  Cl  0.82218018237165     -1.63385164171483      1.85672969669815
  H   -1.27498201329116     -0.00176049251318      1.16615826271907
  N   1.61227013066015     -0.63907053471411     -0.53369555035909
  O   1.91008647235197     -1.79902506542992     -0.73846322213796
  O   1.87283712641935      0.33580965692483     -1.22889006313952
  C   1.30953489696047      0.89683450502990      1.31738017808107
  N   1.71295333520392      1.86621961669977      1.84566959197704
  N   -1.06658601843074     -1.23470889276193     -0.58407834674744
  H   -1.21215299304405     -2.06144526707039     -0.01839569112917
  H   -1.91857790328428     -1.04307641706623     -1.09450598487116
  C   -0.90297128811236      1.18882874571405     -0.57743584783966
  H   -1.97458543757988      1.32848584126241     -0.74393661949473
  H   -0.40500025584674      1.11709352115838     -1.54367356501629
  H   -0.53051962815880      2.06689785521387     -0.04937419705368
