16
Coordinates from ORCA-job run
  C   0.83728687538664     -0.06966978151833      0.55032434689041
  C   -0.63592265449775     -0.17156253214380      0.11947105004500
  Cl  1.00612687064991      0.25247990795469      2.28743207117087
  H   -1.08104907590256     -0.91249535519384      0.78907677500852
  N   1.49126584095354     -1.43449748215134      0.29226958696604
  O   0.84341858675765     -2.40406360476570      0.65856570908513
  O   2.59803945187915     -1.43747748534544     -0.22484734777585
  C   1.54512907284520      0.94178841319290     -0.22078777173257
  N   2.02982916242575      1.81917054477251     -0.83428318669460
  N   -0.59961234572160     -0.66285954292605     -1.24703351130758
  H   -0.99468391293433     -0.00414542286330     -1.90264371084412
  H   -1.05297067641672     -1.55901724905946     -1.34572207918866
  C   -1.35498747274630      1.16165829665834      0.25214705191819
  H   -0.92753015790740      1.89644351066629     -0.43576380288529
  H   -2.40776734023531      1.02294500307064     -0.00231729123768
  H   -1.29657222453589      1.56330277965188      1.26411211058221
