16
Coordinates from ORCA-job run
  C   0.86821918164952     -0.30781353579093      0.38948482158984
  C   -0.58204094813767      0.16664616612292      0.14285740573018
  Cl  1.09963099780591     -1.98448179975170     -0.09219904101329
  H   -0.60448194102208      1.18620559461463      0.54085075519436
  N   1.78020522428432      0.61759819223384     -0.44234982494352
  O   2.32533839182866      0.17585826974615     -1.43880614182671
  O   1.80215551815153      1.77188668833626     -0.03134156666682
  C   1.23759320489786     -0.14178700088570      1.78888581338149
  N   1.53737629504929      0.00134540017889      2.91586556499855
  N   -1.43698268226498     -0.65472983339921      0.97771291357723
  H   -2.27225630783071     -0.14848255098225      1.23819387734777
  H   -1.71079637541418     -1.50080587429996      0.49362750348403
  C   -0.93181218155808      0.19749990762631     -1.34137431795216
  H   -1.96747014290622      0.52770514615865     -1.44566657864833
  H   -0.84206952322355     -0.79531244302183     -1.78729974556180
  H   -0.30360871130963      0.88866767311390     -1.90744143869082
