16
Coordinates from ORCA-job run
  C   0.79667309922528     -0.29053394339884      0.66546334304815
  C   -0.70096281134949     -0.13486965838317      0.31082785112861
  Cl  1.11071243240944     -1.71643275541937      1.65825092538862
  H   -1.16272609448467      0.11825832448327      1.27218339974873
  N   1.64316879335210     -0.44110292808902     -0.60895918929909
  O   1.17739317512519     -1.16418159633105     -1.47956425465182
  O   2.71298070226476      0.15166262486693     -0.64435137246652
  C   1.26882220569800      0.89640907876247      1.37173178928223
  N   1.56005256846125      1.86753613736197      1.96629513698019
  N   -1.27909078197029     -1.38981835599955     -0.11390865982744
  H   -2.27986176481554     -1.36993616790430      0.02644080438530
  H   -1.08132407231202     -1.57108584481321     -1.08818349002953
  C   -0.89052735913118      1.04412406421994     -0.64924961804878
  H   -1.96004109099022      1.23201603354342     -0.76376592243799
  H   -0.48741063984715      0.80704108562305     -1.63624952976635
  H   -0.42585836163545      1.96491390147748     -0.28796121343430
