16
Coordinates from ORCA-job run
  C   0.72585593040397     -0.27710274333868      0.69078723159344
  C   -0.77269578965336     -0.06277307009014      0.26782583841479
  Cl  0.90377370860977     -1.71872561559900      1.69564120134187
  H   -1.27002068693244      0.18970288423483      1.21115706832872
  N   1.54307581121575     -0.45252410174415     -0.58719115232870
  O   1.40691222630028     -1.51627931338899     -1.17653508095516
  O   2.18151656940269      0.52268049434688     -0.96554525179632
  C   1.23228977388335      0.87696424116658      1.41793117071469
  N   1.55332369691055      1.81521948606699      2.04932457076769
  N   -1.43694870910819     -1.20783612670509     -0.28928684053249
  H   -1.44374517344030     -1.98959289622268      0.35246140325865
  H   -0.99874891506939     -1.50595436079044     -1.15192494539716
  C   -0.87461968712334      1.11550494316630     -0.69200882061557
  H   -0.37031846636477      2.00645972587048     -0.31518873999526
  H   -1.93082052666202      1.34044110833077     -0.83964611059643
  H   -0.44682976237255      0.86481534469634     -1.66680154220275
