16
Coordinates from ORCA-job run
  C   0.75793117442102     -0.08101708244119      0.59498155575312
  C   -0.71075712791541     -0.15872629401763      0.09272844351410
  Cl  0.84955514006195      0.20695062777655      2.33788637142009
  H   -1.18855944413006     -0.89704346214804      0.74394247833614
  N   1.38493538180098     -1.45293945892278      0.31680545588820
  O   0.85016258147128     -2.39701215848245      0.87959632298396
  O   2.30872502931041     -1.49795766582229     -0.48586834128895
  C   1.51113230203978      0.93417983771072     -0.12622682271283
  N   2.02659881054561      1.80277034300675     -0.72786348324424
  N   -0.80774268165503     -0.62609155630930     -1.26770436086887
  H   -0.34598829596352     -0.01138869428659     -1.92627114035055
  H   -0.48610543540691     -1.57602269237418     -1.39355054331144
  C   -1.40092586524657      1.18925609640493      0.22591298258690
  H   -1.35739006171452      1.57519815393953      1.24424222920820
  H   -0.94675998731510      1.92395399423786     -0.44450854072597
  H   -2.44481152030392      1.06589001172814     -0.06310260718786
