16
Coordinates from ORCA-job run
  C   0.81627278051725     -0.27823957366977      0.63661714595009
  C   -0.69117129826392     -0.15304422521858      0.31810794603475
  Cl  1.17219742082209     -1.69606577903060      1.62990395805146
  H   -1.13434699872427      0.06087366599397      1.29771684031375
  N   1.65357298947147     -0.42225727952427     -0.64465851765956
  O   1.13836768067022     -1.04573636062771     -1.56394718205582
  O   2.77590878083953      0.06393012344602     -0.62935517525348
  C   1.28529839156229      0.91722254011727      1.33115510159148
  N   1.57661345495351      1.89293214082450      1.91795075976208
  N   -1.24331534866960     -1.41389971101948     -0.12551616784751
  H   -1.08990002783975     -1.54848686779792     -1.11512969498298
  H   -2.23527499638638     -1.43994451153352      0.06606906335137
  C   -0.94370628793191      1.04469727762665     -0.60299628673951
  H   -2.02168174257826      1.19832280915815     -0.68534999230212
  H   -0.50267289656219      1.97036043309448     -0.22519543831114
  H   -0.55716190188009      0.85033531816082     -1.60537235990286
