16
Coordinates from ORCA-job run
  C   0.82433028381718     -0.54280011814828      0.15366581684584
  C   -0.54304799435607      0.19726852028218      0.15583007049154
  Cl  0.87845341887443     -1.87327312809568     -0.98346396465211
  H   -0.38440922205901      1.04994116253026      0.83065750679363
  N   1.88833198036827      0.51577014638448     -0.20022498831758
  O   2.08273745210586      1.33550497060535      0.69044245795320
  O   2.38039424385354      0.50653327759431     -1.31587925288046
  C   1.12091793104569     -1.02450323282797      1.49748722789460
  N   1.29285652409907     -1.41079874326588      2.59407175994658
  N   -1.53621942790061     -0.73753068528080      0.64068348165508
  H   -1.62244248504904     -0.70408094348587      1.64791924672251
  H   -2.44047675994939     -0.55696235574025      0.22808516871307
  C   -0.90644436133982      0.71174859155754     -1.22675552287341
  H   -1.79732188112491      1.33918520482821     -1.14663739505426
  H   -0.11219220226894      1.31498315173060     -1.66789548019012
  H   -1.12446750011624     -0.12098581866819     -1.89698613304812
