16
Coordinates from ORCA-job run
  C   0.71447045839737     -0.12523753279247      0.63726983487696
  C   -0.71976121524812     -0.14636000206185      0.03947477923615
  Cl  0.69866367005806      0.07872306403985      2.39431347989616
  H   -1.25295117070036     -0.90269721787044      0.62347679427673
  N   1.33268494924527     -1.49652258644927      0.33500700670016
  O   0.73862728242561     -2.45426390559983      0.80803443518876
  O   2.31692462874968     -1.52389438466946     -0.39324114891016
  C   1.53224119020244      0.90530959520695      0.01448683004358
  N   2.11376607173368      1.78135909762017     -0.51197932386860
  N   -0.73726154770261     -0.54903078229284     -1.34490327918750
  H   -0.42430384971995     -1.49847719245006     -1.49421349762560
  H   -0.22445462624087      0.08615175721463     -1.94363347211330
  C   -1.38985236176022      1.20966257414335      0.19125681012255
  H   -0.87793848735424      1.96327300637679     -0.41341030179840
  H   -2.41479311800959      1.12423819732967     -0.17018757484349
  H   -1.40506187407615      1.54776631225481      1.22724862800600
