16
Coordinates from ORCA-job run
  C   0.75472362367637     -0.28863568187957      0.65376189996406
  C   -0.76140160122432     -0.07550786974054      0.29653810584244
  Cl  0.98289017127824     -1.75292208992204      1.61465295088646
  H   -1.22155790662590      0.15016084705651      1.26523746558746
  N   1.52098373988380     -0.42583845977665     -0.65962111934156
  O   2.13807873935346      0.56273753138158     -1.03861763807759
  O   1.36826326147093     -1.47589413452050     -1.26931047576757
  C   1.28218196153762      0.85093294374486      1.38880447612297
  N   1.62340298444668      1.77630905910107      2.02864278619044
  N   -1.43974083939032     -1.21161098057615     -0.26113407235008
  H   -1.03516963960759     -1.48624329553506     -1.14761173094529
  H   -1.41705160433316     -2.00844969072073      0.36138075539997
  C   -0.90928260304786      1.12530989740991     -0.62877291722307
  H   -0.39776180460124      2.01071048604041     -0.24891843541545
  H   -0.51748282515980      0.90326123156815     -1.62523692689374
  H   -1.97207565765690      1.34468020636874     -0.72979512397946
