16
Coordinates from ORCA-job run
  C   0.76653866471453     -0.52639454364146      0.12516644802120
  C   -0.59118087362969      0.24814630752450      0.21354481320873
  Cl  0.70418207311534     -1.84441265813367     -1.03847230794594
  H   -0.40842655724480      1.01336616219295      0.97545353217870
  N   1.83995425840404      0.49735720151142     -0.27769425092427
  O   2.08428824085363      1.31397311011726      0.60365166688114
  O   2.28645083466068      0.47300143695828     -1.41140986378695
  C   1.12254412772595     -1.04847650394834      1.43772236607201
  N   1.32471587931789     -1.47493495932777      2.51434335407608
  N   -1.68700748484971     -0.57091558066275      0.66063773117598
  H   -1.52960851020767     -0.95409008246855      1.58453281635877
  H   -1.87535085087040     -1.32582474678392      0.01344360206268
  C   -0.93199789976921      0.92160607264600     -1.10622784645904
  H   -0.16436826973709      1.62929515926934     -1.42247841668116
  H   -1.07122715247115      0.18649421508627     -1.90157705880002
  H   -1.86850648001235      1.46280940966044     -0.97063658543790
