16
Coordinates from ORCA-job run
  C   0.85016161869383     -0.33071671439496      0.21204068096216
  C   -0.64419361511381      0.13308311641818      0.16426439350665
  Cl  1.13425031067170     -1.75189014543927     -0.78506143948076
  H   -0.67350138797844      0.99788198903300      0.83510480255430
  N   1.70259989776565      0.85184870411804     -0.27897089609779
  O   1.67891600215457      1.81179564899543      0.48322534324352
  O   2.25050053795995      0.77970188510949     -1.36502197908817
  C   1.23840758402684     -0.61154086130781      1.58774699753165
  N   1.47540211712412     -0.85222984251790      2.71379763995143
  N   -1.56480379140713     -0.85183034646819      0.66850503294642
  H   -1.54447809131657     -1.69884716429457      0.11482019962008
  H   -1.38719769283730     -1.08254212963391      1.63827685938928
  C   -1.04113895252734      0.56929920134403     -1.23705186035150
  H   -0.96973587654616     -0.25821046162337     -1.94584916498295
  H   -0.42650964166036      1.39248655784186     -1.60450626785753
  H   -2.07867901900954      0.90171056281995     -1.20032034184677
