16
Coordinates from ORCA-job run
  C   0.77425926272102     -0.29200421967348      0.67887523310419
  C   -0.69909862386649     -0.09923341516471      0.24434048739061
  Cl  0.89098304511890     -1.63293176055861      1.82575950629637
  H   -1.24554988025596     -0.02695373456698      1.19753200380812
  N   1.60718999791715     -0.61350949292796     -0.57763510210324
  O   1.83742200002751      0.36915069469044     -1.27265612217538
  O   1.91675549523533     -1.76780066037471     -0.79637431945330
  C   1.32932628264732      0.90761791838956      1.28971933852502
  N   1.73035243055070      1.88047602230380      1.81338050341200
  N   -1.06300952485795     -1.24644901591336     -0.56500031295495
  H   -1.18249085537417     -2.07864677438695     -0.00129493513995
  H   -1.92976452539728     -1.06405073900421     -1.05343095514087
  C   -0.93416658115054      1.17891361476759     -0.54734706564929
  H   -2.01146901379664      1.30368313978130     -0.68665435712868
  H   -0.56149084262566      2.05930960826361     -0.02322301205667
  H   -0.45924866689323      1.12042881437468     -1.52599089073397
