16
Coordinates from ORCA-job run
  C   0.79758386053072     -0.13884607864805      0.58336912605405
  C   -0.64965185962000     -0.16965311672564      0.06598702480837
  Cl  0.86671872872882     -0.04030506536594      2.35494085663451
  H   -1.14979351110650     -0.95614983943501      0.63980548504449
  N   1.46537668059065     -1.46762911224855      0.19981030722254
  O   0.77009967144929     -2.46490274817531      0.33548375596201
  O   2.62886392379711     -1.42402371832614     -0.16973895973667
  C   1.55661566176541      0.95119439566042     -0.01107656739787
  N   2.08900152916557      1.88698614826339     -0.48185527221207
  N   -0.54580630831958     -0.49866067895903     -1.34503258110749
  H   -1.08728684425836      0.12645573865603     -1.92419979366097
  H   -0.81188306935787     -1.45456802805271     -1.53282389596525
  C   -1.34530857776916      1.16362992571666      0.28615818203163
  H   -0.87688949152628      1.94322527110521     -0.32025950633508
  H   -2.39153171022260      1.07232304296414     -0.01362410046317
  H   -1.31610868384723      1.47292386357051      1.33105593912096
