16
Coordinates from ORCA-job run
  C   0.79449509467499     -0.12626241687441      0.58794857924105
  C   -0.64862893960920     -0.17861545136220      0.06118965464009
  Cl  0.85073455738304     -0.02281809187261      2.35958459474415
  H   -1.14200109948375     -0.96996415301587      0.63440170052581
  N   1.48480912157390     -1.44613583702315      0.21264733333984
  O   0.80073335241655     -2.45280638866148      0.33635716471941
  O   2.65308121652155     -1.38673879675948     -0.13921602633783
  C   1.54254874675228      0.97309365838809     -0.00348377491527
  N   2.06942360679528      1.91857519884027     -0.46091728952370
  N   -0.53084452235261     -0.50752689695437     -1.34884083466242
  H   -0.76846710500598     -1.47160336676544     -1.53384417169148
  H   -1.09178749816509      0.09870125938699     -1.92969114002935
  C   -1.36290576002417      1.14615312374273      0.27322103184902
  H   -2.40630491623619      1.04068332674812     -0.03194254793308
  H   -0.90101268990210      1.92983780875409     -0.33294722559197
  H   -1.34387316533847      1.45842702342870      1.31753295162571
