16
Coordinates from ORCA-job run
  C   0.89583611715928     -0.42889574986092      0.11786200514169
  C   -0.57408893388679      0.03401116139065      0.23753828396076
  Cl  1.12057939775170     -1.56005322711165     -1.21124006091398
  H   -0.58552232911621      0.66952230071716      1.12877913884942
  N   1.73856844384060      0.84244273365624     -0.11462195536925
  O   2.22692650941682      1.03931080765775     -1.21368459354724
  O   1.76774755988466      1.58779549314870      0.85770545114999
  C   1.35227483129520     -1.03363313492120      1.36218565705380
  N   1.72219891313453     -1.51220563018973      2.36946746608263
  N   -1.36135484650048     -1.14918468659549      0.52583944804387
  H   -2.18581270669838     -0.90625747924372      1.05806121550302
  H   -1.65340570119221     -1.60658186993997     -0.32900465844146
  C   -1.01876372743300      0.85178655404109     -0.97064782126798
  H   -0.43962562220324      1.76959294182321     -1.09332906554511
  H   -0.94109134995523      0.26815672656427     -1.89046025363239
  H   -2.06446655549725      1.13419305886360     -0.83145025706778
