16
Coordinates from ORCA-job run
  C   0.78096500429262     -0.10787744516158      0.60982573838159
  C   -0.64784211800094     -0.18570040607686      0.04839069537341
  Cl  0.79139836991147      0.02137417534404      2.38067243019866
  H   -1.14617987011333     -0.97424853989273      0.62112401137646
  N   1.49572309184454     -1.42461255216880      0.27074617844752
  O   0.82181926133536     -2.43763966249413      0.39766976333694
  O   2.67034610938836     -1.35604182567199     -0.05745156163072
  C   1.53021871235393      0.99178386175034      0.02053540621498
  N   2.05596182106442      1.93638602154420     -0.44002073808576
  N   -0.49105940750885     -0.53532403341870     -1.35296687995056
  H   -1.04268222488188      0.05566681774335     -1.95785931557168
  H   -0.71345813257028     -1.50478532574798     -1.52827389494045
  C   -1.38232599229990      1.13357649745461      0.22130709510879
  H   -0.91685558487316      1.91180103354365     -0.38902790812095
  H   -1.38828447823370      1.46536097155558      1.25963425488221
  H   -2.41774456170865      1.01028041169699     -0.10330527502042
