16
Coordinates from ORCA-job run
  C   0.72180576807356     -0.29929046025858      0.68542803174950
  C   -0.77306671197543     -0.04138406315501      0.27267288738059
  Cl  0.86554828908887     -1.74723555423225      1.68627397087329
  H   -1.25648718780099      0.22298154468441      1.22002608094299
  N   1.52486120594329     -0.49493573063053     -0.59877562785074
  O   2.18856813493730      0.46210369661390     -0.97975072777287
  O   1.35455341753571     -1.55347020158478     -1.18865145251611
  C   1.26629507001482      0.83835307619291      1.41091451095574
  N   1.62074338970120      1.76567273713051      2.04068172250525
  N   -1.47291636425224     -1.16586463121821     -0.28223083159187
  H   -1.50068003995710     -1.94745716864920      0.35917023406035
  H   -1.04774245030203     -1.47648307488061     -1.14700795861796
  C   -0.84733777386090      1.14168998644435     -0.68377289104971
  H   -0.31723435115513      2.01734051382881     -0.30711130492876
  H   -1.89765504639667      1.39563259319165     -0.82575142145581
  H   -0.43125534959427      0.88234673652263     -1.66111522268388
