16
Coordinates from ORCA-job run
  C   0.73823431028464     -0.15849297368302      0.64836632941592
  C   -0.65562729848471     -0.16925965847028      0.00081675775859
  Cl  0.64432175041276     -0.11974249820596      2.42115956806935
  H   -1.20863423664901     -0.96837693664587      0.50508598123214
  N   1.44226351203702     -1.47435628040848      0.28558103796991
  O   0.73751578546846     -2.47424517915585      0.31099939239132
  O   2.63758561973743     -1.42082414541606      0.03890068184352
  C   1.54821575083739      0.94906479491228      0.16336788288167
  N   2.12662482332874      1.89959367769144     -0.21427104951143
  N   -0.42419739871801     -0.45255449744650     -1.40517968337503
  H   -0.62773975021019     -1.41485958390586     -1.63472617501286
  H   -0.95436482551320      0.15939293744975     -2.00857363111709
  C   -1.36267935261762      1.16215439777108      0.19328772544084
  H   -0.84413076083370      1.95156391640981     -0.35723355105649
  H   -1.41595644280657      1.44885097772930      1.24390234792974
  H   -2.38243148627343      1.08309105137422     -0.19048361486009
