16
Coordinates from ORCA-job run
  C   0.73419225205839     -0.14165617215416      0.61330299677740
  C   -0.71737658005657     -0.14340958647830      0.05873433174457
  Cl  0.77321159073264      0.03138652292292      2.37352192710128
  H   -1.23812213513312     -0.90775300863525      0.64362550412850
  N   1.33270485578375     -1.51059679751898      0.26728479448024
  O   2.28141394727553     -1.53131365700509     -0.50680242647487
  O   0.75386372374703     -2.47244558914547      0.75073286416417
  C   1.53915915829517      0.89561157228532     -0.01454659996910
  N   2.09809142952580      1.78626167233473     -0.54033643129888
  N   -0.77892501953591     -0.51917932034589     -1.33201357547626
  H   -0.47950339059138     -1.46821884054344     -1.50905287725082
  H   -0.27661300613706      0.12243277422597     -1.93272203625251
  C   -1.37523292215492      1.21271557911433      0.25621206765091
  H   -0.88048201812821      1.97450595337561     -0.35237217074813
  H   -1.35407614990957      1.53311545975924      1.29774132783756
  H   -2.41230573577157      1.13754343780846     -0.07130969641405
