16
Coordinates from ORCA-job run
  C   0.78627491584493     -0.50854631731807      0.05833424125153
  C   -0.61829388234167      0.16493604782688      0.21765054806365
  Cl  0.88124843906575     -1.51323435200514     -1.38255413193987
  H   -0.53235490300327      0.73496397584413      1.14882062077057
  N   1.82118405833376      0.62627550903521     -0.00689691741920
  O   1.95606828418531      1.21960445251124      1.05758070777473
  O   2.34377229550636      0.89067965185182     -1.07575420619703
  C   1.08423231781774     -1.31217885865505      1.23628129311382
  N   1.23919193462792     -1.97301683313786      2.19604508476296
  N   -1.69043179950839     -0.78226457876125      0.37406772864244
  H   -1.57307956196725     -1.36493174854377      1.19373783198572
  H   -1.79114431876255     -1.37031889537054     -0.44343873862400
  C   -0.90946861740427      1.11726738995561     -0.93095776253011
  H   -0.94905757890708      0.58760741352862     -1.88499250977855
  H   -1.88429515354781      1.56968017539340     -0.74829257533609
  H   -0.16684642993949      1.91247696784478     -1.00963121454057
