16
Coordinates from ORCA-job run
  C   0.67187450267581     -0.41204863299413      0.67767679805536
  C   -0.78337314000407     -0.00535474341002      0.24358300824375
  Cl  0.67026521266300     -1.94809753033364      1.54970082005651
  H   -1.28131084332888      0.21349659982253      1.19500387129215
  N   1.50613146914636     -0.55717945119191     -0.59269180077273
  O   2.25205299026620      0.37583529603952     -0.86622535664222
  O   1.28084563262657     -1.54460020534306     -1.27962167303200
  C   1.27042910384878      0.61312552274101      1.51898519193473
  N   1.66741580115847      1.45247343064853      2.24013033778751
  N   -1.54330205967443     -1.02068548350981     -0.42997151843269
  H   -1.65155952221560     -1.85065093332500      0.13791248647435
  H   -1.11143962612684     -1.28648015093549     -1.30629522344856
  C   -0.73428114330184      1.25803314152284     -0.60590297501751
  H   -0.15593363380144      2.05486082738510     -0.13629363599491
  H   -0.30178160931078      1.05314761373583     -1.58912498078865
  H   -1.75703313462131      1.60312469914769     -0.75686534971507
