16
Coordinates from ORCA-job run
  C   0.71921162976476     -0.28105394947180      0.69594296009302
  C   -0.77545585903856     -0.06027380459255      0.26094304920148
  Cl  0.88345768667125     -1.72470173516412      1.70005057947307
  H   -1.27911855454979      0.19332232174600      1.20065576816232
  N   1.54570217878564     -0.45723680431903     -0.57569202296082
  O   1.41082734419512     -1.52003810489062     -1.16727496410478
  O   2.19029496100746      0.51628669410334     -0.94788489952254
  C   1.22405281323192      0.86991485853126      1.42904611175573
  N   1.54597485803483      1.80613936049693      2.06313778330018
  N   -1.43950099093845     -1.20208512136792     -0.30252762078190
  H   -0.99377288974778     -1.50384804293714     -1.16009986961264
  H   -1.45799202331469     -1.98312184218279      0.33991830814320
  C   -0.86468397948071      1.11988759897925     -0.69792405240186
  H   -0.36172169674820      2.00860917802509     -0.31436611127047
  H   -0.42846874576228      0.87011864760709     -1.66903182754356
  H   -1.91880673211051      1.34808074543701     -0.85489319193044
