16
Coordinates from ORCA-job run
  C   0.72972535578575      0.34203904858167      0.30349382960172
  C   -0.79022355838579      0.26889608937212      0.21745315334498
  F   1.14435356435768      1.41193100068154      1.03339117377387
  H   -1.18123402015602      0.28687472233218      1.23852047904493
  N   1.31662439519913      0.35729851885045     -0.96301594010206
  H   2.32559958715301      0.31403813881956     -0.89978943651708
  H   0.95094573083257     -0.42145645789560     -1.49793483176731
  N   1.23821487840926     -0.85674293860191      1.17062604098560
  O   0.45962485501833     -1.36698992304375      1.97327680635435
  O   2.41355835169219     -1.17036899982993      1.01441964118404
  N   -1.09478053184410     -0.98721004135926     -0.48929915823739
  H   -1.16826260522981     -1.75028109921286      0.17440419450406
  H   -1.98686938733376     -0.89274552340519     -0.95741002414333
  N   -1.23793346333973      1.45445225886390     -0.45662510511703
  H   -2.24674452572893      1.51645922108123     -0.46316654944876
  H   -0.87159862642977      1.49680598476587     -1.39834427346060
