16
Coordinates from ORCA-job run
  C   0.71078239679120     -0.18986534328646      0.47876085775401
  C   -0.77040319296406     -0.19047421672739      0.11045970675987
  F   0.80935441904508     -0.65135334660843      1.78767208741475
  H   -1.16194495980685     -1.17001821093663      0.40592864062065
  N   1.35273150011379      1.02692928078780      0.31028287492495
  H   2.14578466973842      0.99169296479015     -0.30979985412015
  H   0.71391925792615      1.78997991109883      0.15063229387716
  N   1.38889232217731     -1.28956524436864     -0.34215859449821
  O   2.31700755655261     -0.97738922394010     -1.07963522687725
  O   0.93817142124240     -2.41566036941915     -0.18383024684950
  N   -0.87962862058118     -0.07695163923860     -1.32283068057566
  H   -0.83172188685590      0.89584218603787     -1.59912501083518
  H   -1.74563189507727     -0.47298811501773     -1.65995394535193
  N   -1.37308902772213      0.94071356361991      0.81202479669210
  H   -1.24381034885892      0.83567131914936      1.81345398583177
  H   -2.36941361172065      0.95443648405921      0.62811831523264
