16
Coordinates from ORCA-job run
  C   0.75077077508188      0.15142156049566      0.35552233644707
  C   -0.63619818928209      0.04613261294595     -0.30150736964946
  F   0.61878392437985      0.82294477492042      1.52525751118122
  H   -0.48157959889694     -0.54803482403712     -1.21369694864910
  N   1.76668598213475      0.74775544326702     -0.42519355926850
  H   2.09815046831970      0.09262150394201     -1.12088321211707
  H   1.35417121771981      1.55434589254185     -0.88225170841731
  N   1.20366306720028     -1.26562254624311      0.68876950043551
  O   1.12453040261929     -1.64031858490830      1.85081909613748
  O   1.56483931742972     -1.94053270848102     -0.27338685302465
  N   -0.99615292681030      1.38924145462584     -0.71373217996936
  H   -1.42809249887719      1.85169361770481      0.07859076243704
  H   -1.66190030619654      1.36461854944156     -1.47432820738965
  N   -1.59749829263688     -0.51432105261118      0.63175253033851
  H   -1.24211397696447     -1.31720103128428      1.13611929605442
  H   -2.43605936522088     -0.79474466232012      0.13914900545386
