16
Coordinates from ORCA-job run
  C   0.63748200341518      0.21012855626564      0.40343653713329
  C   -0.85995327701571      0.25860238790425      0.04877831420542
  F   0.72508665227106      0.29039774638354      1.78376880700577
  H   -1.20102567103000      1.22087407034248      0.47216099634053
  N   1.39028175003337      1.19472007558820     -0.25488538127254
  H   2.36636366565460      1.16351180533364      0.01380996367288
  H   1.01621994727264      2.11351315881968     -0.05302858318900
  N   1.20614833970641     -1.15513458444816      0.03959544345687
  O   1.22241408039384     -1.41512049809067     -1.15875857056643
  O   1.57942023276285     -1.88363746754794      0.94773286647893
  N   -1.47288962091053     -0.90800079350273      0.64500454074160
  H   -2.45404790575152     -0.91171929280386      0.39759309655986
  H   -1.38191779579725     -0.89467155707195      1.65262788730203
  N   -1.19411093360003      0.25626182633601     -1.35039561506803
  H   -0.81478794306818     -0.58518286917496     -1.76981055989883
  H   -0.76568352433671      1.04645743566682     -1.81562974290234
