13

C	-0.496859	-0.018747	-1.436228
C	0.0	0.0	0.0
F	-0.266818	1.229407	-2.019789
H	1.093087	0.0	0.0
H	0.119489	-0.737679	-1.986912
H	-0.288685	-0.941044	0.484707
C	-1.972992	-0.320605	-1.594655
H	-2.256719	-0.282974	-2.64974
H	-2.204982	-1.314377	-1.204227
H	-2.563144	0.418976	-1.049344
C	-0.56976	1.103339	0.755497
N	-1.047346	1.987303	1.36512
H	2.83658	0.0	0.0
