13

C	-0.489571	0.089704	-1.443179
C	0.0	0.0	0.0
F	-0.265476	-1.155624	-2.043822
H	1.093809	0.0	0.0
H	-1.575101	0.247974	-1.492546
H	-0.348904	-0.935539	0.447831
C	0.262032	1.145857	-2.221628
H	1.334253	0.967337	-2.106224
H	0.031084	2.138896	-1.826612
H	-0.021509	1.111592	-3.277187
C	-0.507878	1.123486	0.771822
N	-0.938246	2.044218	1.362123
H	2.889316	0.0	0.0
