13

C	-0.496922	0.016544	-1.436135
C	0.0	0.0	0.0
F	-0.276756	1.282187	-1.98558
H	1.093097	0.0	0.0
H	0.125072	-0.68255	-2.006674
H	-0.287955	-0.953216	0.461077
C	-1.970907	-0.292122	-1.602052
H	-2.196583	-1.297028	-1.235142
H	-2.254428	-0.231429	-2.656303
H	-2.566588	0.430847	-1.038881
C	-0.57186	1.082759	0.78347
N	-1.05516	1.947058	1.41621
H	2.83726	0.0	0.0
