13

C	-0.378561	0.016123	-1.464477
C	0.0	0.0	0.0
F	-1.770235	0.172132	-1.634776
H	1.094202	0.0	0.0
H	0.08373	0.903107	-1.909161
H	-0.337471	0.916921	0.492017
C	0.075768	-1.226944	-2.188856
H	1.154212	-1.33274	-2.041187
H	-0.429173	-2.105981	-1.782388
H	-0.148454	-1.152677	-3.255802
C	-0.533847	-1.152508	0.707208
N	-0.960481	-2.088627	1.275271
H	2.831721	0.0	0.0
