18

C	0.0	0.0	0.0
C	-0.33943	-0.103399	-1.528216
F	1.358558	0.0	0.0
H	0.656808	-0.211881	-1.976881
C	-0.489403	1.203892	0.675641
N	-0.558768	2.252967	1.204126
N	-0.344664	-1.202731	0.864378
O	-0.681698	-1.003971	2.022904
O	-0.096352	-2.301643	0.37771
C	-0.938438	1.210096	-2.034459
H	-1.005624	1.179873	-3.127159
H	-1.925871	1.303885	-1.585929
H	-0.327035	2.075561	-1.762509
C	-1.185065	-1.282938	-2.01039
H	-2.112764	-1.27166	-1.443451
H	-1.388323	-1.134851	-3.077591
H	-0.665741	-2.232893	-1.891924
F	-2.369284	0.0	0.0
