18

C	0.0	0.0	0.0
C	-0.390616	-0.115783	-1.488241
F	1.379674	0.0	0.0
H	-1.339511	-0.643015	-1.479157
C	-0.48283	1.185092	0.704957
N	-0.569384	2.227756	1.243773
N	-0.371778	-1.23416	0.798811
O	-0.465017	-2.294012	0.191659
O	-0.397042	-1.109944	2.01818
C	0.668422	-0.859142	-2.30384
H	1.574394	-0.263307	-2.448253
H	0.246945	-1.077688	-3.290116
H	0.942939	-1.807055	-1.840967
C	-0.652217	1.272656	-2.065
H	0.198126	1.948669	-1.918736
H	-0.838566	1.194995	-3.141229
H	-1.537514	1.678782	-1.578549
F	-2.357239	0.0	0.0
