13

C	0.0	0.0	0.0
C	-0.580372	0.205815	-1.365995
Br	1.98585	0.0	0.0
H	-1.690416	0.252102	-1.127378
H	-0.220409	0.877051	0.612092
H	-0.361406	-0.605951	-2.048985
N	-0.53411	-1.237115	0.485521
H	-0.30696	-1.316192	1.47064
H	-1.565397	-1.059391	0.431122
N	-0.192807	1.463299	-2.009526
O	-0.116079	1.469299	-3.241468
O	-0.04852	2.461824	-1.299398
H	-2.958859	0.0	0.0
