15
Coordinates from ORCA-job run
  C   0.69004312641290      0.23575074784275     -0.34923309586582
  C   -0.80403849791008      0.36875402286038     -0.08004683585817
  H   0.87863754770063     -0.27443185328719     -1.29494110408432
  H   -1.21026382275279      1.01033498097938     -0.86916439848003
  H   -0.92410994011214      0.90368344137214      0.86814361293296
  N   1.23960848433991     -0.69916283816687      0.70026473642700
  O   1.27474860194702     -0.25887815182447      1.84580592775695
  O   1.56634987597810     -1.83053353264384      0.35055081741224
  N   1.46378513070824      1.44462657715981     -0.29288516118781
  H   1.10991892889687      2.07229856633686      0.41671400785444
  H   1.46732488190115      1.91045170293719     -1.18872302511408
  C   -1.54332493467742     -0.96472276090643     -0.03636470971816
  H   -2.61878668553337     -0.80404339533194      0.06033228987019
  H   -1.22161966401866     -1.56931274048805      0.81373679083295
  H   -1.36827303288036     -1.54581476683971     -0.94518985277834
