15
Coordinates from ORCA-job run
  C   0.76361497389508      0.25416811667487     -0.46535090148860
  C   -0.55580561074392     -0.41254828397584     -0.83564123202431
  H   1.47897225697368      0.15455153856586     -1.28418999469826
  H   -0.93674590188041      0.12072171645290     -1.71061357740143
  H   -0.34278815375436     -1.44020585895002     -1.13902341469270
  N   1.38467301285601     -0.61099040647068      0.64897525789451
  O   1.81716506619365     -1.70858407869359      0.30980082820932
  O   1.36828004939917     -0.16896534565081      1.79586021081657
  N   0.61994877116541      1.61754936892254     -0.10231088963095
  H   1.52054883234949      2.05104807918992      0.05297754706829
  H   0.07958973038794      1.71123660346284      0.74715229041836
  C   -1.59143369613592     -0.39270983873511      0.28469713599974
  H   -1.88668285870008      0.62650545791897      0.54313036045841
  H   -1.22495779653999     -0.88546590117138      1.18789861750321
  H   -2.49437867546575     -0.91731116754049     -0.03336223843216
