15
Coordinates from ORCA-job run
  C   0.64493131801551      0.05622051105119     -0.20912808360270
  C   -0.56716028463069     -0.66554990161538      0.33730597854955
  H   0.73440846675340     -0.10763798190546     -1.29436574691300
  H   -0.57495741177484     -0.54519065902875      1.42290946558276
  H   -0.45283807156167     -1.73181989975758      0.13280957077470
  N   1.93218232793339     -0.54215393230650      0.32583146439356
  O   1.88272420814155     -1.49665853489815      1.09415993696692
  O   2.95909025681820      0.00045073107534     -0.07601180591608
  N   0.68542434958709      1.44224051212711      0.19168160075746
  H   1.43639671750015      1.91976586339332     -0.29060691749113
  H   -0.18770456689100      1.89507333122470     -0.04056456423385
  C   -1.86574727473314     -0.15001555145606     -0.28098111812714
  H   -2.70435374871123     -0.78012686116632      0.02074375071602
  H   -2.10182780819824      0.86653217735453      0.04186494011709
  H   -1.82056847824847     -0.16112980409200     -1.37364847157417
