15
Coordinates from ORCA-job run
  C   0.60383350463573      0.15704844737472     -0.28953535922137
  C   -0.55678339723517     -0.65416394666884      0.26963214517932
  H   0.72029195436550     -0.01677812350503     -1.36141549964269
  H   -0.58948797547957     -0.49574111968918      1.35437369632321
  H   -0.34616791521104     -1.71392629908197      0.10294850080474
  N   1.87765564712252     -0.45880026854593      0.31077892579177
  O   2.32125163065831     -1.46005046364609     -0.24417267589608
  O   2.33174949301500      0.06322342676682      1.32645646567253
  N   0.47141223346058      1.54325125192531     -0.01993646418669
  H   1.22024931061618      2.07835987022543     -0.43954039283675
  H   0.47807087229015      1.71142065091464      0.97839184760690
  C   -1.88171520593070     -0.26058090961862     -0.37207048192691
  H   -2.09903075064955      0.79327889402931     -0.20162448078074
  H   -1.85345444548560     -0.42889964196718     -1.45168987403085
  H   -2.69887495617234     -0.85764176851337      0.03840364714361
