16

C	0.0	0.0	0.0
C	-0.523167	-0.02879	-1.455097
F	1.32975	0.0	0.0
H	0.411413	-0.144282	-2.01788
N	-0.336325	1.191965	0.929874
O	0.377056	1.20761	1.929498
O	-1.190605	2.004682	0.633924
N	-0.368659	-1.260336	0.793217
O	0.146813	-2.271055	0.324666
O	-1.044713	-1.165487	1.801056
N	-1.124569	1.21755	-1.882919
H	-2.04096	1.263359	-1.427928
H	-1.28052	1.138905	-2.882273
C	-1.294132	-1.246749	-1.793406
N	-1.732785	-2.205888	-2.313936
Cl	-3.427362	0.0	0.0
