16

C	0.0	0.0	0.0
C	-0.702065	0.09341	-1.340892
F	1.328401	0.0	0.0
H	-1.773246	0.27262	-1.098958
N	-0.429045	1.131841	0.933217
O	-0.264659	0.947916	2.132282
O	-0.816725	2.156592	0.386036
N	-0.357965	-1.327296	0.702269
O	-1.398117	-1.876192	0.376416
O	0.46223	-1.720073	1.522917
N	-0.489374	-1.165013	-2.067511
H	-1.335715	-1.711511	-1.96002
H	-0.353988	-0.969993	-3.050638
C	-0.148304	1.207241	-2.109469
N	0.299459	2.045646	-2.799228
Cl	-3.771823	0.0	0.0
