16

C	0.0	0.0	0.0
C	-0.694009	0.040489	-1.349299
F	1.327848	0.0	0.0
H	-1.759821	0.261904	-1.118735
N	-0.436135	1.178187	0.871543
O	-0.552193	0.992624	2.075034
O	-0.543666	2.240974	0.269949
N	-0.358347	-1.287676	0.773064
O	-1.370471	-1.886833	0.454943
O	0.438654	-1.59241	1.652155
N	-0.516543	-1.25816	-2.015874
H	-1.363327	-1.789093	-1.846624
H	-0.432732	-1.110128	-3.01293
C	-0.109622	1.089991	-2.18398
N	0.370813	1.84679	-2.941819
Cl	-3.728359	0.0	0.0
