15
Coordinates from ORCA-job run
  C   0.74968883558916     -0.10414320509720      0.47207170418854
  C   -0.56515401786308      0.36685393109766     -0.13385960659608
  Br  1.37556341967452      1.22531818313527      1.75731494942267
  H   -0.44820360504827      1.33463133994239     -0.62360721087849
  H   0.56027281992852     -1.00368233666027      1.06220589544655
  C   1.80834901325654     -0.33813775516341     -0.58854706846575
  H   2.74137930363962     -0.66292341276438     -0.12668922606439
  H   1.46459681711486     -1.10203116120011     -1.28650251897149
  H   2.00233585770615      0.58118737442671     -1.14519381144164
  N   -1.55960610087321      0.62462416438017      0.99271738894898
  O   -1.83969621333191     -0.34749501030085      1.69198653937744
  O   -2.03865360571730      1.75011530205731      1.09058471493822
  N   -1.06242787201846     -0.60879165835035     -1.05018525883486
  H   -1.86560742824341     -0.26137407030939     -1.55888280606424
  H   -1.32283722381372     -1.45415168519356     -0.55541368500548
