15
Coordinates from ORCA-job run
  C   0.61222686902249     -0.59544939715943     -0.21064756229965
  C   -0.74855807627827      0.11251448866078     -0.33005496714860
  Br  0.62720432478432     -1.86476736241695      1.27614513128483
  H   -0.69525802196149      0.74069119698115     -1.22314248170289
  H   0.69232448502523     -1.22481545652812     -1.10120254721943
  C   1.80609313700494      0.33624365086190     -0.11032445530331
  H   1.80773019609711      0.88162782929853      0.83318541263789
  H   2.73327523036854     -0.23349471252864     -0.18162275860545
  H   1.77669153080977      1.06633048793182     -0.92404657951058
  N   -0.88984073326863      1.09065265735198      0.80760522040247
  O   -1.43300819852456      0.68513271529495      1.82876320092981
  O   -0.41065703059300      2.21061293715011      0.63485612241118
  N   -1.93173316356896     -0.68520391537949     -0.38278595356300
  H   -1.94030714525685     -1.37125225456139      0.36120288109460
  H   -2.00818340366063     -1.14882286495720     -1.27793066340787
