15
Coordinates from ORCA-job run
  C   0.68855747284261     -0.60864315227373     -0.18039437193778
  C   -0.68448601280108      0.02737143110426     -0.39054026744809
  Br  0.68704211939162     -1.71258217020894      1.43767856368694
  H   -0.61491189162065      0.67908345105386     -1.26628663401174
  H   0.79560868270882     -1.32398325051052     -0.99767506938080
  C   1.86200719370535      0.35163511458007     -0.14432800165331
  H   1.84477416784313      0.98679618136327     -1.03453237580392
  H   2.79580165560407     -0.21199729131486     -0.13499358481753
  H   1.83318697941560      0.99498938260753      0.73331726715611
  N   -0.97005602503326      1.01379349840444      0.75303725609173
  O   -1.76266945942920      0.66387079169950      1.62142132945342
  O   -0.37646507126072      2.08938789649169      0.70660172125719
  N   -1.70063767502437     -0.93974800034785     -0.57407613627911
  H   -1.80967785851965     -1.50698683824042      0.25723381938349
  H   -2.58807427782228     -0.50398704440831     -0.78746351569660
