15
Coordinates from ORCA-job run
  C   0.73794107551513     -0.36125276352749      0.34728852494032
  C   -0.54742617591848      0.40821120026063      0.07614070207283
  Br  1.40195363282237      0.10529757142174      2.12318927054854
  H   -0.38320468084127      1.48454531400709      0.14407877855009
  H   0.50309204628641     -1.42661502207323      0.40270454450752
  C   1.80041851436131     -0.07123904567942     -0.69548745905506
  H   1.43520270648256     -0.36212039680483     -1.68082275542895
  H   2.71314760457354     -0.62376912802633     -0.46985237586596
  H   2.03906581331314      0.99431066333753     -0.71265647211078
  N   -1.54594385591578      0.10145135298120      1.18688964085951
  O   -1.87686763733598     -1.07771111651718      1.29822837181478
  O   -1.97812902489503      1.04107639900380      1.84715047689439
  N   -1.07204813864807      0.05466940499416     -1.20383801905912
  H   -1.85237765557452      0.64671659299809     -1.45900777517149
  H   -1.37482422422531     -0.91257102637575     -1.20400545349664
