15
Coordinates from ORCA-job run
  C   0.71085729807941     -0.12879368962857      0.44807208268722
  C   -0.60530569810743      0.46372950793913     -0.04846759181710
  Br  1.62290131885934      1.17807203419651      1.57785624437342
  H   -0.43362993383274      1.40217909051320     -0.57739638947778
  H   0.48506340396813     -0.97246184204681      1.10410861155326
  C   1.61932995403762     -0.53468734327493     -0.69791512095750
  H   1.83404509054373      0.31997923138121     -1.34389120756132
  H   1.15007407474373     -1.32200574340630     -1.29248952388255
  H   2.56596986410391     -0.91784560039275     -0.31640124216508
  N   -1.45453285984700      0.82356154598150      1.14384801740195
  O   -1.74078026949091     -0.11228088744343      1.88693443644114
  O   -1.81485441777849      1.98774934225247      1.26760202453613
  N   -1.40801373631257     -0.41482309432663     -0.85236866441587
  H   -1.41939036561008     -1.35699148030176     -0.48373515130653
  H   -1.11073372335663     -0.41538107144284     -1.81675652540939
