15
Coordinates from ORCA-job run
  C   0.60375971344142     -0.19447341816820     -0.74521896706161
  C   -0.87574657531802      0.03489073714709     -0.38047904621300
  Br  0.71235739085620     -1.93179804232808     -1.63729426210533
  H   -1.46703997613126      0.02767588111121     -1.29690356364471
  H   0.88362587370777      0.53249032331811     -1.50993255069551
  C   1.55844804408454     -0.15011038399210      0.43061242215351
  H   1.52431409848363      0.83137208668408      0.91025889525535
  H   1.31122701102916     -0.91194174245126      1.17170901963199
  H   2.57960317714084     -0.33055685912750      0.09373406621206
  N   -0.92807158059500      1.46529677119928      0.10947846217986
  O   -0.88457694177621      2.33521232964047     -0.75705495172509
  O   -0.93662865915949      1.65166307129878      1.32218267120786
  N   -1.49714018272983     -0.80038339274298      0.59436622742008
  H   -1.60704711461832     -1.73747652131812      0.23160734279619
  H   -0.97908427841541     -0.82186084027078      1.46193423458833
