15
Coordinates from ORCA-job run
  C   0.83800594215327      0.17441345839837      0.35211505685849
  C   -0.63274458980617      0.27952515937617     -0.00218095422267
  Br  1.48912224666827      1.96941153769713      0.76359307854130
  H   -0.80283532552006      1.09749670892250     -0.71265628755497
  H   0.93465238330878     -0.39659683914076      1.27450565302684
  C   1.66463992541841     -0.42742179492641     -0.76985496411038
  H   1.39537540404036     -1.47754714012397     -0.90677715522621
  H   2.72504087939318     -0.38611965718166     -0.52076493591129
  H   1.51739161944072      0.11538516322845     -1.70712322609974
  N   -1.45629571095182      0.66855657287333      1.20519465480700
  O   -1.03138935448577      0.41000503715671      2.32394938963584
  O   -2.54839760390399      1.17051447698527      0.94356264864044
  N   -1.16398993517568     -1.00884628355066     -0.40388777241676
  H   -0.76247650063789     -1.27416230686767     -1.29483017442751
  H   -2.16509937994160     -0.91661409284680     -0.54484501154039
