15
Coordinates from ORCA-job run
  C   0.72766119719733      0.09761341553679     -0.73695898608400
  C   -0.77586035660358      0.01475976139376     -0.46870816780272
  Br  1.15388826919173     -1.08372993729003     -2.22789725805591
  H   -1.32788413967601      0.20282769183823     -1.39034247634569
  H   0.95247359556611      1.10023454263937     -1.10137638313859
  C   1.57523582350021     -0.25397613445157      0.47076399996607
  H   1.43273706530024     -1.29788858539735      0.75363298046222
  H   1.31600538843629      0.38735869764089      1.31865084271865
  H   2.63185686029974     -0.10898566290026      0.24446893405915
  N   -1.08463378248816      1.26287903393446      0.39573061887341
  O   -1.03818142632984      2.34605863479177     -0.17947213658441
  O   -1.32018010978142      1.08792531286379      1.58874927753396
  N   -1.18469997945916     -1.19560872135753      0.12943873709577
  H   -2.19029628145022     -1.29444366647239      0.11533622045590
  H   -0.86712212370326     -1.26302438276994      1.08698379684619
