13
Coordinates from ORCA-job run
  C   -0.28780143153443     -0.31649577649575     -0.41623903367634
  C   1.17744942477824      0.10657504928373     -0.17613178607217
  H   -0.33174133033218     -1.41108051218089     -0.43568762567404
  H   1.81626899091131     -0.25103118197441     -0.98825997237852
  H   1.24833788868706      1.19844289543471     -0.15941069993739
  C   -0.69816854735559      0.16632539667450     -1.73751111587691
  N   -1.01940122100541      0.57741723493255     -2.78939207385756
  C   -1.22810206782178      0.20979294478437      0.67102685616653
  H   -2.25539454952863     -0.09854957853669      0.47219680983947
  H   -0.93068102184621     -0.18276419124666      1.64498520942495
  H   -1.19768199986916      1.30091596215887      0.70723922121505
  C   1.67084149892999     -0.42678681467166      1.09232678202911
  N   2.03607436598677     -0.87176142816268      2.11485742879782
