13
Coordinates from ORCA-job run
  C   -0.24646232399716     -0.17892578595848     -0.51321237256119
  C   1.19088135430282      0.10678479234067     -0.02770507019278
  H   -0.29870548702948     -1.22305915126101     -0.84109590345831
  H   1.90523895251620     -0.03784362800618     -0.84268768864922
  H   1.27045787756573      1.14857277105081      0.29718128425419
  C   -0.51898156701961      0.66626820538074     -1.67899088331727
  N   -0.73473584137418      1.36695604736056     -2.59606097664015
  C   -1.28681424249198      0.06175793208316      0.58380038246860
  H   -1.09201422064942     -0.59294127832191      1.43515323126342
  H   -1.25153139658998      1.09963463002333      0.92241821075087
  H   -2.29137428960808     -0.14364673488600      0.21116984527523
  C   1.54837911733478     -0.77333558436562      1.08317952965703
  N   1.80566206704037     -1.50022221544007      1.96785041114956
