18

C	-0.011679	-0.006083	-0.013107
C	-0.442434	-0.10449	-1.488402
F	1.387892	0.047341	0.024139
H	-1.535549	-0.187118	-1.453733
N	-0.502293	1.169176	0.637526
H	-1.541048	1.072091	0.592576
H	-0.219766	2.002683	0.13248
N	-0.447135	-1.192146	0.654477
H	-1.471927	-1.173753	0.557882
H	-0.263983	-1.028475	1.640878
N	0.066656	-1.376348	-2.08523
O	1.236709	-1.399667	-2.473709
O	-0.712457	-2.32456	-2.168157
C	0.022868	1.059742	-2.340409
H	-0.532327	1.955806	-2.059634
H	1.091971	1.22801	-2.213015
H	-0.176179	0.862912	-3.39651
H	-3.024671	0.225409	0.16174
