18

C	-0.003217	0.000524	-0.00882
C	-0.41506	-0.058855	-1.501675
F	1.403047	0.044819	0.006275
H	-1.481977	-0.317205	-1.485066
N	-0.528468	1.217111	0.518764
H	-0.348194	1.172759	1.519111
H	-1.561651	1.090235	0.419005
N	-0.39989	-1.123133	0.785306
H	-1.42593	-1.052903	0.812249
H	-0.162844	-1.987337	0.310262
N	0.305604	-1.201446	-2.142133
O	-0.081605	-2.343164	-1.873847
O	1.255456	-0.962131	-2.888749
C	-0.1467	1.219643	-2.263489
H	-0.797588	1.994944	-1.864699
H	-0.353	1.082442	-3.327943
H	0.890004	1.530282	-2.140743
H	-3.003832	0.084973	0.121471
