18

C	-0.022713	0.029719	-0.000856
C	-0.44967	-0.254162	-1.447446
F	1.373056	0.155174	0.036411
H	-1.551332	-0.268235	-1.405834
N	-0.607386	1.298095	0.323054
H	-0.403589	1.437362	1.309732
H	-1.631836	1.112658	0.273448
N	-0.395914	-0.96315	0.965758
H	-1.424092	-0.964616	0.943578
H	-0.046935	-1.869758	0.679187
N	-0.060947	-1.614151	-1.941013
O	-0.599808	-1.983293	-2.985617
O	0.776777	-2.282559	-1.331255
C	0.07763	0.756116	-2.45243
H	-0.357899	0.577755	-3.436859
H	1.166435	0.688788	-2.515946
H	-0.188609	1.75053	-2.099818
H	-3.036725	-0.014111	0.105119
