11

C	-0.552818	0.006244	-1.410556
C	0.0	0.0	0.0
Cl	-0.079908	-1.429914	-2.361265
H	1.092357	0.0	0.0
H	-1.645354	0.022162	-1.39987
H	-0.182489	0.879375	-1.949073
H	-0.299297	0.96729	0.438812
N	-0.489579	-1.141566	0.770761
H	0.231075	-1.428009	1.420138
H	-1.313084	-0.892296	1.301979
Cl	3.645646	0.0	0.0
