11

C	-0.558621	0.141382	-1.395419
C	0.0	0.0	0.0
Cl	-0.192965	1.743253	-2.123419
H	1.092357	0.0	0.0
H	-1.64588	0.056606	-1.381914
H	-0.120386	-0.604747	-2.057573
H	-0.323673	-0.989984	0.347259
N	-0.592586	1.002153	0.900153
H	-0.232112	0.809004	1.828616
H	-0.187324	1.897862	0.647001
Cl	3.622066	0.0	0.0
