11

C	-0.556436	0.045474	-1.402481
C	0.0	0.0	0.0
Cl	-0.177903	-1.440122	-2.340883
H	1.099806	0.0	0.0
H	-0.124307	0.877702	-1.957007
H	-1.644424	0.118866	-1.379482
H	-0.323155	0.935319	0.47578
N	-0.594473	-1.112498	0.756951
H	-0.202308	-1.968238	0.376775
H	-0.227769	-1.054882	1.701051
Cl	3.630485	0.0	0.0
