11

C	-0.557063	-0.021865	-1.402641
C	0.0	0.0	0.0
Cl	-0.179909	1.480848	-2.314245
H	1.099763	0.0	0.0
H	-0.124208	-0.844067	-1.972023
H	-1.645099	-0.096539	-1.380095
H	-0.322972	-0.943279	0.459796
N	-0.594498	1.099413	0.776038
H	-0.202628	1.9615	0.410442
H	-0.227552	1.025558	1.718872
Cl	3.632564	0.0	0.0
