11

C	-0.512019	0.050532	-1.433384
C	0.0	0.0	0.0
Cl	-0.177888	-1.459404	-2.342599
H	1.092961	0.0	0.0
H	-1.596264	0.185249	-1.464812
H	-0.02721	0.860088	-1.979622
H	-0.316206	0.944202	0.463745
N	-0.482121	-1.10871	0.811622
H	0.041781	-1.939852	0.566551
H	-1.459611	-1.293118	0.614137
Cl	3.627477	0.0	0.0
