13
Coordinates from ORCA-job run
  C   0.24469045433121      0.40294612086168     -0.06741285623159
  C   -1.01408622990961     -0.48604367305611     -0.05001200119587
  H   -0.02434064788510      1.37368131469570     -0.49799635216097
  H   -0.78696804952926     -1.44049204928134      0.43379822959351
  H   -1.31159586807377     -0.70162085970403     -1.08058139829733
  C   1.35341202225401     -0.23768882095384     -0.90750847987220
  H   2.24138602259704      0.39563731936083     -0.92319865609559
  H   1.63395393069208     -1.20995393796504     -0.49699164417423
  H   1.01055172830088     -0.37643991492202     -1.93514208758365
  C   0.70932334441714      0.64081144757924      1.30216343388723
  N   1.10228402089462      0.80242547318258      2.39673823046920
  C   -2.13314508433491      0.15104781400558      0.64106774896819
  N   -3.02546564375431      0.68368976619677      1.18607583269330
