13
Coordinates from ORCA-job run
  C   0.20166564366961      0.39077991283757     -0.18806537202589
  C   -0.94609505633936     -0.60322866089341      0.07566695705956
  H   -0.14355617369605      1.13136467192951     -0.91767459367818
  H   -0.64354439206919     -1.32167681319083      0.84329566269474
  H   -1.14722859909588     -1.16583407912207     -0.84096852228947
  C   1.43221235348794     -0.33437357519968     -0.74068665908057
  H   1.18256898768693     -0.82962468086576     -1.68164550941615
  H   2.24485534815553      0.36914163222612     -0.92655900608314
  H   1.78571857388806     -1.08618735307637     -0.03190715309875
  C   0.53712684048852      1.10853740330119      1.04486534794381
  N   0.82881124201922      1.66204275666201      2.03827968154395
  C   -2.17510755505742      0.06465886789944      0.49936575869784
  N   -3.15942721313790      0.61439991749227      0.82503340773225
