17

C	0.0	0.0	0.0
C	-0.311557	-0.259297	-1.50682
F	1.393372	0.0	0.0
H	0.48855	0.222498	-2.078409
N	-0.458259	1.29662	0.368191
H	0.237188	2.013454	0.235468
H	-0.897539	1.3323	1.272918
N	-0.509603	-1.061726	0.793304
H	-0.439791	-0.825783	1.776187
H	-1.492294	-1.211825	0.569496
N	-1.598297	0.133711	-1.919768
H	-2.296173	0.188529	-1.176483
H	-1.963406	-0.478288	-2.635767
N	-0.007265	-1.749193	-1.770545
O	-0.950223	-2.534325	-1.798032
O	1.170067	-2.0483	-1.961532
Br	-4.316191	0.0	0.0
