17

C	0.0	0.0	0.0
C	-0.361166	0.0759	-1.493567
F	1.42612	0.0	0.0
H	-0.035105	1.051103	-1.854711
N	-0.448224	1.200963	0.634419
H	-1.468168	1.188308	0.610331
H	-0.16609	1.180953	1.609099
N	-0.493593	-1.183223	0.589931
H	-0.370967	-1.194051	1.591919
H	-0.118251	-2.010538	0.147573
N	-1.693747	-0.237574	-1.808688
H	-2.205641	0.526811	-2.216818
H	-2.245527	-0.610809	-1.039762
N	0.573775	-0.883645	-2.250407
O	0.555545	-2.073709	-1.944396
O	1.248272	-0.407011	-3.160538
Br	-4.459949	0.0	0.0
