17

C	0.0	0.0	0.0
C	-0.477874	0.08633	-1.451613
F	1.40691	0.0	0.0
H	-1.572465	0.104439	-1.432219
N	-0.438137	1.141197	0.730238
H	-0.158251	1.035127	1.700115
H	-1.461292	1.132073	0.697359
N	-0.451199	-1.24574	0.508714
H	-0.135445	-2.002314	-0.082661
H	-0.150233	-1.372667	1.465985
N	0.041544	-1.008172	-2.207961
H	-0.457016	-1.095611	-3.08304
H	1.021629	-0.836061	-2.396916
N	-0.035163	1.426837	-2.022997
O	-0.819761	2.365438	-1.954332
O	1.086898	1.475472	-2.533698
Br	-3.909175	0.0	0.0
