17

C	0.0	0.0	0.0
C	-0.482624	0.081858	-1.449262
F	1.40702	0.0	0.0
H	-1.577053	0.108163	-1.420591
N	-0.43015	1.149374	0.725174
H	-1.45351	1.132234	0.712218
H	-0.128569	1.057944	1.689603
N	-0.45472	-1.24162	0.514576
H	-0.14428	-1.370946	1.467914
H	-0.154217	-2.00091	-0.081115
N	0.024512	-1.021728	-2.20211
H	-0.477813	-1.108397	-3.075096
H	1.005193	-0.857712	-2.3954
N	-0.03046	1.414317	-2.031882
O	-0.807098	2.359875	-1.973666
O	1.093063	1.44936	-2.540613
Br	-3.897054	0.0	0.0
