17

C	0.0	0.0	0.0
C	-0.445389	0.16536	-1.466635
F	1.402919	0.0	0.0
H	-1.534246	0.230659	-1.488292
N	-0.406921	1.14694	0.755452
H	-1.423372	1.211011	0.675631
H	-0.185814	0.989216	1.73344
N	-0.418886	-1.309968	0.431524
H	-1.441232	-1.272071	0.479555
H	-0.07574	-1.450156	1.377195
N	0.034353	-0.853125	-2.359673
H	1.004293	-1.037576	-2.129076
H	-0.48903	-1.695395	-2.152393
N	0.064407	1.48793	-1.966573
O	-0.712135	2.439152	-1.960626
O	1.23093	1.526637	-2.353937
Br	-3.695322	0.0	0.0
