14
Coordinates from ORCA-job run
  C   0.90960328684753      0.03906701253906      0.14114118200236
  C   -0.45602088139315     -0.03456463287946      0.01842775714045
  N   1.65816064498706      0.37478100858602      1.23106494002534
  H   1.16517997986124      0.83131619597942      1.98307689906746
  H   2.61604238480411      0.63524993086372      1.06382526127423
  C   1.68831639766275     -0.38524258871940     -0.99326327031526
  N   2.35461680796141     -0.71223985132798     -1.90633791269824
  N   -1.29812408394846      0.41172637804483      1.10386373297818
  O   -0.77279736657199      0.82030540973024      2.15191377594026
  O   -2.51640097411234      0.36176954065509      0.92524956618725
  C   -1.18892135388947     -0.49749377874406     -1.19849800647634
  H   -1.81179396722896      0.30490715473029     -1.59905322138875
  H   -1.85400134367764     -1.32678481691821     -0.95012702629502
  H   -0.49285953130211     -0.82379696253958     -1.97028367744192
