14
Coordinates from ORCA-job run
  C   0.87479972172684      0.11687970747337      0.12936521817317
  C   -0.47611187696897      0.19491870232689     -0.02192460854143
  N   1.53532355113642     -1.09784028286905      0.06060529436820
  H   2.53506723254816     -1.03849772480208     -0.05166720137503
  H   1.10428810869664     -1.80695777928033     -0.51181306234560
  C   1.72898550682547      1.21434303040400      0.48587990884866
  N   2.56322982980315      1.98791193339044      0.78737130690916
  N   -1.15231022806103      1.47880276256901      0.11868664648962
  O   -2.37233165649256      1.45230786677843      0.28931478124301
  O   -0.47636399942002      2.50466272338008      0.05155444631993
  C   -1.30533060519519     -1.01728510772801     -0.28458690296156
  H   -1.05314112371411     -1.81435592746628      0.42169827161008
  H   -2.36005538262627     -0.77890505573578     -0.17329574145119
  H   -1.14604907825854     -1.39498484844068     -1.30118835728701
