14
Coordinates from ORCA-job run
  C   0.91090106783461      0.11222281337957      0.08101227116042
  C   -0.45737315509827      0.01244659119384      0.01983637706335
  N   1.69678574666211      0.54262072153811      1.10988446559787
  H   2.66949004631791      0.28553977366408      1.07953176933250
  H   1.24879678603423      0.60891531202330      2.01121192484992
  C   1.63965046395841     -0.18183963760870     -1.12547387407156
  N   2.27062146171960     -0.42875632161626     -2.08758986514684
  N   -1.24594381479815      0.24354634380560      1.20769208578692
  O   -2.46016968247278      0.05182723982235      1.12039691066072
  O   -0.68128019362376      0.61781374687774      2.24804027236886
  C   -1.24037722699898     -0.39023828628484     -1.18737279968159
  H   -1.98639567725516      0.37097804602302     -1.42488522011452
  H   -0.58677862154520     -0.52176906457556     -2.04897178567954
  H   -1.77892720073458     -1.32230727824225     -1.00431253212653
