14
Coordinates from ORCA-job run
  C   0.88697667085263      0.14338353652365      0.04542097122973
  C   -0.47143243422824      0.18829891214221     -0.01549472972277
  N   1.60450258930252     -0.94762335632965     -0.42067705756625
  H   2.56505598135335     -0.98509918519600     -0.11776096742490
  H   1.13567110123862     -1.83847469974001     -0.36878335692361
  C   1.71712138776262      1.21465368747947      0.51978105862767
  N   2.53864477154572      1.97090998264678      0.89161967128946
  N   -1.18441456430892      1.33970364716430      0.51731233766767
  O   -2.36411281329497      1.15095516641701      0.82251573731169
  O   -0.58835315141133      2.40959403283326      0.63146874908856
  C   -1.29714374876173     -0.94483967216469     -0.52480005423418
  H   -1.47429160205899     -1.70166816847390      0.24675174518098
  H   -2.27072520428195     -0.58359172222144     -0.85100812588058
  H   -0.79949898370932     -1.41620216108098     -1.37634597864346
