14
Coordinates from ORCA-job run
  C   0.86367801360519     -0.11397464422656      0.18677281328388
  C   -0.46047327075898     -0.01194852701841     -0.03409345486472
  N   1.44541646100484      0.34650012860327      1.39577230585499
  H   2.25270191637913     -0.20862949315479      1.64638094941065
  H   1.71859125929539      1.31945156989091      1.32030134106021
  C   1.69998734097112     -0.68224441575099     -0.83919885456381
  N   2.41908490570892     -1.11632182415608     -1.66636372506836
  N   -1.25639004756059      0.56884046049724      1.04753027386881
  O   -1.23097866767206      1.79203322281297      1.15957729353867
  O   -1.90613773872807     -0.21953558561777      1.72751474391359
  C   -1.23374945033040     -0.35798825145977     -1.25625924277618
  H   -0.59930498257868     -0.86040667562749     -1.98649629923112
  H   -1.64178855208283      0.55252423746577     -1.70613979814641
  H   -2.07163718725299     -1.00930020225830     -0.99529834628023
