14
Coordinates from ORCA-job run
  C   0.88462637801480      0.14963617936721     -0.06162874653852
  C   -0.47494893860094      0.18091921927924     -0.02066056760653
  N   1.58107917947931     -1.02089563144925     -0.31837387425645
  H   2.56380937721126     -0.98934492875083     -0.09727239035007
  H   1.13329218429849     -1.87582567677963     -0.02762855980742
  C   1.73155013441752      1.29970700028955      0.08543157315683
  N   2.56838751274746      2.11810753834956      0.20851166284672
  N   -1.16345039773543      1.42566416960861      0.28772640806370
  O   -2.31274188229161      1.31544915525011      0.72044217920998
  O   -0.57717686313635      2.49153634981037      0.10542732933634
  C   -1.31718163108354     -1.03917173850048     -0.18522850044014
  H   -0.88544764479050     -1.69025050926864     -0.95001408739670
  H   -1.40831544175509     -1.60272574221283      0.74955272093003
  H   -2.32348196677537     -0.76280538499298     -0.49428514714775
