14
Coordinates from ORCA-job run
  C   0.89921161258128      0.05333187432543      0.19371350894277
  C   -0.45429826911135      0.03908273960062     -0.03763332369379
  N   1.57842699031359      0.47317287420185      1.30014564661974
  H   1.02765759036560      0.60043996078154      2.13540391149631
  H   2.52706705944017      0.15201224562634      1.40105677436530
  C   1.75079808584717     -0.33209016797438     -0.90160974480392
  N   2.47959964342035     -0.65381709211422     -1.76774287063502
  N   -1.36755014350615      0.37460590768433      1.02993127748666
  O   -0.91299226210186      0.73917216027761      2.12607461006477
  O   -2.57209140354722      0.27764559074398      0.78804715978616
  C   -1.10645631940772     -0.35657283967863     -1.32247268948778
  H   -1.74557229201981     -1.22937756942838     -1.17427094541757
  H   -1.74334832355526      0.45117736731123     -1.68880637553196
  H   -0.36145196871877     -0.58878305135731     -2.08283693919166
