14
Coordinates from ORCA-job run
  C   0.88387404680673      0.13771312560211      0.10295370592757
  C   -0.46665140612471      0.18892389039204     -0.05555029117474
  N   1.62710778091874     -0.96396749933510     -0.29124279270452
  H   2.57219469547211     -0.98769670038234      0.05775585421840
  H   1.16064304002495     -1.85562258612626     -0.23759539876384
  C   1.68299307316331      1.21216547106196      0.62206707627891
  N   2.48232279051809      1.96431316336600      1.04687765900792
  N   -1.21058462565400      1.34612356550534      0.42295477401986
  O   -0.61517503696850      2.40641397593544      0.60699517270629
  O   -2.41408151981933      1.16663042363956      0.62210549188437
  C   -1.26770951414844     -0.93919097992934     -0.61288606257087
  H   -1.57410134524242     -1.64940483604629      0.16166898827996
  H   -2.17505859286975     -0.55599488878079     -1.07798986823224
  H   -0.68677338607677     -1.47140612490233     -1.37011430887707
