14
Coordinates from ORCA-job run
  C   0.92047087791066     -0.01407554284006      0.03148008547019
  C   -0.44665785049849      0.08962754560415     -0.04527890312516
  N   1.87517352380522      0.66049547301563     -0.67187776380180
  H   1.55708201528661      1.14914673774860     -1.49476554804883
  H   2.80087128411602      0.26533095521448     -0.68065688175663
  C   1.45103482979747     -0.87813216865490      1.05404616993527
  N   1.92235418834645     -1.58518710728200      1.86808980126111
  N   -1.04642993905203      0.90674806416326     -1.07434084571762
  O   -2.27724175787059      0.91368813954803     -1.13812949788183
  O   -0.31432093225997      1.55527415254874     -1.83877524987077
  C   -1.41808494035821     -0.63103651989579      0.83203228838910
  H   -2.08099121814219      0.08079676978616      1.32810198412060
  H   -2.04747481774483     -1.29868924951206      0.24000423229297
  H   -0.89878526333612     -1.21498724944425      1.59107012873341
