14
Coordinates from ORCA-job run
  C   0.88723845546348      0.10430514082773      0.10418044543241
  C   -0.47177274387549      0.16518732444745      0.09276871989378
  N   1.56749517042407     -1.08348581185806     -0.10825864165746
  H   1.10404635703063     -1.76577912957041     -0.68695895202340
  H   2.54955066436535     -0.98473490047650     -0.31107723228375
  C   1.74985519147596      1.21545766615771      0.39184570840834
  N   2.59625472965358      2.01254207256640      0.57529014255338
  N   -1.14298802249025      1.44139200718270      0.29037324462562
  O   -2.29371517873333      1.52143977636109     -0.14514867103742
  O   -0.54196954229742      2.34695843874348      0.86681171523347
  C   -1.33172651821079     -1.01572410711440     -0.21158250478412
  H   -1.42192383117991     -1.18607055961080     -1.28957639162910
  H   -2.33648559284002     -0.85924202247856      0.17619592743584
  H   -0.91385913878587     -1.91224589517783      0.25413648983240
