14
Coordinates from ORCA-job run
  C   0.89985969146951      0.13854932092799      0.13981812989906
  C   -0.44806131768810     -0.09260068832625      0.01543700091060
  N   1.62061279268341      0.44459643834727      1.25708241412140
  H   2.53395772146671      0.84333933015754      1.11643829298101
  H   1.08892368851432      0.74257482235101      2.06054611973711
  C   1.70461754406329     -0.05199836822286     -1.03884973834338
  N   2.39453467152597     -0.18350407202716     -1.98291601283242
  N   -1.31905132503181      0.12021421172764      1.14792585820456
  O   -0.82767685322156      0.45285164000984      2.23826735660093
  O   -2.52704468676326     -0.04178608343718      0.96409946132981
  C   -1.13987479900836     -0.51102942455050     -1.24115049044409
  H   -1.69355199976833     -1.43796267466742     -1.07752797674877
  H   -0.42328726411921     -0.66794715315344     -2.04671485589483
  H   -1.86295786412259      0.24570270086353     -1.55245555952099
