14
Coordinates from ORCA-job run
  C   0.91030966079792      0.02837560420351      0.14248476500969
  C   -0.44490253883735     -0.01440244845913     -0.03768742674270
  N   1.61459655262225      0.51590590097208      1.21936877228392
  H   2.52356912055928      0.10366657423909      1.39114109384279
  H   1.07631248876713      0.62110647746036      2.06211709997028
  C   1.72696579512552     -0.34491075619807     -0.97626549381314
  N   2.44134090724104     -0.65150524256288     -1.86281956866148
  N   -1.28372886588800      0.47950986886022      1.05333163365589
  O   -0.96796924822335      0.20082694331311      2.21775729098544
  O   -2.26402746445832      1.15375530302060      0.74382602965980
  C   -1.18930491156206     -0.44244110628134     -1.26271307607051
  H   -1.87918652965014     -1.24429997360336     -1.00198944787208
  H   -1.77297419724841      0.38275724572623     -1.66966546470684
  H   -0.49100076924550     -0.79034439069043     -2.01888620754108
