14
Coordinates from ORCA-job run
  C   0.88109566723950     -0.08823765453503      0.25168677700064
  C   -0.44876297828768      0.07751311997536     -0.05042867133216
  N   1.49405292452696     -0.07476847574172      1.46964862054029
  H   2.42957123643263     -0.44145458511539      1.51649151578457
  H   0.89549778838368     -0.16813414341953      2.27516578296906
  C   1.79096067645011     -0.19951262832994     -0.85875708030756
  N   2.56399279204265     -0.31478820186859     -1.73810248412042
  N   -1.41745456107198      0.17958436633685      1.01449883822112
  O   -2.59559232564424      0.34181841615071      0.69007655809014
  O   -1.03473728267486      0.09648182731710      2.19258065848653
  C   -1.02050476134328      0.13541862821014     -1.42974453447767
  H   -1.80888021490525     -0.61259751875622     -1.53803150325189
  H   -0.25195927143253     -0.04094178720856     -2.18290478981300
  H   -1.47727968971570      1.11061863698483     -1.61217968778965
