14
Coordinates from ORCA-job run
  C   0.90989020011432      0.07507892857305      0.11311077586615
  C   -0.45639703286367      0.03063006334457     -0.00616669507553
  N   1.66745118364992      0.61130551356556      1.11581061456067
  H   1.18088059928216      0.78463642568619      1.98265526144752
  H   2.62395908899358      0.30112066642639      1.16736333804361
  C   1.68597436799510     -0.40970036798159     -0.99692558638631
  N   2.37201168339143     -0.79959692509663     -1.87033030001733
  N   -1.29030311207605      0.46390511806134      1.09237314689693
  O   -0.76191188310031      0.92355544047124      2.11700457480473
  O   -2.50900757937365      0.34881545050873      0.94711579134047
  C   -1.20417892807889     -0.48630690574924     -1.19233736411748
  H   -1.82660261725807     -1.33778626356258     -0.90738317160622
  H   -0.51828508526257     -0.78991264224043     -1.98296694958575
  H   -1.87448088541329      0.28225549799338     -1.58132343617146
