14
Coordinates from ORCA-job run
  C   0.88925121682626      0.13354448131006     -0.00961182153757
  C   -0.46921633284031      0.18648444387424     -0.06291495873682
  N   1.58045383008038     -1.05891500222938     -0.15683692078472
  H   2.54627735523677     -1.02925154775040      0.12957489596037
  H   1.09902569752640     -1.89000435382919      0.14892539545524
  C   1.74469464081647      1.27779575343261      0.13367297406467
  N   2.58520110697742      2.09031589174393      0.27004834096954
  N   -1.15448261391128      1.45543196184113      0.13263244170785
  O   -0.53917152637478      2.50161150310137     -0.06743756062319
  O   -2.33128647769367      1.38472986525538      0.49380831173678
  C   -1.32004162160235     -1.02875863718750     -0.21934479875580
  H   -2.29836269807036     -0.75524231487615     -0.61011058087867
  H   -0.84967970200626     -1.72587687279970     -0.91785370530263
  H   -1.48366287496470     -1.53986517188640      0.73544798672494
