14
Coordinates from ORCA-job run
  C   0.90907500192134     -0.07658997530810      0.12825761903528
  C   -0.43116013792919      0.11476284763445     -0.10193195230691
  N   1.97910482462011      0.43704561463547     -0.54389113959095
  H   2.86584369472385     -0.01972009570457     -0.41020955500834
  H   1.78326660923089      0.84914061539203     -1.44315818878495
  C   1.26566676436798     -0.84866358117675      1.29023489212169
  N   1.59614112416242     -1.48747011395072      2.22164190432220
  N   -0.85951168655239      0.84362459976581     -1.27299164688162
  O   -0.00645773251144      1.34896543392508     -2.01986301195118
  O   -2.07367098539866      0.92415451382810     -1.46998716391503
  C   -1.53845309791819     -0.42188069280572      0.74584588934979
  H   -2.16628694056958     -1.10479120099293      0.16992877174921
  H   -2.17953217105317      0.39191830991511      1.09100433728943
  H   -1.14402526709397     -0.95049627515727      1.61311924457138
