14
Coordinates from ORCA-job run
  C   0.87433536555382      0.16690388630992      0.05391825222482
  C   -0.48728314786648      0.16794189333030      0.03451768076043
  N   1.59144924368972     -1.00715758851942     -0.10064992627055
  H   2.57102150920853     -0.88900338994923     -0.30587841117134
  H   1.14772146815035     -1.73152034000139     -0.64347774981205
  C   1.70011668686098      1.30603427359098      0.34043560089209
  N   2.52658310732275      2.11389940923800      0.56288674082861
  N   -1.22224892930036      1.40890010309212      0.25006262513276
  O   -2.43565469797088      1.31441478847061      0.44255135230612
  O   -0.59959321971055      2.46940393029034      0.22253455011133
  C   -1.26560364758383     -1.08763210899543     -0.17449607197430
  H   -0.89118806633752     -1.88153418455644      0.47896672705315
  H   -2.31503140655026     -0.91802392350963      0.05212693979700
  H   -1.19462426546624     -1.43262674879074     -1.21249830987807
