14
Coordinates from ORCA-job run
  C   0.88893693665047      0.13611421518381      0.01344031813742
  C   -0.46744364325195      0.18302889040443     -0.08295397298775
  N   1.58762038846393     -1.05735559096324     -0.08132633208387
  H   2.54374846903064     -1.01704439113685      0.23495538716762
  H   1.09884708519342     -1.88204220988806      0.23009001479987
  C   1.73655586656930      1.28653767120862      0.15382704821620
  N   2.57047407684527      2.10488740520615      0.29564530702518
  N   -1.16154660770747      1.45443269730650      0.05922720557950
  O   -0.54327647729605      2.49709558107867     -0.14973533747878
  O   -2.34855183204898      1.38905580815343      0.38639836572892
  C   -1.30991804311771     -1.03887531847599     -0.23276112632210
  H   -0.81689108780363     -1.75322095772614     -0.89747757519184
  H   -2.27643409255399     -0.77916078802271     -0.66060508042360
  H   -1.50112103897326     -1.52445301232862      0.73027577783323
