14
Coordinates from ORCA-job run
  C   0.87250116264268      0.16557857322342      0.09657958573214
  C   -0.48195968835971      0.17719506120302     -0.03618502614913
  N   1.58161874987889     -1.02382929190878      0.08185975959956
  H   2.57066686034582     -0.93186858014531     -0.09045422333215
  H   1.15572199969239     -1.78717525351884     -0.42064864035630
  C   1.67666489652701      1.31187382183201      0.41011565515034
  N   2.46695972834686      2.14002630593180      0.68371658236595
  N   -1.21265504396075      1.42882608389382      0.10056403487068
  O   -0.60431830970474      2.48269263654421     -0.08481663761283
  O   -2.40729453898472      1.34629629073615      0.39068135179132
  C   -1.25754346707512     -1.08055098234118     -0.24322241353506
  H   -0.93294080523933     -1.59649603295451     -1.15438819100666
  H   -1.10743804555765     -1.76707800828269      0.59751369917680
  H   -2.31998349855162     -0.86549062421312     -0.33031553669468
