14
Coordinates from ORCA-job run
  C   0.88672558067216      0.14018352146890     -0.04713361300734
  C   -0.47305308034355      0.18295126060572     -0.04809744265660
  N   1.57996685693554     -1.05039869016435     -0.19927333163693
  H   1.11373231218957     -1.87966968138046      0.13393547479138
  H   2.55483804582920     -1.01101708136541      0.05336034372073
  C   1.73879206813687      1.29205257791057      0.04427652489990
  N   2.57933808625807      2.11069145219466      0.13767810686576
  N   -1.15943842304715      1.45152115828933      0.14534394409163
  O   -0.56052530510813      2.49612302171023     -0.10646897923945
  O   -2.31992115955793      1.38250467560145      0.55621552890752
  C   -1.31826475028586     -1.04237951323845     -0.14569385811886
  H   -0.88041791298590     -1.74172103045946     -0.86298459217588
  H   -1.42156792560078     -1.54629648018418      0.82146656957690
  H   -2.32020439309211     -0.78354519098856     -0.48262467601877
