14
Coordinates from ORCA-job run
  C   0.88018213373535      0.13124778191136      0.06317963074014
  C   -0.47958318249388      0.18612616541455      0.01910561524127
  N   1.55430358996587     -1.06662077048340     -0.10402675809494
  H   1.09123315230621     -1.76209660952123     -0.66809204588767
  H   2.54128916842907     -0.98326638025955     -0.28970526787760
  C   1.73988080601739      1.23146536391668      0.39691544688161
  N   2.58168418395569      2.00852012978499      0.66636525344518
  N   -1.16613904551284      1.44957834893983      0.25959411249372
  O   -0.51616727554786      2.49074746096826      0.17535955127693
  O   -2.36705510334062      1.39228646216366      0.52801423501571
  C   -1.30476913171521     -1.03451212620792     -0.21685704288179
  H   -2.35159743576802     -0.81891467559704     -0.01837021092551
  H   -0.98483574374190     -1.84634446804618      0.44356913612093
  H   -1.21742611628924     -1.37821668298402     -1.25405165554797
