14
Coordinates from ORCA-job run
  C   0.90542365579434      0.01020444613035      0.17359879306035
  C   -0.45273210311487      0.05864031098923     -0.02396294014071
  N   1.62542553410945      0.34189198782856      1.28398245200994
  H   1.09871324102087      0.44059234693864      2.13845899195330
  H   2.56471484659203     -0.01520544574066      1.34236887842110
  C   1.71498950975371     -0.34824753250591     -0.96195991529175
  N   2.40841006554261     -0.65247011944710     -1.86271323757809
  N   -1.32740999644881      0.36616489449105      1.08373492871861
  O   -0.83412282758068      0.64665317318245      2.18772159143587
  O   -2.53997781711109      0.33069597791805      0.86661285667251
  C   -1.14947064595842     -0.23971777542515     -1.31177240125634
  H   -1.77025255921469      0.60743147674754     -1.61064666946864
  H   -1.81168065596634     -1.10076394258273     -1.20076301834830
  H   -0.43103024741810     -0.44486979852433     -2.10466031018787
