14
Coordinates from ORCA-job run
  C   0.88824689669016      0.13107269140411      0.20682042647316
  C   -0.45567930380024      0.00183845618571     -0.04449903704068
  N   1.51365474809286      0.60713806910323      1.32178933701511
  H   2.48658925075555      0.37412593488145      1.43276613775391
  H   0.94322969177754      0.69134820556376      2.14913645322264
  C   1.78368478003546     -0.18733514434152     -0.87496956292398
  N   2.54868276009189     -0.45216015256010     -1.72900326875145
  N   -1.40902070567696      0.26133782764235      1.00905777127083
  O   -1.00310719172578      0.66404775863690      2.11078972045719
  O   -2.59776604674324      0.06528030046199      0.74899379740801
  C   -1.05261626720393     -0.45284768345444     -1.33643717638953
  H   -0.28085715254307     -0.60168678063254     -2.09054111216319
  H   -1.76677032083860      0.28610450579114     -1.70515891377706
  H   -1.59927113891164     -1.38826398868204     -1.19874457255497
