14
Coordinates from ORCA-job run
  C   0.91618946589154     -0.06543864907660     -0.06611795058953
  C   -0.44352287240519      0.11512588188931      0.00287708432091
  N   1.82823073875691      0.56787957595086     -0.85805493653150
  H   2.72595349679587      0.12646658973787     -0.96782211993387
  H   1.45468560913054      1.09378162199688     -1.63309419225971
  C   1.50127818735364     -0.97749984399919      0.88210070968393
  N   2.01662726424005     -1.72489667508042      1.63084094975005
  N   -1.10012981577362      0.98346440510560     -0.94587626134658
  O   -2.32830150677960      1.06110484303735     -0.87791100664754
  O   -0.41650748210262      1.60520458717901     -1.77491694135087
  C   -1.35659163206142     -0.56850284773857      0.96820308586305
  H   -0.79322535280411     -1.18941499031614      1.66384012566155
  H   -1.92652435775624      0.16869912634670      1.53738227180220
  H   -2.07816174248576     -1.19397362503267      0.43854918157791
