14
Coordinates from ORCA-job run
  C   0.88852193442268      0.11082984913177      0.08357502058581
  C   -0.47090585777967      0.16141604651026      0.10446898121467
  N   1.57272883782284     -1.07289686257541     -0.14517991551192
  H   2.54792872934788     -0.96274374418148     -0.37463079741738
  H   1.10149342354915     -1.75135052154005     -0.72289311084709
  C   1.74984219240338      1.22748140009946      0.35362035641209
  N   2.59588121278398      2.02842938463056      0.52074423391059
  N   -1.14696142928642      1.43317294351149      0.31379783867498
  O   -2.30982832393811      1.50070970445160     -0.09052255861839
  O   -0.53821872623170      2.34707097894109      0.86819868404863
  C   -1.32855623555537     -1.02632741687550     -0.17666278837298
  H   -2.32021263519152     -0.88330195617318      0.24849390804354
  H   -0.88535484392152     -1.92056923441104      0.26950113007301
  H   -1.45735827842558     -1.19292057151955     -1.25151098219556
