14
Coordinates from ORCA-job run
  C   0.87890410343204      0.13710929568302      0.06791647396830
  C   -0.47877582813584      0.19089843767850     -0.02207688456869
  N   1.54255351089825     -1.07357485398292      0.16991045844737
  H   2.53475478862893     -1.03632608765877     -0.00244920406707
  H   1.08706721011576     -1.86786326298672     -0.25160608260005
  C   1.74709489951586      1.27497910416865      0.18264814248502
  N   2.60112267715941      2.07685213325541      0.29607442036248
  N   -1.15858644292950      1.47986211858799     -0.07769354309687
  O   -2.38118884651467      1.47457987549076      0.07562280198921
  O   -0.48363675503497      2.48846307098064     -0.27882863259520
  C   -1.31054282042246     -1.04758240335887     -0.03742667048839
  H   -2.35813010609922     -0.79427752383540      0.10382839738707
  H   -1.00341536778006     -1.72301611448340      0.76690257060096
  H   -1.21622102283351     -1.58010378953888     -0.99082224782412
