11

C	-0.518475	0.088344	-1.43079
C	0.0	0.0	0.0
Br	0.16156	-1.382908	-2.543313
H	1.092821	0.0	0.0
H	-1.60367	-0.020298	-1.488523
H	-0.298659	0.909826	0.534213
C	-0.161036	1.356077	-2.061948
N	0.038252	2.392342	-2.578236
C	-0.546847	-1.157515	0.685302
N	-0.974967	-2.094319	1.252482
H	2.684617	0.0	0.0
