11

C	-0.388273	-0.012688	-1.477634
C	0.0	0.0	0.0
Br	0.040017	1.721614	-2.282415
H	1.092673	0.0	0.0
H	0.251151	-0.73355	-1.99676
H	-0.382536	0.891575	0.501691
C	-1.79317	-0.293211	-1.745503
N	-2.927823	-0.523046	-1.951382
C	-0.483577	-1.200348	0.661037
N	-0.872388	-2.175701	1.190419
H	2.691635	0.0	0.0
