11

C	-0.354283	0.07196	-1.472474
C	0.0	0.0	0.0
Br	-2.271264	0.398276	-1.851242
H	1.095069	0.0	0.0
H	0.171449	0.912729	-1.930321
H	-0.358172	-0.926094	0.455159
C	0.011557	-1.157273	-2.166831
N	0.269465	-2.148713	-2.741616
C	-0.482919	1.149406	0.739718
N	-0.839258	2.087587	1.351706
H	2.66726	0.0	0.0
