11

C	-0.382875	-0.016502	-1.475902
C	0.0	0.0	0.0
Br	-0.099248	1.72487	-2.320638
H	1.092853	0.0	0.0
H	0.320817	-0.690261	-1.976605
H	-0.288416	-0.965287	0.433152
C	-1.755331	-0.431473	-1.739516
N	-2.857819	-0.794975	-1.926534
C	-0.604865	1.070072	0.765478
N	-1.066722	1.933169	1.416714
H	2.678111	0.0	0.0
