16

C	-0.324409	0.179121	-1.468089
C	0.0	0.0	0.0
F	-1.627728	0.5773	-1.694884
H	1.094783	0.0	0.0
H	-0.450923	-0.895918	0.416888
C	0.659058	1.055097	-2.193958
H	1.65379	0.767665	-1.842032
H	0.463663	2.082571	-1.892364
H	0.557482	0.950592	-3.27482
N	-0.271276	-1.249532	-2.038344
O	0.700414	-1.574947	-2.713695
O	-1.222042	-1.97656	-1.761625
N	-0.46928	1.124529	0.816671
O	-0.864909	0.862342	1.955191
O	-0.400131	2.267546	0.360923
F	2.56319	0.0	0.0
