16

C	-0.294266	-0.035739	-1.472013
C	0.0	0.0	0.0
F	0.075999	1.124492	-2.080336
H	1.088443	0.0	0.0
H	-0.336656	-0.912889	0.487434
C	0.496878	-1.172327	-2.08252
H	1.522013	-1.028484	-1.721654
H	0.114148	-2.137119	-1.741697
H	0.440858	-1.110767	-3.172986
N	-1.774727	-0.226708	-1.787181
O	-2.349271	-1.099996	-1.1371
O	-2.277102	0.435059	-2.685306
N	-0.616892	1.122406	0.71514
O	-0.356654	1.220837	1.911427
O	-1.368715	1.885947	0.100257
F	2.575433	0.0	0.0
