16

C	-0.615377	0.214275	-1.365082
C	0.0	0.0	0.0
F	-0.426974	-0.970704	-2.048965
H	1.095608	0.0	0.0
H	-0.337535	-0.973998	0.356039
C	-2.086816	0.543513	-1.410377
H	-2.624701	-0.245394	-0.87987
H	-2.283139	1.505109	-0.945447
H	-2.426705	0.572322	-2.447388
N	0.161979	1.248624	-2.184723
O	-0.353502	2.355725	-2.337167
O	1.235131	0.884475	-2.643761
N	-0.445374	0.982783	0.979849
O	-0.517239	2.163763	0.623844
O	-0.662079	0.596954	2.131454
F	2.49746	0.0	0.0
