16

C	-0.394032	0.27564	-1.424336
C	0.0	0.0	0.0
F	-1.709296	0.677952	-1.535332
H	1.091795	0.0	0.0
H	-0.325479	0.849399	0.601734
C	0.545374	1.329286	-1.969428
H	0.417196	1.445651	-3.047766
H	1.560484	1.024409	-1.698118
H	0.315983	2.2773	-1.478127
N	-0.257748	-0.950051	-2.322847
O	0.875185	-1.394535	-2.442452
O	-1.261082	-1.357185	-2.89669
N	-0.591217	-1.187339	0.618544
O	-0.769139	-2.193313	-0.071494
O	-0.833577	-1.125791	1.826313
F	2.559117	0.0	0.0
