17
Coordinates from ORCA-job run
  C   0.68664491495639      0.35059851433793     -0.15439834326145
  C   -0.82796649058551      0.25555599674119     -0.28393604321772
  H   0.98310132752602      1.39801262941960     -0.19496430845066
  H   -1.10120890760998      0.81889839381736     -1.18235526387847
  C   1.41239580372152     -0.46747576256403     -1.20810515452617
  H   1.16448254250477     -1.52381510479241     -1.10972425956798
  H   2.48885476103575     -0.32435166211578     -1.11162603527152
  H   1.10192608267391     -0.13869805000377     -2.20187412555355
  N   1.14752884565113     -0.10566631748455      1.20279162278946
  O   2.29703079405095      0.18786695044162      1.50848120368252
  O   0.36639619427901     -0.75790787115889      1.89682665455999
  N   -1.45747179189206      1.10609085896926      0.84688249045773
  O   -0.92582240929512      2.18875259136258      1.07613975587188
  O   -2.46092783210649      0.66395990035678      1.39040241957173
  N   -1.33787815218662     -1.05857538443446     -0.37196541422444
  H   -1.21548141125577     -1.54160123615319      0.50807311840222
  H   -2.31960427146789     -1.05364444673924     -0.61064831738356
