17
Coordinates from ORCA-job run
  C   0.62389668833190      0.45556376971626     -0.14347122368751
  C   -0.86518160921404      0.15152270131247     -0.24746519951595
  H   0.76574933633964      1.53524939579168     -0.11595583935420
  H   -1.24339489030901      0.72935319676053     -1.09729282717029
  C   1.42646995814201     -0.17586716393244     -1.26749194148458
  H   2.47461246126241      0.11130003007331     -1.18056509263964
  H   1.04522337409377      0.17517070255771     -2.22851064149371
  H   1.33142725080339     -1.26090017082258     -1.24242888747160
  N   1.18727412585634     -0.01944740659851      1.16769983572840
  O   0.53222416965927     -0.82811036343821      1.82671639706896
  O   2.28981758308120      0.41995821341437      1.47153686780776
  N   -1.57278242118280      0.82422898436293      0.95465447381247
  O   -1.19855523219694      1.95744278001133      1.24329505187598
  O   -2.47972277139900      0.20339255560530      1.49296443478710
  N   -1.18546998171110     -1.21291160353761     -0.41813597129256
  H   -0.96655638794237     -1.73319669112193      0.42082205816344
  H   -2.16403165361467     -1.33474893015461     -0.63737149513406
