14

C	-0.325182	0.011898	-1.527098
C	0.0	0.0	0.0
Br	0.598172	1.531934	-2.371003
H	1.095597	0.0	0.0
C	0.136177	-1.208483	-2.183536
N	0.480188	-2.189839	-2.731681
C	-1.754061	0.207731	-1.772398
N	-2.911511	0.389498	-1.882098
C	-0.574303	-1.215781	0.558821
N	-1.037518	-2.198935	1.010034
N	-0.430471	1.16677	0.723866
H	0.283629	1.875685	0.632942
H	-1.334064	1.526289	0.437082
F	2.4967	0.0	0.0
