15

C	0.0	0.0	0.0
C	-0.430124	0.028379	-1.464617
Br	2.011084	0.0	0.0
H	0.135379	-0.714428	-2.032123
H	-1.491234	-0.23771	-1.442516
N	-0.518469	1.026086	0.774901
H	-0.97616	1.682131	0.153125
H	-1.176398	0.668869	1.455153
N	-0.316181	-1.360202	0.610835
O	-0.318811	-2.32031	-0.150069
O	-0.498847	-1.402823	1.820437
N	-0.303013	1.397049	-1.951002
H	-0.991265	1.566387	-2.670669
H	0.621244	1.560759	-2.327821
Cl	-3.565076	0.0	0.0
