15

C	0.0	0.0	0.0
C	-0.527841	0.115591	-1.426485
Br	1.93558	0.0	0.0
H	-0.34124	1.15827	-1.692712
H	-1.612792	-0.021931	-1.336859
N	-0.54597	1.011117	0.803645
H	-0.327363	0.831566	1.776997
H	-1.567146	0.960204	0.684011
N	-0.325539	-1.419304	0.57912
O	-0.471216	-2.350674	-0.202122
O	-0.374256	-1.502828	1.801163
N	0.124326	-0.748507	-2.402888
H	-0.000362	-0.33748	-3.319729
H	-0.338358	-1.647793	-2.398434
Cl	-3.650121	0.0	0.0
