15

C	0.0	0.0	0.0
C	-0.360107	-0.18612	-1.501354
Br	2.005101	0.0	0.0
H	0.409457	-0.822896	-1.935745
H	-0.238805	0.81626	-1.927596
N	-0.595857	1.092783	0.613811
H	-1.593848	1.086305	0.378864
H	-0.511045	1.028591	1.621793
N	-0.258136	-1.334348	0.768804
O	-0.542873	-1.237073	1.957076
O	-0.129358	-2.382767	0.147142
N	-1.640195	-0.727842	-1.857394
H	-2.430994	-0.248511	-1.42936
H	-1.699637	-1.690226	-1.552078
Cl	-4.070506	0.0	0.0
