12
Coordinates from ORCA-job run
  C   0.39644312586212      0.31115080392134      0.36766780441456
  C   -1.03707244678947      0.26635650314928     -0.14963323877911
  F   1.01485721643668      1.43824733194944     -0.03503905708963
  H   -1.57724120387084      1.11710305488606      0.27486685750935
  H   -1.51176405958395     -0.65600822138400      0.19132215761238
  C   0.45031806969082      0.18863850772343      1.82657575549606
  N   0.46242963472320      0.11794707398798      2.99912276531089
  N   1.15319423160244     -0.89098548314864     -0.22567584824314
  O   0.70340430413340     -1.97699733684002      0.11254446973214
  O   2.08426342303786     -0.64891603388635     -0.97203396461726
  C   -1.06090899593287      0.34001437562795     -1.60788875636146
  N   -1.07692329930940      0.39344942401354     -2.77982894498478
