12
Coordinates from ORCA-job run
  C   0.44655361894655      0.31245811413408      0.41472380198658
  C   -0.60085060999164      0.80186724893211     -0.56960828148683
  F   1.30302334069223      1.33537290489619      0.68993520413852
  H   -1.14313141154637      1.62526275081432     -0.09669258351993
  H   -0.08343754171335      1.17905748901061     -1.45369624561866
  C   -0.13002105652197     -0.21078054893385      1.65348248946516
  N   -0.64549775635602     -0.58095128150678      2.64220976428153
  N   1.31701491764178     -0.77957828068407     -0.22817003167658
  O   1.48492589950269     -0.68200201075578     -1.43673317614024
  O   1.82496454456925     -1.58875231293258      0.53669321770534
  C   -1.51969737316567     -0.27009967960558     -0.93583362714310
  N   -2.25384657205749     -1.14085439336867     -1.21731053199181
