12
Coordinates from ORCA-job run
  C   0.45086685496702      0.21302336326224      0.20504767274583
  C   -0.71657175049477     -0.05067851180224     -0.74048551902092
  F   1.00485553602045      1.41346824290488     -0.05241778957920
  H   -1.11328568491302     -1.05085653606898     -0.55355687694903
  H   -0.33136899087903     -0.00961029396161     -1.76453276533414
  C   0.08425816339326      0.10831515378977      1.61836119284275
  N   -0.23230593759129      0.03886289204704      2.74762999966385
  N   1.50410148383899     -0.87281892964322     -0.08416108218671
  O   1.14184007537838     -2.00995072687376      0.18422052678622
  O   2.55872329017725     -0.50588566658648     -0.57156751107361
  C   -1.75751936780783      0.95659538048859     -0.56516740659682
  N   -2.59259367208941      1.76853563244377     -0.42437044129822
