12
Coordinates from ORCA-job run
  C   0.46509776644208      0.34585217891229      0.41764516593907
  C   -0.60084233368026      0.75663049087094     -0.59155121371317
  F   1.29334213982969      1.40030580095079      0.61393849627673
  H   -1.15487191023405      1.60055182661764     -0.17126682205547
  H   -0.07861297406306      1.09694109247923     -1.49060437324158
  C   -0.07924046002325     -0.11558285594354      1.69381040363205
  N   -0.54659801687144     -0.41310335368116      2.72989810792782
  N   1.29996878280223     -0.77787044466846     -0.21430447146223
  O   2.08609456976943     -0.40769912667469     -1.07270469274645
  O   1.06153908912703     -1.91894588643829      0.15649176300380
  C   -1.50734574945611     -0.34138760792857     -0.90618856752551
  N   -2.23753090364229     -1.22269211449617     -1.16516379603506
