12
Coordinates from ORCA-job run
  C   0.41337708026233      0.28600133756996      0.37025539174269
  C   -1.01133905046781      0.34589197893776     -0.16911330050244
  F   1.12389109276372      1.35532120735785     -0.03745265496957
  H   -1.56271419051141     -0.53038433243823      0.17794406403808
  H   -1.48915071486067      1.24341793454183      0.23331269084154
  C   0.43756065639051      0.17917350293728      1.83107514830803
  N   0.43243379264994      0.12272589408457      3.00450950225950
  N   1.08217458232411     -0.98005296959286     -0.19680681132517
  O   2.03907788961165     -0.82153710160271     -0.93270641689668
  O   0.54488955137740     -2.02302112732987      0.14921793708106
  C   -1.00709867684887      0.39645390286204     -1.62868969562044
  N   -1.00210201269091      0.42600977267239     -2.80154585495660
