12
Coordinates from ORCA-job run
  C   0.43289195508000      0.27582331360170      0.35587271746408
  C   -0.98144503119845      0.40893945903934     -0.19778099342699
  F   1.22316760555033      1.26252913182727     -0.10873776474203
  H   -1.39333726933449      1.36119149833119      0.14784386046783
  H   -1.59729243194656     -0.40254503469454      0.19534242570932
  C   0.44182731161863      0.25508844486299      1.82062960586112
  N   0.41967965272055      0.26863282253860      2.99509696413380
  N   1.00725049657875     -1.06855627721570     -0.12913728913400
  O   1.97839922781490     -1.02639222444979     -0.86229803892933
  O   0.39034428450221     -2.04588382401393      0.27132140534411
  C   -0.96739243263827      0.37397898438386     -1.65775340214821
  N   -0.95409336874761      0.33819370578901     -2.83039949059971
