12
Coordinates from ORCA-job run
  C   0.42606627307172      0.14409921118592      0.24181140845391
  C   -0.68159852573565      0.05997969039126     -0.79551037997059
  F   1.03677820200760      1.35729074841280      0.17478113630175
  H   -1.09958607067632     -0.95070077097045     -0.80375553964235
  H   -0.23965777343183      0.25377320144388     -1.77483283485283
  C   -0.04684175859355     -0.11060781071693      1.60311173254833
  N   -0.48639347483808     -0.30457575821217      2.67509394819478
  N   1.52204732488534     -0.88115158154775     -0.09804662761516
  O   2.15870380437405     -1.33316199528797      0.84416205503405
  O   1.70267432998137     -1.09236065217597     -1.29076150863018
  C   -1.72636074393178      1.03650933490626     -0.50378008564470
  N   -2.56683158711288      1.82190638257113     -0.27327330417701
