12
Coordinates from ORCA-job run
  C   0.33395655103812      0.22686446281933      0.47615261582805
  C   -0.97051957479214      0.37046673726367     -0.29981147441735
  F   1.08374054397554      1.33984710153737      0.36221183089802
  H   -1.55354555454974     -0.54632414629762     -0.19069893263245
  H   -1.53549592602286      1.19950577480277      0.13520203819497
  C   0.09396795222221     -0.09024934030495      1.88600701686288
  N   -0.12834545589841     -0.31612500078592      3.01720049911553
  N   1.12159295987719     -0.94793476879305     -0.13397806964408
  O   2.19277407174008     -0.68937061586732     -0.65176365211182
  O   0.55330279054710     -2.02740491953305     -0.04493710808053
  C   -0.70378003400129      0.63746862241714     -1.71065854518322
  N   -0.48764832413579      0.84525609274164     -2.84492621882999
