12
Coordinates from ORCA-job run
  C   0.47888479247101      0.32630585176936      0.41726820709052
  C   -0.58311557003700      0.78217699360146     -0.57653330298176
  F   1.34132906502171      1.35195897066303      0.61879011615158
  H   -0.05872057378421      1.11817897381556     -1.47593534190870
  H   -1.10794436341795      1.63680829892346     -0.14072753307429
  C   -0.06771782853487     -0.13415327495391      1.69290173231284
  N   -0.53473263471437     -0.43236421312468      2.72891326855029
  N   1.27288200775864     -0.81470610486681     -0.23600537737409
  O   1.00239568050023     -1.95268847622088      0.12211465288463
  O   2.06402155469112     -0.45774011159488     -1.09545147597737
  C   -1.52470491360891     -0.28462306264413     -0.89621956940535
  N   -2.28357721634538     -1.14015384536759     -1.15911537626828
