12
Coordinates from ORCA-job run
  C   0.47875734168615      0.34376832404437      0.40362961669003
  C   -0.63847149687450      0.76059110761678     -0.54587671393195
  F   1.30077895406111      1.40552665841831      0.58573289123857
  H   -1.18542820304066      1.58551737574545     -0.08098432653577
  H   -0.16350880512987      1.13007388125537     -1.45951640724764
  C   0.00036219661966     -0.15366941234335      1.69272429645994
  N   -0.41373892813019     -0.48280127332430      2.74179540515412
  N   1.29877621876024     -0.75361822941007     -0.29098939260800
  O   2.04302431096290     -0.35279880188713     -1.17265321683058
  O   1.09051834441520     -1.90626029460777      0.06182776413532
  C   -1.54126437018225     -0.34512322106856     -0.84465302388465
  N   -2.26880556314777     -1.23220611443909     -1.09103689263939
