12
Coordinates from ORCA-job run
  C   0.40508393695747      0.26876342533093      0.38918774986737
  C   -1.00382725882873      0.35450055625597     -0.18711227335595
  F   1.13369988656306      1.34411181733877      0.03289797990278
  H   -1.56707048113428     -0.53214977522803      0.11101379414048
  H   -1.49060103023705      1.23778353555961      0.23552494020687
  C   0.38666025795690      0.11942592644530      1.84634042065335
  N   0.33992456733788      0.02895421357724      3.01666385891163
  N   1.08140776325646     -0.98529533965581     -0.19565937061342
  O   0.52659020138745     -2.03371851893474      0.10279653623833
  O   2.06176319111896     -0.81261648353574     -0.89662375559582
  C   -0.95748060448581      0.46244105004872     -1.64274370471955
  N   -0.91715042989230      0.54679959279778     -2.81228617563607
