12
Coordinates from ORCA-job run
  C   0.46682418979742      0.36055090812160      0.40251303306531
  C   -0.62061562582632      0.73629222505074     -0.59705150967143
  F   1.28449774594386      1.42934527618832      0.56283757605015
  H   -0.11756870827787      1.06232765140144     -1.51218837208903
  H   -1.17695282017892      1.58343630361438     -0.18663108269902
  C   -0.04928823530808     -0.08160891766231      1.69710953730700
  N   -0.49242342591882     -0.36906735361629      2.74662729732510
  N   1.30642532880645     -0.76593618000599     -0.21964556222472
  O   2.07596550028401     -0.40310059049803     -1.09575504311862
  O   1.08732584769603     -1.90211731772643      0.17737662766556
  C   -1.51964439032504     -0.37848250284015     -0.87220247927897
  N   -2.24654540669274     -1.27063950202729     -1.10199002233134
