12
Coordinates from ORCA-job run
  C   0.38208194738715      0.32674029277714      0.36918618123318
  C   -1.04448867987176      0.22895959133234     -0.15982965702271
  F   0.96458586842529      1.47199414773575     -0.03463821947234
  H   -1.61959786995157      1.05989042490761      0.25786271693349
  H   -1.48798431932042     -0.70934961392968      0.17945435743637
  C   0.42792058073185      0.21265471223028      1.82906758361378
  N   0.43035792782199      0.14548359061575      3.00186532748886
  N   1.18528600414154     -0.85201295022268     -0.21194619180343
  O   0.77095845630510     -1.95128113340475      0.12867342120818
  O   2.11378406210199     -0.58099533644246     -0.95151860359261
  C   -1.05760162480726      0.29876780953946     -1.61847906797831
  N   -1.06430235296391      0.34914846486123     -2.79069784804446
