12
Coordinates from ORCA-job run
  C   0.34667910109781      0.24363649207088      0.45710240092713
  C   -0.96179540868992      0.38347062571188     -0.31292153858163
  F   1.13129261616462      1.32169830985536      0.26513925515859
  H   -1.49307589446364      1.25667208799490      0.07548054183369
  H   -1.57457059185324     -0.50385573536931     -0.14153215916328
  C   0.11461079623514      0.02514367269047      1.88694540732901
  N   -0.09893876661109     -0.11930485251325      3.03302471080992
  N   1.08691590179946     -0.99249252029967     -0.08554239120773
  O   0.48275648563546     -2.04363635650796      0.07648195516915
  O   2.16113907115360     -0.80471587837075     -0.62678591004538
  C   -0.70227186701957      0.55284897188585     -1.74006495683585
  N   -0.49174144344865      0.67953518285158     -2.88732731539363
