12
Coordinates from ORCA-job run
  C   0.39635077002445      0.29439506137927      0.37825455004591
  C   -1.01857321425559      0.30913777365958     -0.18959957966638
  F   1.08042749934739      1.38613400651806     -0.01453940028857
  H   -1.53695059306148      1.18429101023854      0.21186803849669
  H   -1.54451026517009     -0.59018416362825      0.13725463347141
  C   0.39378334085385      0.18763594549493      1.83925601861945
  N   0.36487493413956      0.13501438385606      3.01240721186052
  N   1.11632750743353     -0.94912159977627     -0.17542181816379
  O   0.60814518800829     -2.00912649440852      0.16256018756009
  O   2.08057636109275     -0.75958263605404     -0.89432176372226
  C   -0.98582007337235      0.37808760891026     -1.64800828246779
  N   -0.95563145504031      0.43131910381037     -2.81970979574527
