12
Coordinates from ORCA-job run
  C   0.47471889434150      0.36323379065152      0.39136503554284
  C   -0.65831868297893      0.73347382316635     -0.55879177650386
  F   1.27572456157093      1.44612797398730      0.54101383211722
  H   -0.19779009810361      1.08909285024234     -1.48520903396739
  H   -1.21853215984644      1.55867919932055     -0.11051455848773
  C   0.01766165642446     -0.11234009063462      1.69631347314582
  N   -0.38151612334623     -0.42302996802279      2.75679960736975
  N   1.31158815526415     -0.73330112355955     -0.28411153133187
  O   1.12958718859204     -1.88130443614123      0.09726820971449
  O   2.04003338777601     -0.33847753029332     -1.18161220975663
  C   -1.54076186530887     -0.39728150000140     -0.82248235074562
  N   -2.25139491438500     -1.30487298871515     -1.04203869709702
