12
Coordinates from ORCA-job run
  C   0.38332741328333      0.32992361267801      0.36518630246071
  C   -1.03023974865450      0.25629783705965     -0.20194781997925
  F   1.01778344505765      1.43362964670406     -0.07414844450766
  H   -1.58604229328410      1.12685525226652      0.15714841891817
  H   -1.51735858189954     -0.64787551389156      0.16857379723823
  C   0.38177697571248      0.28536147954847      1.82941920131980
  N   0.34729086724102      0.28064677607401      3.00374368718467
  N   1.15942640606702     -0.90206925399755     -0.13578401842393
  O   0.69588271052339     -1.96918648683707      0.24189615524537
  O   2.11816816394377     -0.69923589211351     -0.85842486151992
  C   -0.99891773177927      0.25481984384438     -1.66188176481509
  N   -0.97109762621126      0.25083269866459     -2.83478065312112
