12
Coordinates from ORCA-job run
  C   0.47001908298284      0.32855568016959      0.42682171289923
  C   -0.59320052558874      0.78011767513528     -0.56760704952165
  F   1.31138504858044      1.36656472410224      0.65129977116098
  H   -0.06896586394460      1.14233569139174     -1.45695040946037
  H   -1.13893269088877      1.61642139498543     -0.12193436222892
  C   -0.07702158829170     -0.16271211784735      1.69065279263554
  N   -0.54458756389358     -0.48582463854919      2.71891026267942
  N   1.28976216573256     -0.78681147667024     -0.23934769822514
  O   1.03262110158434     -1.93547320405486      0.09344632639906
  O   2.08337155284850     -0.40103118294281     -1.08378253903371
  C   -1.51103125400978     -0.29924766513855     -0.91357130267200
  N   -2.25241946511151     -1.16289488058130     -1.19893750463244
