15

C	-0.473138	-0.008841	-1.437059
C	0.0	0.0	0.0
Cl	0.254834	1.328118	-2.347389
H	1.092552	0.0	0.0
H	-0.351846	0.947993	0.423212
N	-0.04462	-1.338187	-2.07877
O	1.08711	-1.425323	-2.516202
O	-0.881598	-2.239225	-2.016714
C	-1.928577	0.084474	-1.584675
N	-3.094384	0.23175	-1.628463
C	-0.512579	-1.184997	0.806637
H	-0.031834	-2.108067	0.476759
H	-1.598993	-1.325004	0.771286
H	-0.215127	-1.031991	1.847001
F	2.597422	0.0	0.0
