15

C	-0.388524	0.026595	-1.445434
C	0.0	0.0	0.0
Cl	-2.18134	-0.08302	-1.743898
H	1.09344	0.0	0.0
H	-0.331236	-0.97183	0.380938
N	0.072901	1.341462	-2.092615
O	1.075452	1.287428	-2.789164
O	-0.57315	2.342919	-1.821125
C	0.221276	-1.072286	-2.188172
N	0.660005	-2.010521	-2.740224
C	-0.520309	1.140636	0.854869
H	-0.000219	2.067117	0.613926
H	-0.285814	0.904082	1.894278
H	-1.598257	1.308714	0.769876
F	2.577213	0.0	0.0
