15

C	-0.407829	-0.004127	-1.445091
C	0.0	0.0	0.0
Cl	-2.18106	-0.22345	-1.723292
H	1.093434	0.0	0.0
H	-0.338446	-0.955687	0.414408
N	-0.012603	1.345233	-2.072495
O	-0.806832	2.270812	-1.971086
O	1.111242	1.397795	-2.548085
C	0.281519	-1.054287	-2.190696
N	0.780491	-1.938945	-2.782388
C	-0.525779	1.179587	0.800398
H	-1.602121	1.348696	0.6958
H	-0.300427	1.001752	1.854781
H	-1.1e-05	2.092758	0.515334
F	2.578547	0.0	0.0
