15

C	-0.424945	0.060937	-1.451862
C	0.0	0.0	0.0
Cl	0.319026	1.423366	-2.302367
H	1.09278	0.0	0.0
H	-0.387917	-0.945784	0.392877
N	0.018635	-1.260873	-2.116952
O	-0.658947	-2.22979	-1.783369
O	0.980613	-1.267332	-2.862224
C	-1.874964	0.144893	-1.649822
N	-3.041318	0.255466	-1.751038
C	-0.50824	1.18115	0.81063
H	-0.071463	2.110219	0.438922
H	-0.162697	1.059774	1.840223
H	-1.600673	1.281507	0.821075
F	2.602867	0.0	0.0
