15

C	-0.431646	0.036047	-1.443019
C	0.0	0.0	0.0
Cl	0.316747	-1.25269	-2.401091
H	1.092882	0.0	0.0
H	-0.3542	0.931113	0.457299
N	-1.969031	-0.132387	-1.509394
O	-2.436614	-1.245168	-1.705039
O	-2.608429	0.878177	-1.228698
C	-0.132714	1.318533	-2.07823
N	0.098459	2.349105	-2.592492
C	-0.5084	-1.215811	0.75748
H	-1.592788	-1.222824	0.920297
H	-0.011682	-1.232274	1.730245
H	-0.231706	-2.136552	0.240088
F	2.588554	0.0	0.0
