15

C	-0.477911	-0.008495	-1.435679
C	0.0	0.0	0.0
Cl	0.190302	1.372769	-2.325674
H	1.092544	0.0	0.0
H	-0.351764	0.948189	0.42233
N	-0.001662	-1.30922	-2.1069
O	1.100153	-1.328982	-2.62362
O	-0.77808	-2.257411	-1.993021
C	-1.936281	0.028299	-1.577397
N	-3.108371	0.113708	-1.617703
C	-0.506532	-1.181132	0.816678
H	-0.205362	-1.01796	1.854394
H	-1.592977	-1.322764	0.788116
H	-0.025849	-2.105756	0.492311
F	2.599295	0.0	0.0
