17

C	-0.322187	0.101931	-1.495326
C	0.0	0.0	0.0
Cl	-2.008173	0.618935	-1.825449
H	1.093781	0.0	0.0
C	0.67499	1.020655	-2.167338
H	0.464573	2.047728	-1.862738
H	0.606543	0.951122	-3.256272
H	1.66324	0.733175	-1.784426
N	-0.156169	-1.313951	-2.046655
O	1.006001	-1.677987	-2.172003
O	-1.146708	-1.990368	-2.292258
N	-0.493367	-1.221764	0.602867
H	-1.405015	-1.101033	1.024989
H	0.171599	-1.513087	1.307935
C	-0.42655	1.220694	0.680488
N	-0.776482	2.169053	1.283566
F	2.577681	0.0	0.0
