17

C	-0.217701	0.130781	-1.509453
C	0.0	0.0	0.0
Cl	0.037658	1.823285	-2.019614
H	1.106626	0.0	0.0
C	0.751189	-0.767344	-2.249736
H	0.750494	-0.551445	-3.316324
H	0.463707	-1.811651	-2.10027
H	1.726944	-0.586805	-1.778485
N	-1.653206	-0.190773	-1.938809
O	-2.521337	-0.201045	-1.06653
O	-1.849926	-0.42637	-3.129149
N	-0.337379	-1.30269	0.548886
H	0.450757	-1.920924	0.416042
H	-1.191047	-1.695459	0.178975
C	-0.594064	1.072655	0.784293
N	-1.046058	1.922015	1.459609
F	2.593433	0.0	0.0
