17

C	0.0	0.0	0.0
C	-0.396566	0.047127	-1.510183
F	1.380894	0.0	0.0
H	-1.447005	0.359944	-1.554383
N	-0.34605	1.136354	0.793037
O	0.331979	1.766273	1.572116
O	-1.547075	1.522654	0.343271
N	-0.616278	-1.101435	0.640168
H	-0.313377	-1.17433	1.614137
H	-0.478648	-1.939406	0.090987
N	-0.317679	-1.356484	-1.97063
H	-0.811726	-1.336146	-2.861652
H	0.658841	-1.434942	-2.265845
N	0.381038	0.96992	-2.225049
O	0.976938	0.639324	-3.311734
O	0.266237	2.160994	-1.643635
H	-2.138627	0.0	0.0
