15

C	-0.552082	-0.028352	-1.397088
C	0.0	0.0	0.0
F	0.071628	0.81838	-2.249488
H	1.085836	0.0	0.0
H	-0.348854	-0.857917	0.568208
N	-0.251378	-1.433974	-2.018162
O	-0.505572	-1.530027	-3.2176
O	0.124293	-2.348077	-1.294235
N	-1.942358	0.219633	-1.472909
H	-2.45208	-0.321409	-0.790187
H	-2.284333	0.049012	-2.4106
N	-0.439946	1.197379	0.704567
O	-0.913357	1.051924	1.842907
O	-0.22844	2.289275	0.172398
H	2.629022	0.0	0.0
