15

C	-0.52314	-0.06992	-1.403884
C	0.0	0.0	0.0
F	-0.598926	-1.416884	-1.757584
H	1.090945	0.0	0.0
H	-0.351057	-0.840306	0.590085
N	-2.052807	0.29161	-1.442628
O	-2.471433	0.918274	-2.413902
O	-2.745579	-0.148994	-0.532805
N	0.178625	0.655679	-2.342203
H	-0.414885	1.117529	-3.012194
H	0.879326	1.248528	-1.929906
N	-0.411092	1.212544	0.684646
O	-0.48066	1.171577	1.916721
O	-0.565824	2.243747	0.011135
H	2.59998	0.0	0.0
