15

C	-0.457155	-0.044642	-1.424163
C	0.0	0.0	0.0
F	-0.014348	1.093901	-2.04695
H	1.08491	0.0	0.0
H	-0.330948	-0.873218	0.562355
N	0.251052	-1.196861	-2.138415
O	0.382386	-2.242758	-1.522828
O	0.538775	-1.001853	-3.314413
N	-1.839243	-0.271416	-1.620406
H	-2.060199	-0.097398	-2.594543
H	-2.30362	0.411454	-1.032059
N	-0.472198	1.211079	0.669355
O	-1.494198	1.789642	0.258993
O	0.207259	1.596682	1.61989
H	2.685304	0.0	0.0
