15

C	-0.384565	-0.204307	-1.44705
C	0.0	0.0	0.0
F	-1.6552	-0.705511	-1.557068
H	1.089631	0.0	0.0
H	-0.312161	-0.889341	0.548289
N	-0.36478	1.092707	-2.259275
O	-1.436326	1.549182	-2.634562
O	0.745582	1.546059	-2.489669
N	0.520901	-1.09267	-2.106919
H	1.467325	-0.825265	-1.804854
H	0.34711	-2.022036	-1.740054
N	-0.54748	1.147918	0.704241
O	-0.594941	2.232392	0.114026
O	-0.846586	0.988664	1.893986
H	2.627342	0.0	0.0
