17

C	0.0	0.0	0.0
C	-0.388575	-0.070912	-1.511667
Br	1.956395	0.0	0.0
H	0.155639	0.786085	-1.930294
C	-0.598642	1.208276	0.666246
H	-0.345774	2.102396	0.091308
H	-0.235697	1.312528	1.686978
H	-1.689231	1.053278	0.664756
N	-0.41952	-1.246565	0.765096
O	-0.453151	-1.15336	1.986874
O	-0.657003	-2.258259	0.114102
N	-1.783726	0.051432	-1.838174
H	-2.468328	-0.184933	-1.046931
H	-1.991614	1.027273	-2.017684
C	0.209473	-1.239238	-2.199855
N	0.693276	-2.087382	-2.854107
H	-3.496577	0.0	0.0
