17

C	0.0	0.0	0.0
C	-0.526463	-0.098494	-1.483911
Br	1.942447	0.0	0.0
H	-0.520183	0.948704	-1.818017
C	-0.619132	1.155577	0.733968
H	-1.711124	1.007304	0.698951
H	-0.283869	1.195421	1.769151
H	-0.352447	2.084665	0.225592
N	-0.337563	-1.309029	0.713294
O	-0.217834	-2.337528	0.055598
O	-0.666235	-1.251543	1.890805
N	-1.84431	-0.629306	-1.671887
H	-2.592998	-0.242303	-0.993872
H	-1.822895	-1.629071	-1.504611
C	0.400345	-0.818315	-2.377018
N	1.079411	-1.374926	-3.158578
H	-3.617224	0.0	0.0
