17

C	0.0	0.0	0.0
C	-0.695153	-0.072651	-1.333467
Br	1.939513	0.0	0.0
H	-1.830855	-0.134662	-0.934523
C	-0.500587	1.187115	0.791715
H	-0.210763	2.112299	0.291778
H	-1.59978	1.09098	0.806963
H	-0.093833	1.170588	1.801438
N	-0.37376	-1.261528	0.809734
O	-0.962437	-2.170265	0.241291
O	-0.060037	-1.257473	1.997046
N	-0.279661	-1.193711	-2.168404
H	-1.080874	-1.785717	-2.34239
H	0.094185	-0.866764	-3.049352
C	-0.573693	1.190143	-2.038727
N	-0.489163	2.177948	-2.674948
H	-3.041644	0.0	0.0
