17

C	0.0	0.0	0.0
C	-0.675655	-0.019262	-1.36114
Br	1.93924	0.0	0.0
H	-1.78761	-0.05577	-1.013849
C	-0.50052	1.187643	0.791993
H	-1.5991	1.089658	0.813188
H	-0.211101	2.109826	0.288435
H	-0.090204	1.178563	1.798553
N	-0.377199	-1.273563	0.776287
O	-0.46176	-1.182972	1.993683
O	-0.505798	-2.317535	0.144986
N	-0.259409	-1.08377	-2.281941
H	-0.655208	-1.946341	-1.929089
H	-0.70572	-0.890897	-3.17146
C	-0.44423	1.257946	-2.020688
N	-0.294444	2.267425	-2.606324
H	-3.09325	0.0	0.0
