14
Coordinates from ORCA-job run
  C   -0.58838416098487     -0.59452977849419     -0.06439885445983
  C   0.45617411943857      0.52308063483120      0.29423231275332
  Cl  0.34009970516337     -2.11281630195623     -0.27219233849587
  H   -0.07268659280455      1.48093176021842      0.30534438695380
  C   -1.46907060721517     -0.72520021333977      1.10198712915506
  N   -2.19700561011744     -0.78135108873453      2.02284858740432
  N   -1.39268420479017     -0.37373421410683     -1.22049727430390
  H   -0.83030348953187     -0.11717670152782     -2.02233748132831
  H   -2.10376596462658      0.32713918031403     -1.05107614235976
  N   1.47861665876439      0.63695672868614     -0.81542841621744
  O   2.62806880926824      0.29242113156474     -0.58523957331769
  O   1.03656787507414      1.06500697507686     -1.87911288300723
  C   1.11468076676160      0.28152324840357      1.56706499799615
  N   1.59969269560034      0.09574863906443      2.62080554922738
