14
Coordinates from ORCA-job run
  C   -0.59766946597635     -0.37685461226892     -0.44365923337716
  C   0.82311973944593      0.21761283759529     -0.30794758678790
  Cl  -1.02636355979515     -0.13516526821517     -2.22075687015396
  H   1.50648908347670     -0.30992129781646     -0.97525842069766
  C   -0.58336951937220     -1.82576017126891     -0.23115357259273
  N   -0.62060891730096     -2.98877435590832     -0.06812005089914
  N   -1.46972055068805      0.23565862302491      0.47335280670770
  H   -2.39130110481052     -0.18109813476262      0.47741281764957
  H   -1.53097967289561      1.23950305841104      0.34933937969790
  N   1.31747315244164     -0.03555575853153      1.10627646783997
  O   1.16966865056306      0.85763192004834      1.92781790777115
  O   1.80107051073635     -1.14740757399350      1.28658405549835
  C   0.81534692865095      1.64853839092252     -0.57639262864037
  N   0.78884472552422      2.80159234276333     -0.79849507201574
