14
Coordinates from ORCA-job run
  C   -0.68907297230794     -0.37473074442028     -0.49748217023319
  C   0.78167557876824      0.15520469727668     -0.37709483325460
  Cl  -1.05789280239852     -0.27591890737657     -2.24785936489219
  H   1.43590985767776     -0.37516665010937     -1.07024380400871
  C   -0.68586604736407     -1.78393467682836     -0.08772245648345
  N   -0.65096720510879     -2.90402726035195      0.26597473605059
  N   -1.69971981536936      0.33240917245570      0.21661643709293
  H   -1.75740232641502      1.29578951181039     -0.09457561644956
  H   -1.52477855820705      0.30290818923582      1.21472905033727
  N   1.29737995004146     -0.15607523975299      1.01014272701468
  O   0.73124686880833      0.40769538302779      1.94213241723063
  O   2.20867936339212     -0.97111867947001      1.08140821871441
  C   0.81354321929962      1.59274712598336     -0.59150910212792
  N   0.79726488918322      2.75421807851980     -0.76651623899089
