14
Coordinates from ORCA-job run
  C   -0.58231615644363     -0.36290780478400     -0.39010851712579
  C   0.66504459030936      0.48803439356623     -0.06816092049311
  Cl  -0.08313884786846     -1.53175656542842     -1.70232312003606
  H   0.93170443666625      1.06155844244386     -0.95908456055319
  C   -1.02921960488263     -1.15516972707698      0.75675930275093
  N   -1.46872341064514     -1.77838587270533      1.65053613867928
  N   -1.61444509137825      0.53192961465884     -0.77111242017410
  H   -2.51418961575101      0.07165155479353     -0.83122114937035
  H   -1.40537671513437      0.99142642314269     -1.64974963047959
  N   1.86566654272067     -0.37965882759342      0.23252624852250
  O   2.81336702614701     -0.27480837927248     -0.53606152935795
  O   1.77497760729535     -1.10402540606399      1.21536982920685
  C   0.41488740179544      1.36353697998911      1.06825822704730
  N   0.23476183716940      2.07757517433036      1.98337210138330
