14
Coordinates from ORCA-job run
  C   -0.57797072489566     -0.37088609281108     -0.38946230101676
  C   0.66388448410067      0.48855513300344     -0.06863735790571
  Cl  -0.06199628419659     -1.56495075056435     -1.67156169135162
  H   0.93776038577176      1.04819839339342     -0.96620670458946
  C   -1.03789145306673     -1.14035032612378      0.76784939106625
  N   -1.48647149711594     -1.74414315091019      1.67043125697984
  N   -1.60628262794378      0.51520700545604     -0.80066510906818
  H   -1.38569107004028      0.95841072543636     -1.68490342003014
  H   -2.50392908420904      0.05118573806282     -0.86600100989708
  N   1.86395545264172     -0.37101947395103      0.25718665394772
  O   1.76459192083550     -1.08338673287466      1.24795062762897
  O   2.81942925509053     -0.27390908785879     -0.50280466876203
  C   0.40072704975578      1.38093068185636      1.05158791000956
  N   0.21088419327205      2.10815793788545      1.95423642298866
