14
Coordinates from ORCA-job run
  C   -0.61674984487185     -0.33223760893897     -0.45409178267798
  C   0.83557157033016      0.17610107995152     -0.30081032749946
  Cl  -1.02569729606471     -0.02408898846918     -2.22400604604134
  H   1.49087112885499     -0.37677203249686     -0.97582347834930
  C   -0.68640178739548     -1.78430236144737     -0.27599732792322
  N   -0.79171589683186     -2.94678447276566     -0.14181404286409
  N   -1.45431590930515      0.30728142149008      0.47731301675009
  H   -1.45632508724703      1.31582976841208      0.37772544609949
  H   -2.39905360376117     -0.05444751728566      0.46759763541603
  N   1.30627883037149     -0.13334418506061      1.11038555910608
  O   1.20856565591441      0.75133309910646      1.94833721127382
  O   1.71807858378740     -1.27643313635470      1.27153679655422
  C   0.91255022129434      1.61009050079427     -0.54046364185187
  N   0.95634343492446      2.76677443306459     -0.73988901799247
