14
Coordinates from ORCA-job run
  C   -0.63625716548029     -0.31388338228969     -0.44026044958082
  C   0.82124733893301      0.19054312290987     -0.32985857728303
  Cl  -1.11876207517204      0.05948510523210     -2.17942985717074
  H   1.44477939195408     -0.32914399857058     -1.05904781688859
  C   -0.69760080832760     -1.77169302134731     -0.31330927806729
  N   -0.79602412807930     -2.93845154222850     -0.21624932913758
  N   -1.43469977181097      0.28912959693427      0.54770300467716
  H   -1.44109130839239      1.30062015755419      0.48619694156407
  H   -2.37872354071127     -0.07398141527739      0.56433505219260
  N   1.35731208385172     -0.18136251993030      1.04221563201033
  O   1.29331131025708      0.66242911797398      1.92460030917755
  O   1.78586905189285     -1.32641071583628      1.12986956324882
  C   0.88543170930751      1.63426230523947     -0.50646215262983
  N   0.91520791177762      2.79945718963618     -0.65130304211265
