14
Coordinates from ORCA-job run
  C   -0.72452574044062     -0.34807530786205     -0.46547145573714
  C   0.75372449030684      0.17432760182682     -0.42373630048057
  Cl  -1.21722042414852     -0.15813307620228     -2.17719673770201
  H   1.35382478070220     -0.32031364167335     -1.18848757225516
  C   -0.69745181512173     -1.77658728326900     -0.13023578572646
  N   -0.64139513874105     -2.91323189697187      0.16271997459331
  N   -1.67803536888453      0.32142593862653      0.35526700839241
  H   -1.43355560368449      0.23808908918901      1.33551053378981
  H   -1.75283573490542      1.30015196257692      0.10090550829116
  N   1.36594458112393     -0.20814815346860      0.90476522788467
  O   2.27552181735418     -1.02745670409571      0.86868866075074
  O   0.87141693441219      0.30828005367907      1.90262691538439
  C   0.77551488017876      1.62086968413721     -0.56640391787452
  N   0.75107234184826      2.78980173350732     -0.67995205931062
