14
Coordinates from ORCA-job run
  C   -0.64663580274524     -0.38185080368162     -0.24368074767383
  C   0.66490090302038      0.43195287058376     -0.23415515751588
  Cl  -0.39053780495201     -1.75700028965303     -1.41854833804130
  H   0.81581217990560      0.85620498539794     -1.22968518949908
  C   -0.95075263845302     -0.96928929145268      1.06228162983662
  N   -1.28452814403592     -1.42183438773356      2.09385539913901
  N   -1.68948133371639      0.50747198220827     -0.60834334917123
  H   -1.59485973817475      0.82251096339672     -1.56682471756859
  H   -2.60485709965226      0.09681184993239     -0.47169814712588
  N   1.86528223926815     -0.45095286799066      0.01837324549803
  O   1.88616577440460     -1.04009124862991      1.09122809857984
  O   2.70421109326841     -0.48851970065104     -0.87339354064632
  C   0.61980716349049      1.47385031369725      0.78238097440716
  N   0.60447320837198      2.31973562457616      1.59720983978147
