14
Coordinates from ORCA-job run
  C   -0.74051355601811     -0.22387611646988     -0.05349153132302
  C   0.62259526280708      0.49083732018764      0.13465662888459
  Cl  -0.60158438752431     -1.84057131241725      0.80384260913180
  H   0.62647314312214      1.36677305653899     -0.52221410587259
  C   -1.76225478432291      0.54036963094949      0.66870553557769
  N   -2.59658629237334      1.15871820436912      1.21863774797230
  N   -1.09754133328766     -0.29315135753790     -1.41791782159393
  H   -2.01275500410413     -0.70716733447452     -1.54192097152065
  H   -0.40091404275202     -0.78076088132925     -1.96686443420504
  N   1.75633979695164     -0.39525745513205     -0.35806884732500
  O   1.67991200735042     -0.72923213140831     -1.53625056646928
  O   2.64196670799371     -0.68891094427312      0.42879445085094
  C   0.85848184784466      0.87374868999545      1.51751196013364
  N   1.02638063431283      1.22848063100158      2.62457934575854
