14
Coordinates from ORCA-job run
  C   -0.66176672257857     -0.37334462569431     -0.53523301779442
  C   0.79314573906183      0.17857358720938     -0.34006644634494
  Cl  -0.95963420242980     -0.23668146687085     -2.29594262039583
  H   1.48437386427919     -0.32192012601622     -1.01938534460892
  C   -0.64900059481696     -1.79196208637210     -0.15936339743992
  N   -0.60616034278663     -2.91923508092083      0.16981291591187
  N   -1.71385680689058      0.29802239167767      0.15361106638359
  H   -1.77752156627650      1.26718194446815     -0.13777883044007
  H   -1.57742705136501      0.24864527406348      1.15693529640381
  N   1.25709102896620     -0.16127910531550      1.05836150238985
  O   2.17973549296709     -0.96177617543981      1.14568708017843
  O   0.64147233618997      0.36524968836844      1.98065436893786
  C   0.80831932353033      1.62158602453088     -0.51589030049283
  N   0.78122950214943      2.78693975631159     -0.66140227268846
