14
Coordinates from ORCA-job run
  C   -0.54397762640152     -0.39740161799205     -0.63941956643443
  C   0.79286871161165      0.31196084161420     -0.22746599077109
  Cl  -0.67266809692115     -0.11821649854499     -2.40399891044778
  H   1.61330671619524     -0.02515606823907     -0.86227934226643
  C   -0.37536972692788     -1.83414747497576     -0.39274966195419
  N   -0.21498380268801     -2.97523267638448     -0.16248323472721
  N   -1.74418343207686      0.06019145954450     -0.02175024245764
  H   -1.90967116120162      1.03851989157424     -0.23099558109384
  H   -1.70848583424262     -0.07567051813516      0.98226951098537
  N   1.15027449906930     -0.10745616277913      1.18049828110890
  O   0.37651071814427      0.24206361194270      2.06720974942986
  O   2.15890729574941     -0.79096777746538      1.30532499141977
  C   0.62686625660773      1.75542579304020     -0.27376284053880
  N   0.45160548308206      2.91608719680017     -0.31939716225250
