14
Coordinates from ORCA-job run
  C   -0.60535686205297     -0.36124994162497     -0.35468462472494
  C   0.66101634774291      0.48696405749842     -0.10829959421900
  Cl  -0.19055802638083     -1.52796198674370     -1.69753019030462
  H   0.87399049306942      1.05928699874820     -1.01428139712385
  C   -0.98248038503273     -1.15571658820076      0.81557901386648
  N   -1.36947210699386     -1.78111738133513      1.73188650121709
  N   -1.65748260006597      0.53623306154738     -0.66899560483177
  H   -2.56005078152629      0.07763207334881     -0.67376218723590
  H   -1.50289671390717      0.99781342033840     -1.55776163758543
  N   1.87555078446878     -0.38355052243278      0.11927808388476
  O   2.77460844920409     -0.28181378821755     -0.70611659289233
  O   1.84403792368857     -1.10610016669755      1.10705729344731
  C   0.48134239488760      1.36248096969748      1.04130002626184
  N   0.35775108289845      2.07709979407375      1.96533091024034
