14
Coordinates from ORCA-job run
  C   -0.68303763949273     -0.38823826759891     -0.49524675039283
  C   0.77721361940850      0.17290222766622     -0.37932684585447
  Cl  -1.06012883178661     -0.29464470418425     -2.24376583005969
  H   1.43844123739421     -0.34277488559467     -1.07691079963881
  C   -0.64739478435835     -1.79728506884406     -0.08675200396110
  N   -0.58773367866457     -2.91573601397063      0.26869082030826
  N   -1.70581418768701      0.29590793980161      0.22388747949016
  H   -1.52679559960322      0.26808838896526      1.22130374032374
  H   -1.78451340175571      1.25859389605238     -0.08487387541541
  N   1.30451241079046     -0.13052159004355      1.00466480680986
  O   0.72932741930649      0.41834325474276      1.93998250718432
  O   2.23258829044311     -0.92679751149837      1.07081347042251
  C   0.77755114408943      1.61090219320594     -0.59247616754059
  N   0.73678400191600      2.77126014130026     -0.77099055167594
