14
Coordinates from ORCA-job run
  C   -0.71514985458779     -0.29290813542689     -0.06909978464390
  C   0.58503319635195      0.48297578066097      0.26521641741672
  Cl  -0.29249862012996     -2.07669765794987      0.01859055393467
  H   0.40473436954390      1.53818042267275      0.03567123231736
  C   -1.68497815775977     -0.04463068574567      1.00211058476710
  N   -2.48213600878844      0.17190330991120      1.83789652241703
  N   -1.26592102615952      0.13712838701449     -1.29611507690630
  H   -2.14330007472128     -0.32746004550711     -1.49317307462242
  H   -0.61525753947992      0.02429152654679     -2.06279479687100
  N   1.71222004490664      0.05020549973815     -0.65984521866828
  O   2.73170410491376     -0.39429906877770     -0.15698429136365
  O   1.49098439764782      0.20645304063835     -1.85658841203187
  C   0.98872491040518      0.31140025865346      1.65156213380899
  N   1.28684025785749      0.21445736757105      2.78355321044556
