14
Coordinates from ORCA-job run
  C   -0.51780512829303     -0.39084291118641     -0.48024440171936
  C   0.72989352367539      0.45514547875359     -0.14250540416605
  Cl  -0.06902984026546     -1.53395277889600     -1.76989824281910
  H   1.05891040952724      0.92900697340265     -1.06835269635555
  C   -0.98828653025624     -1.16708067844318      0.67792793213905
  N   -1.47625188603933     -1.74068477720651      1.58133138383222
  N   -1.50116432809916      0.52725611497209     -1.00744389727085
  H   -1.89354242890142      1.08507958720120     -0.25387479249055
  H   -2.25446210603548      0.00719905354294     -1.44418248006110
  N   1.86894521422630     -0.40971244282768      0.33997931385887
  O   1.74458564995234     -0.90413726216312      1.45464022547923
  O   2.80575655185493     -0.54587649675609     -0.43774698626622
  C   0.40316834993821      1.44178197689668      0.87766613540813
  N   0.08928254871570      2.24681816270984      1.67370391043127
