14
Coordinates from ORCA-job run
  C   -0.59095734358055     -0.44848551376893     -0.46324984548480
  C   0.65185179393877      0.42982477987380     -0.13059889325098
  Cl  -0.10836711244389     -1.51048446468515     -1.81890491176389
  H   0.92796304642196      0.97791756853134     -1.03415494077538
  C   -0.97454526338540     -1.27138910865155      0.68759870231184
  N   -1.34045543624940     -1.90240960979285      1.60862533972194
  N   -1.72523226807467      0.32582322479198     -0.86679886638876
  H   -2.12946922417168      0.83821196093763     -0.09166466751214
  H   -1.50944910275905      0.94214833588064     -1.64097477974854
  N   1.86242920825307     -0.39626033789070      0.23752169322731
  O   2.77210668810410     -0.41403389098366     -0.58302761839405
  O   1.81276490301319     -0.98229179732466      1.31264910500768
  C   0.33178515128783      1.33637425183335      0.96288683423724
  N   0.02057495964573      2.07605460124876      1.82109284881254
