13

C	0.0	0.0	0.0
C	-0.523687	-0.071675	-1.423357
F	1.372462	0.0	0.0
H	-1.639614	-0.07254	-1.322829
H	-0.36866	0.916667	0.459183
C	-0.425831	-1.179746	0.768914
N	-0.563979	-2.172027	1.381443
C	-0.034544	-1.234444	-2.14514
N	0.336338	-2.193306	-2.71277
N	-0.154363	1.186067	-2.165488
O	0.052517	1.095156	-3.37217
O	-0.149369	2.22404	-1.514436
Br	-3.442991	0.0	0.0
