13

C	0.0	0.0	0.0
C	-0.524529	-0.221097	-1.408646
F	1.372591	0.0	0.0
H	-1.640889	-0.213788	-1.305693
H	-0.376105	0.955555	0.363413
C	-0.419807	-1.099226	0.885188
N	-0.562945	-2.026237	1.591153
C	-0.033877	-1.451001	-2.007146
N	0.327715	-2.467063	-2.471681
N	-0.158224	0.954102	-2.27359
O	0.051374	0.739264	-3.46367
O	-0.153055	2.054737	-1.732065
Br	-3.443345	0.0	0.0
