16

C	-0.497053	0.003353	-1.429404
C	0.0	0.0	0.0
Br	-2.370918	-0.269382	-1.70709
H	1.092679	0.0	0.0
N	-0.004427	1.247809	-2.177015
O	-0.582593	1.555397	-3.214515
O	0.872394	1.899561	-1.602465
N	0.309682	-1.144674	-2.104161
O	1.440668	-0.829	-2.478486
O	-0.239702	-2.229405	-2.229323
C	-0.481633	-1.144456	0.73514
N	-0.716128	-2.024664	1.484321
N	-0.411086	1.218899	0.810585
O	0.498418	1.802745	1.392398
O	-1.581165	1.605262	0.724554
Cl	2.670626	0.0	0.0
