15
Coordinates from ORCA-job run
  C   -0.22493020997215      0.82207887518904     -0.32071611409623
  C   -0.01849989524761     -0.54129631268103     -0.93536348844157
  F   -0.90374923980862      1.63380541478528     -1.18521141983148
  H   -0.99291970293309     -0.86903542328267     -1.30188112939163
  H   0.63413195927781     -0.38899664237618     -1.79845502723753
  N   -1.23887989870486      0.63704134211715      0.85719520627490
  O   -0.83240484667883      0.87683204000295      1.99187913552476
  O   -2.35413421034660      0.22820278540021      0.55881460438997
  N   0.95218356446797      1.46940944289857      0.07433276699647
  H   0.74796116077384      2.34482472543091      0.53996029590540
  H   1.50331855392306      0.89260707967888      0.69284785075596
  C   0.56818100649150     -1.56868673148924      0.02707775532342
  H   0.65102282656239     -2.53650014474851     -0.46986637733793
  H   -0.06352537894974     -1.70560768365208      0.90729072090013
  H   1.57124431114493     -1.29467876727327      0.36209522026534
