15
Coordinates from ORCA-job run
  C   -0.34354013512674      0.65216212338146     -0.12208567288090
  C   -0.20993394474255     -0.84465041012912      0.10972668157745
  F   -0.66939866515881      0.86502274001370     -1.42314007439124
  H   -1.16468357838398     -1.30426599146947     -0.16554993816686
  H   -0.05938592079308     -1.00562436289575      1.18030312446887
  N   -1.51954780399285      1.12916773692560      0.73017889836129
  O   -1.28407862219354      1.20355598649229      1.93337582260375
  O   -2.58291609588999      1.35608175350227      0.17445374463239
  N   0.74061304649365      1.51494899468153      0.20381106032586
  H   1.54225166714196      1.30361376843553     -0.37507236501013
  H   0.97998160994603      1.43541611474474      1.18262279807049
  C   0.92646426119784     -1.45308561486917     -0.70373288836552
  H   1.89840956442079     -1.06897315277745     -0.38660272763816
  H   0.79914640550736     -1.24625771728896     -1.76730778500763
  H   0.94661821157391     -2.53611196874718     -0.57198067857966
