15
Coordinates from ORCA-job run
  C   -0.26867722760329      0.83868717571208     -0.23699022385351
  C   -0.05516898537359     -0.46057557840519     -0.97593336669047
  F   -1.02343345438664      1.69359201532498     -0.98896858079305
  H   -1.03863979955433     -0.79015989550243     -1.31572139484596
  H   0.54292351197090     -0.21519235394962     -1.85685736362359
  N   -1.20475688680090      0.51741635824068      0.97580187969516
  O   -0.73864395906349      0.67291190931187      2.10225684991000
  O   -2.32280105231207      0.09608700366870      0.70661140231633
  N   0.90821512276657      1.49321978783261      0.14550670478768
  H   0.70500824889138      2.31662067186084      0.69820668109167
  H   1.51568809694856      0.88623757124012      0.67588176724033
  C   0.61528625527452     -1.54406199127722     -0.13743372196128
  H   1.62701618251020     -1.26445521159921      0.16546128924273
  H   0.03890175745781     -1.77613696070850      0.76054161128220
  H   0.69908218927437     -2.46319050174972     -0.71936353379823
