15
Coordinates from ORCA-job run
  C   -0.33502765778693      0.56777292247822     -0.00408728193192
  C   -0.18663804208818     -0.92602047173076      0.13388455140258
  F   -0.76600390780458      0.85284024564982     -1.30423305940951
  H   -0.05030995496288     -1.15846572822605      1.19105452470588
  H   -1.12896873263562     -1.37497004023727     -0.18204227181287
  N   -1.49110845799376      1.10197605516663      0.84617749125004
  O   -1.59165666521031      2.32370598157471      0.89121505862964
  O   -2.24245829744740      0.29430937274620      1.38005857395277
  N   0.79445642126449      1.30253082484960      0.37409607216152
  H   1.60898533510252      1.02455243272749     -0.15412881471598
  H   0.62585340149216      2.29560811553776      0.27364874923843
  C   0.97148870499124     -1.46354357906564     -0.70307368541018
  H   0.95111694791250     -2.55440496945555     -0.70843006038950
  H   0.89849380908936     -1.12259990576139     -1.73724907766859
  H   1.94077709607738     -1.16429125625378     -0.29789077000229
