15
Coordinates from ORCA-job run
  C   -0.31787220614922      0.66977265700050     -0.09166948877469
  C   -0.23766861262506     -0.84235156636444      0.04751665768056
  F   -0.58187080505964      0.97546898744978     -1.38813406371182
  H   -1.19454784795785     -1.25235299278540     -0.29157930987056
  H   -0.13367832716467     -1.07633247089644      1.11010783678838
  N   -1.51443269467580      1.12768777788328      0.74175269069881
  O   -1.32820969716821      1.11597569536979      1.95576443612503
  O   -2.54636557776602      1.42378489963773      0.15998460088239
  N   0.77601380642515      1.47544890609503      0.33315894795060
  H   1.59399980439614      1.27891404005950     -0.22777588231143
  H   0.97381807466372      1.32282598530461      1.31259541713966
  C   0.90959525025857     -1.43492415724164     -0.76218650358328
  H   0.82248830846667     -1.16717740490484     -1.81611991787068
  H   0.89899233977544     -2.52363843687811     -0.68936178678594
  H   1.87973818458079     -1.09410191972935     -0.39405363435703
