15
Coordinates from ORCA-job run
  C   -0.15096236602216      0.67300305830973     -0.08387714698615
  C   0.79300018316071     -0.50319837003259     -0.14975372639697
  F   -0.98473799712226      0.65158088279180     -1.19525456339941
  H   1.33546191440051     -0.54797629917395      0.79483791120266
  H   1.51816742047985     -0.26079815725387     -0.93466743675837
  N   -1.12181743453283      0.57878905773468      1.09607365587317
  O   -2.03110986003259      1.40131919178668      1.08941373460380
  O   -0.90646172330548     -0.25868562526192      1.96483078406287
  N   0.49864387594404      1.90644606866061      0.08864198127441
  H   1.22402906681597      2.03922893942948     -0.60231509695732
  H   -0.16728328117330      2.66915670094811      0.05467639265991
  C   0.11860743501257     -1.83223988554080     -0.47035975333929
  H   0.87382189933768     -2.61500663713576     -0.56219090752878
  H   -0.42812254763041     -1.77620161433453     -1.41152164920208
  H   -0.57123658533229     -2.12441731092766      0.32046582089155
