15
Coordinates from ORCA-job run
  C   -0.07202890517783      0.72637938760337     -0.27051647306424
  C   0.79442837035020     -0.51188508680314     -0.26914709921642
  F   -0.81091436852331      0.80224534233464     -1.40656691014308
  H   1.41323228635721     -0.49596896655944      0.63142406401537
  H   1.45627629010914     -0.40400082215056     -1.13223491704602
  N   -1.10772055585437      0.54998835033136      0.87414043577380
  O   -2.28341457241463      0.35715786508246      0.59820951997759
  O   -0.61871156414830      0.59975617457700      2.00132768254897
  N   0.65943317068091      1.92451664162406     -0.12876230242812
  H   1.16677746959569      1.93307301810811      0.74526802537133
  H   0.04783450350084      2.73059127867487     -0.17990909100617
  C   -0.01188238707968     -1.80329737324872     -0.34988723535398
  H   -0.57525619349973     -1.98292095114025      0.56786161081871
  H   0.65695017068495     -2.65242089105861     -0.49892774798612
  H   -0.71500371458109     -1.77321396737511     -1.18327956226158
