15
Coordinates from ORCA-job run
  C   -0.21010395680009      0.83392195084311     -0.30072340510939
  C   -0.02449707020871     -0.51727924790274     -0.94873921077870
  F   -0.87200820371281      1.67823701152484     -1.14621747308892
  H   -1.00317045146367     -0.81757819921670     -1.32748524840714
  H   0.63458766164948     -0.35449869183371     -1.80497780903473
  N   -1.23013052955934      0.63523936436816      0.86942501605790
  O   -0.81916141529837      0.82723942042903      2.01162751295694
  O   -2.35281931131901      0.25761162798007      0.55788821835777
  N   0.97636014832061      1.45127565658964      0.11383259143918
  H   1.51411432394270      0.85321496149334      0.72373255693596
  H   0.78578054295573      2.32197636848867      0.59377400699954
  C   0.54077241664904     -1.57829864038428     -0.01046446412422
  H   -0.09454331449019     -1.72528185830423      0.86543448907193
  H   0.60799933511161     -2.53506043156012     -0.53060322706263
  H   1.54781982422306     -1.32971929251506      0.33249644578654
