14

C	0.0	0.0	0.0
C	-0.366599	0.030565	-1.509764
Cl	1.762026	0.0	0.0
H	0.306486	-0.688921	-1.988134
C	-0.492826	1.12104	0.783852
N	-0.610694	2.105181	1.418484
N	-0.417464	-1.329947	0.608828
O	-0.563163	-1.357714	1.819111
O	-0.442831	-2.280089	-0.16099
C	-0.028528	1.353278	-2.044611
N	0.265705	2.389455	-2.513403
C	-1.73534	-0.339075	-1.913067
N	-2.50583	-0.690098	-2.73762
F	-2.302839	0.0	0.0
