14

C	0.0	0.0	0.0
C	-0.324315	-0.144219	-1.514792
Cl	1.762814	0.0	0.0
H	0.109765	0.7652	-1.957232
C	-0.472329	1.265893	0.551143
N	-0.576148	2.368979	0.945532
N	-0.454685	-1.160718	0.854147
O	-0.620877	-0.928703	2.040169
O	-0.484936	-2.248905	0.302811
C	-1.732078	-0.195229	-1.946981
N	-2.535478	-0.21874	-2.81341
C	0.415499	-1.252742	-2.143216
N	1.00804	-2.073765	-2.736979
F	-2.303927	0.0	0.0
