14

C	-0.518192	0.047048	-1.421064
C	0.0	0.0	0.0
Br	-0.207324	1.829941	-2.227602
H	1.093543	0.0	0.0
H	-1.607262	-0.040823	-1.444923
H	-0.322373	-0.978567	0.38616
C	0.175786	-0.992234	-2.280866
H	-0.061631	-1.9883	-1.890309
H	1.256876	-0.851701	-2.213113
H	-0.147596	-0.940018	-3.322978
N	-0.61057	1.032397	0.85256
H	-0.245333	0.877673	1.787673
H	-0.205055	1.917188	0.561247
H	3.131548	0.0	0.0
