14

C	-0.468414	0.005702	-1.454839
C	0.0	0.0	0.0
Br	-0.070934	-1.752059	-2.25416
H	1.092801	0.0	0.0
H	0.151658	0.702751	-2.02481
H	-0.387255	-0.888886	0.509718
C	-1.947121	0.278983	-1.674488
H	-2.21607	0.195237	-2.729518
H	-2.553496	-0.431749	-1.106934
H	-2.196675	1.292302	-1.347154
N	-0.370708	1.207514	0.740215
H	0.318774	1.924999	0.548992
H	-1.292469	1.55486	0.510911
H	3.020102	0.0	0.0
