19
Coordinates from ORCA-job run
  C   -0.58250009833618      0.29824081885421      0.31289533875859
  C   0.71105471886063     -0.41463087171885     -0.11678490926342
  Br  -0.12736553178642      2.13048012069988      0.93386712523734
  H   0.37810245343526     -1.43357276201647     -0.36479310104104
  C   -1.56304170687915      0.45417059557707     -0.83982502163002
  H   -2.50112720727506      0.88270300277890     -0.48186727513839
  H   -1.17646099046739      1.09892779892620     -1.62842356042742
  H   -1.77641140022663     -0.53304397143298     -1.26583323199301
  C   -1.23256085000727     -0.41905301303770      1.48609123113348
  H   -0.53467004565796     -0.51596261082657      2.31469570891333
  H   -2.12694572890680      0.11330132899926      1.81568228246900
  H   -1.52734389954778     -1.42407419905593      1.16272937763395
  N   1.60978517323275     -0.54860593485062      1.02807465859392
  H   2.02678913309518      0.35426077995634      1.22949403772714
  H   2.36313581470136     -1.18222485493872      0.78695178833579
  C   1.37685178081484      0.17699707677825     -1.35971232971693
  H   2.29161205225938     -0.38156860873918     -1.57613639271334
  H   1.65003855677330      1.22144488832651     -1.19115738072667
  H   0.74105777591796      0.12121041572040     -2.24594834615229
