19
Coordinates from ORCA-job run
  C   -0.72212299726811     -0.28194197263932      0.18584064759621
  C   0.79841110195683     -0.43356307854569     -0.03441780208055
  Br  -1.56580510350017     -1.99233753244543     -0.35073486595309
  H   1.09274584880153     -1.37247936443278      0.45913616486124
  C   -1.03561618092830     -0.09076701217659      1.66313194717510
  H   -0.57267716702141     -0.87431725316643      2.26956492011462
  H   -0.66231417458253      0.88466708343186      1.98545835632198
  H   -2.11281823999723     -0.12019495691901      1.83557444629675
  C   -1.33421553147790      0.82889016234747     -0.64943154672660
  H   -1.26407910881668      0.62148225502047     -1.71753104423065
  H   -0.79879239039196      1.75629900606843     -0.42989638502502
  H   -2.38936255899643      0.95664830462672     -0.39858786051756
  N   1.45034025067246      0.73683581206191      0.56762347559254
  H   2.36481058081596      0.86575822432684      0.15082640284394
  H   1.59386917469637      0.58793511722246      1.55899637871679
  C   1.20370395032034     -0.50687986882296     -1.49919719731689
  H   1.06808938090227      0.46551279641686     -1.97816087585425
  H   2.26096182193138     -0.77687009813693     -1.57650155147620
  H   0.62587134288357     -1.25467762423788     -2.04169361033835
