19
Coordinates from ORCA-job run
  C   -0.66822960812911     -0.29298850772342      0.19122902676705
  C   0.84656513872040     -0.49028709490387     -0.08501508593409
  Br  -1.59442627005623     -1.94096556583578     -0.40756967468288
  H   1.11462483258764     -1.45373808045270      0.36450094606753
  C   -0.94938451987068     -0.17098508738086      1.68340108617650
  H   -2.02289459693216     -0.20373179827117      1.87633642153441
  H   -0.47737012276031     -0.98446481217917      2.24059342096159
  H   -0.57185693749659      0.78387210615374      2.05977634081813
  C   -1.27720404165504      0.87277060155612     -0.57225632676644
  H   -1.21624141094086      0.72994504369550     -1.65106831553908
  H   -0.75369801656515      1.79888447004584     -0.31066288365411
  H   -2.32863408321824      0.99611360816846     -0.30496351178141
  N   1.69851390038748      0.51273211626719      0.54706721094739
  H   1.50250105782728      1.43934111721399      0.18805807696893
  H   1.58667696042272      0.52290370595133      1.55195129390989
  C   1.20023604657968     -0.52849892554068     -1.56588603875195
  H   1.08666956398944      0.46179053241503     -2.01669017443487
  H   2.24676738201086     -0.81790236786341     -1.66961195134083
  H   0.57938472509887     -1.23379106131615     -2.11818986126576
