18

C	-0.481884	0.026916	-1.436626
C	0.0	0.0	0.0
Cl	-2.439336	0.345602	-1.343636
H	1.091619	0.0	0.0
C	0.05371	1.128119	-2.316824
H	1.14291	1.110301	-2.206172
H	-0.321966	2.102842	-2.026805
H	-0.220007	0.926228	-3.356574
N	-0.240397	-1.226373	-1.986271
H	-0.648953	-1.342255	-2.901498
H	-0.486379	-1.958931	-1.332815
N	-0.416274	-1.192426	0.671443
H	0.310544	-1.433645	1.337751
H	-1.277914	-1.025029	1.175823
N	-0.36691	1.232558	0.74644
O	-0.902945	1.112509	1.855202
O	-0.026803	2.313119	0.262181
H	2.606535	0.0	0.0
