18

C	-0.554483	-0.085866	-1.429213
C	0.0	0.0	0.0
Cl	-0.322942	1.429366	-2.374145
H	1.09256	0.0	0.0
C	0.245082	-1.165871	-2.149438
H	1.312632	-0.935586	-2.095823
H	0.06861	-2.119495	-1.648173
H	-0.078287	-1.233344	-3.192265
N	-1.988668	-0.316061	-1.363743
H	-2.104434	-1.1769	-0.836812
H	-2.333184	-0.47668	-2.305215
N	-0.405241	-1.195827	0.708053
H	-1.134811	-0.948953	1.36675
H	0.409072	-1.507099	1.230319
N	-0.464947	1.227845	0.722229
O	-1.303244	1.104125	1.625877
O	0.046403	2.297027	0.402296
H	2.731773	0.0	0.0
