18

C	-0.593905	-0.00092	-1.427334
C	0.0	0.0	0.0
Cl	-0.332573	1.582966	-2.241481
H	1.09343	0.0	0.0
C	0.156038	-1.054519	-2.220427
H	-0.17658	-1.025068	-3.259034
H	-0.057722	-2.035878	-1.792347
H	1.230072	-0.868334	-2.145661
N	-2.023953	-0.26045	-1.473287
H	-2.507755	0.45786	-0.939614
H	-2.157545	-1.140157	-0.979183
N	-0.406583	-1.228226	0.645643
H	0.401748	-1.569972	1.158086
H	-1.151321	-1.03031	1.300649
N	-0.479955	1.187411	0.77108
O	-1.46689	1.042926	1.515161
O	0.110311	2.252161	0.618695
H	2.741234	0.0	0.0
