18

C	-0.514425	-0.020511	-1.438042
C	0.0	0.0	0.0
Cl	-0.087358	1.63331	-2.173703
H	1.090121	0.0	0.0
C	0.289061	-1.04959	-2.207164
H	0.044193	-1.001176	-3.272192
H	0.038776	-2.034113	-1.81032
H	1.354393	-0.860616	-2.054903
N	-1.914211	-0.270204	-1.527618
H	-2.429476	0.455519	-1.043765
H	-2.193947	-0.293288	-2.500962
N	-0.410574	-1.188595	0.676487
H	-1.390658	-1.169574	0.921987
H	0.18191	-1.334162	1.484861
N	-0.515749	1.235453	0.719501
O	-1.748573	1.332729	0.840198
O	0.281377	2.037459	1.18549
H	2.858272	0.0	0.0
