18

C	-0.237826	0.110842	-1.50992
C	0.0	0.0	0.0
Cl	-2.011802	-0.218568	-1.925276
H	1.096408	0.0	0.0
C	0.09729	1.475943	-2.083984
H	1.120666	1.714527	-1.780678
H	0.036967	1.426831	-3.175151
H	-0.573714	2.258733	-1.73145
N	0.553124	-0.960167	-2.061467
H	0.632006	-0.833266	-3.065217
H	1.492325	-0.86469	-1.644793
N	-0.440262	-1.196869	0.636523
H	-1.291254	-1.546089	0.213272
H	0.294763	-1.883657	0.522079
N	-0.546731	1.188104	0.710083
O	-1.625362	1.072093	1.295271
O	0.109562	2.231996	0.660265
H	2.724246	0.0	0.0
