18

C	-0.370264	0.139884	-1.486845
C	0.0	0.0	0.0
Cl	-0.21584	-1.655483	-2.189019
H	1.098825	0.0	0.0
C	-1.81053	0.496222	-1.774747
H	-1.985935	1.520274	-1.437365
H	-2.46674	-0.196858	-1.245364
H	-2.014178	0.43226	-2.846619
N	0.567617	0.965688	-2.101688
H	1.508386	0.774383	-1.749652
H	0.523557	0.924808	-3.11024
N	-0.587466	-1.159835	0.642573
H	-0.55267	-0.968803	1.635731
H	0.049989	-1.9289	0.467983
N	-0.374124	1.202406	0.776477
O	-0.365441	2.305348	0.227322
O	-0.562172	1.054644	1.993635
H	2.674264	0.0	0.0
