18

C	-0.500096	0.066854	-1.427254
C	0.0	0.0	0.0
Cl	-2.454116	0.392407	-1.297593
H	1.092871	0.0	0.0
C	0.027143	1.187741	-2.287814
H	-0.343783	2.155735	-1.971126
H	1.117603	1.167161	-2.192459
H	-0.260108	1.010241	-3.328486
N	-0.273939	-1.17314	-2.013742
H	-0.702581	-1.261946	-2.923074
H	-0.51705	-1.92115	-1.375684
N	-0.410513	-1.208279	0.647181
H	-1.254663	-1.048264	1.181621
H	0.333162	-1.472822	1.285106
N	-0.344169	1.212841	0.785788
O	-0.014495	2.303209	0.316707
O	-0.834028	1.067418	1.912685
H	2.59587	0.0	0.0
