17

C	0.0	0.0	0.0
C	-0.339549	0.079445	-1.552663
Br	1.975527	0.0	0.0
H	0.380751	0.811435	-1.949996
C	-0.364133	1.281418	0.606055
N	-0.584671	2.340947	1.065201
C	-0.640495	-1.1586	0.719923
H	-1.727501	-0.971375	0.609743
H	-0.359088	-1.167677	1.776119
H	-0.357415	-2.091053	0.23465
N	-1.656721	0.518782	-1.8907
H	-2.38819	0.184582	-1.180266
H	-1.67987	1.529204	-1.816509
N	-0.131958	-1.255731	-2.112285
H	0.847419	-1.401104	-2.324722
H	-0.66613	-1.263336	-2.971822
F	-3.238177	0.0	0.0
