17

C	0.0	0.0	0.0
C	-0.542682	-0.167353	-1.462767
Br	1.963866	0.0	0.0
H	0.321047	-0.238972	-2.129503
C	-0.334503	1.315095	0.564419
N	-0.518843	2.324554	1.137345
C	-0.467981	-1.065329	0.988273
H	-0.192846	-2.052669	0.620407
H	-0.019756	-0.882014	1.967818
H	-1.556253	-0.955946	1.029484
N	-1.277651	1.045625	-1.802577
H	-1.569589	0.95929	-2.772268
H	-2.124837	0.969703	-1.210343
N	-1.283823	-1.423277	-1.541792
H	-2.150803	-1.195984	-1.022612
H	-1.534508	-1.55876	-2.515794
F	-2.967785	0.0	0.0
