16

C	0.0	0.0	0.0
C	-0.405446	0.250514	-1.458825
F	1.388702	0.0	0.0
H	0.458664	0.715655	-1.947009
H	-0.326167	-0.989476	0.320662
C	-0.500291	1.063821	0.945304
H	-0.19046	2.0538	0.60754
H	-1.589626	1.027756	0.993795
H	-0.086368	0.874337	1.939089
N	-1.555064	1.033119	-1.648682
H	-1.765108	1.127205	-2.632265
H	-2.381381	0.665994	-1.160122
N	-0.444343	-1.12209	-2.212372
O	-1.071135	-1.140891	-3.268545
O	0.212261	-2.06064	-1.767729
Cl	-4.076935	0.0	0.0
