16

C	0.0	0.0	0.0
C	-0.501988	-0.005007	-1.442705
F	1.394198	0.0	0.0
H	-1.583319	0.153666	-1.412852
H	-0.333583	-0.944745	0.438537
C	-0.479195	1.16305	0.831201
H	-1.570496	1.144355	0.852448
H	-0.086066	1.065318	1.845897
H	-0.135809	2.107125	0.407079
N	-0.176959	-1.181072	-2.203504
H	0.737407	-1.526034	-1.93952
H	-0.877279	-1.884951	-2.008833
N	0.100703	1.186187	-2.142695
O	1.191538	1.033943	-2.689373
O	-0.517092	2.24901	-2.08358
Cl	-3.687819	0.0	0.0
