14

C	0.0	0.0	0.0
C	-0.401397	0.054207	-1.564888
Cl	1.764361	0.0	0.0
H	-1.457123	0.188566	-1.808505
H	0.167408	0.897446	-1.99057
C	-0.45515	1.177895	0.722312
N	-0.610824	2.182679	1.321503
N	-0.392332	-1.270393	0.744324
O	-0.399136	-1.182593	1.965497
O	-0.491837	-2.286699	0.080008
N	-0.061003	-1.192465	-2.344873
O	-1.030296	-1.797103	-2.797558
O	1.107494	-1.509473	-2.517206
Br	-3.153756	0.0	0.0
