14

C	0.0	0.0	0.0
C	-0.601036	0.098722	-1.395126
Cl	1.763237	0.0	0.0
H	-1.695301	0.079897	-1.275274
H	-0.273135	1.038966	-1.845309
C	-0.43552	1.145305	0.797218
N	-0.613606	2.137512	1.401825
N	-0.436615	-1.296494	0.701644
O	-0.681243	-2.244327	-0.026964
O	-0.415229	-1.278827	1.922256
N	-0.23686	-0.976411	-2.37019
O	-1.123678	-1.273932	-3.163994
O	0.90303	-1.429755	-2.380193
Br	-3.623855	0.0	0.0
