14

C	0.0	0.0	0.0
C	-0.514936	-0.086469	-1.420936
Cl	1.79754	0.0	0.0
H	-1.616486	-0.000692	-1.37373
H	-0.208357	-1.026111	-1.870049
C	-0.430891	1.147684	0.787026
N	-0.596045	2.086938	1.475578
N	-0.394343	-1.291264	0.752077
O	-0.464017	-2.30632	0.076356
O	-0.504882	-1.200081	1.962086
N	0.016555	1.000579	-2.276076
O	0.261899	0.702708	-3.444582
O	0.129074	2.12325	-1.789679
Br	-3.48585	0.0	0.0
