15
Coordinates from ORCA-job run
  C   0.27091406041725     -0.66580761758338     -0.13137215668846
  C   -0.24174534551355      0.78910835732910     -0.22984837031952
  H   -0.50360626988778     -1.32089540642823     -0.55046377753667
  H   0.51937148591354      1.44082487303728      0.21280437916318
  C   0.55159220568631     -1.06121129994437      1.31997175849578
  H   1.34783035955401     -0.43840078906985      1.73422103832995
  H   0.86929314880649     -2.10366462358885      1.37432699231377
  H   -0.34864909820916     -0.92301916364399      1.91601530663404
  C   1.47499369599142     -0.81917422610034     -0.95144733356895
  N   2.46438735111161     -0.92828677933871     -1.57446745525715
  N   -1.46385014729423      0.92863094739905      0.55014794360245
  H   -2.24090154983687      0.51005462687511      0.05084350855241
  H   -1.68144879608630      1.90902002456421      0.68162351547231
  C   -0.40505590854845      1.18243187550173     -1.64453280226026
  N   -0.61412519210429      1.50238920099126     -2.75582254693288
