15
Coordinates from ORCA-job run
  C   0.41166083389254     -0.64294568727850     -0.37985954326941
  C   -0.31770074470606      0.70691377159863     -0.60028572055358
  H   0.24481947289945     -1.26098337652547     -1.26976178263598
  H   0.02799111098242      1.12015686462084     -1.56063900168804
  C   -0.07258861288446     -1.38292344483848      0.86855936779339
  H   0.04808977405763     -0.75256194054252      1.74808435541904
  H   0.49457120801907     -2.30509935428038      1.00474583898844
  H   -1.12830970977430     -1.63857518936873      0.76047894157716
  C   1.84661498114031     -0.35525261259351     -0.30094937583417
  N   2.98523697490768     -0.07730711505771     -0.22498717265927
  N   -0.08287667990305      1.58680097491464      0.53957876787076
  H   -0.67637274742989      2.40537108525759      0.47997246994770
  H   0.88192545111572      1.89995655076503      0.52400424333220
  C   -1.75717378199177      0.45251762780417     -0.73420971418605
  N   -2.90588753032529      0.24293184552439     -0.85373167410217
