15
Coordinates from ORCA-job run
  C   0.57166812858771     -0.47382258991616     -0.07156021854419
  C   -0.44900277128188      0.59258643139463     -0.51776929059658
  H   1.22141591879063     -0.66397729190869     -0.93576689340173
  H   -1.06342355740525      0.13086707720417     -1.30783733955849
  C   -0.10358895242932     -1.78113657461835      0.34975583789343
  H   -0.72417136515518     -2.16515446466191     -0.46364598819974
  H   -0.73274585053017     -1.62360410790478      1.22765281545958
  H   0.64608561087774     -2.53430282781191      0.59614763914623
  C   1.41409340709895      0.05181140801913      1.00508333166806
  N   2.08514435136691      0.41782550857109      1.89599033556716
  N   0.25197247380761      1.79915388915884     -0.93741350415273
  H   0.73776048620723      1.62236226359483     -1.80918468487581
  H   -0.40112229703462      2.55806103915670     -1.09066017793691
  C   -1.35584644699390      0.91338126791984      0.59126496948136
  N   -2.10023913590646      1.15594897180256      1.46594316805035
