15
Coordinates from ORCA-job run
  C   0.54054636803743     -0.45307769457162     -0.09185087457735
  C   -0.48870746241473      0.59052665622224     -0.60920964134371
  H   1.24569318306064     -0.62223291763952     -0.91552314472708
  H   -0.97360319707809      0.14754348891892     -1.48746708522282
  C   -0.10667495042268     -1.78069993629110      0.30725491877817
  H   -0.77830013192225     -1.64426904707909      1.15623657030370
  H   0.65466732084486     -2.51239462450692      0.58207228127811
  H   -0.68140907936498     -2.18061153834409     -0.53200738405775
  C   1.29577829331281      0.13470129332740      1.01615415558094
  N   1.88435330010971      0.63724055849093      1.89966556775842
  N   0.04888396487933      1.87982511891639     -1.00167522029695
  H   0.71427051210185      1.76704329922741     -1.75684869791884
  H   0.51819772755500      2.32347723803337     -0.22005546248547
  C   -1.53086821009300      0.79018704841411      0.40848208450961
  N   -2.34382763860591      0.92274105688157      1.24477193242103
