15
Coordinates from ORCA-job run
  C   0.54469910851818     -0.54341821815929     -0.16831950762032
  C   -0.48491883660883      0.52617400711744     -0.58286268407050
  H   1.08450494807907     -0.80161937950737     -1.08567444906532
  H   -1.14017915100558      0.06392749380371     -1.32916890013800
  C   -0.10565721479476     -1.78748599123776      0.43883830095357
  H   -0.82413592073443     -2.21258962514319     -0.26633449818926
  H   0.64957010396434     -2.54396652547821      0.65709224282322
  H   -0.62686932162710     -1.54346831404605      1.36606519189585
  C   1.50930501436381      0.05791217638395      0.75639214725771
  N   2.26112367431336      0.56772313654799      1.50072774582414
  N   0.19335688244782      1.64569994265632     -1.21565618202988
  H   0.73602121983621      2.15672005845497     -0.52711944168901
  H   -0.48420808099326      2.28795608085585     -1.60927868632530
  C   -1.32574763363856      0.89725704525024      0.57562859863430
  N   -1.98586479212027      1.23117811250139      1.48867012173881
