17

C	-0.560215	0.012713	-1.421902
C	0.0	0.0	0.0
Cl	0.147455	1.395783	-2.29368
H	1.095227	0.0	0.0
N	-0.126693	-1.24097	-2.179968
O	0.523596	-2.083239	-1.574439
O	-0.49459	-1.326681	-3.348623
C	-2.068088	0.088605	-1.501175
H	-2.382031	0.952928	-0.916506
H	-2.391132	0.191891	-2.536637
H	-2.501883	-0.819003	-1.071153
C	-0.526492	-1.129633	0.745047
N	-0.986573	-1.984234	1.409274
N	-0.386695	1.268055	0.656464
H	0.490493	1.777514	0.758493
H	-0.722293	1.069731	1.592606
H	2.645709	0.0	0.0
