17

C	-0.605211	0.009223	-1.402324
C	0.0	0.0	0.0
Cl	0.217978	1.249522	-2.382829
H	1.091221	0.0	0.0
N	-0.325844	-1.319378	-2.100403
O	-0.986552	-1.562186	-3.109602
O	0.549933	-2.037202	-1.631394
C	-2.093083	0.26391	-1.425266
H	-2.61193	-0.547358	-0.906369
H	-2.266919	1.204936	-0.904478
H	-2.456928	0.327773	-2.448825
C	-0.51298	-1.133238	0.754554
N	-0.969183	-2.007808	1.398678
N	-0.313543	1.276036	0.659663
H	0.582017	1.627408	0.997479
H	-0.922991	1.136752	1.455193
H	2.62346	0.0	0.0
