17

C	-0.46754	-0.060343	-1.447263
C	0.0	0.0	0.0
Cl	-2.246401	-0.312651	-1.57898
H	1.093769	0.0	0.0
N	-0.15585	1.30247	-2.06808
O	-1.028452	2.158271	-2.108761
O	1.001053	1.437209	-2.453392
C	0.274195	-1.139103	-2.201021
H	0.060213	-1.085839	-3.270375
H	-0.039209	-2.113564	-1.823001
H	1.343473	-1.003455	-2.009902
C	-0.40626	-1.223145	0.68901
N	-0.735176	-2.182093	1.286722
N	-0.382051	1.221264	0.675174
H	0.378155	1.472067	1.299259
H	-1.241783	1.125652	1.197826
H	2.642654	0.0	0.0
