16

C	0.0	0.0	0.0
C	-0.532416	0.04781	-1.46171
Br	1.967137	0.0	0.0
H	-1.624455	-0.011091	-1.291204
C	-0.333222	1.312183	0.600627
N	-0.543629	2.365077	1.081183
N	-0.543601	-1.126829	0.670697
H	-1.583098	-0.936079	0.538087
H	-0.319111	-1.063554	1.658491
N	-0.10523	-1.197586	-2.182064
O	-0.853994	-2.170451	-2.128448
O	0.962251	-1.16123	-2.796265
N	-0.162581	1.179576	-2.249913
H	-0.720116	1.972383	-1.961005
H	0.82197	1.396021	-2.149298
F	-2.766166	0.0	0.0
