16

C	0.0	0.0	0.0
C	-0.249606	0.089251	-1.573959
Br	1.934622	0.0	0.0
H	0.343033	-0.730552	-1.991766
C	-0.429935	1.18288	0.752726
N	-0.695639	2.094008	1.444457
N	-0.611833	-1.149388	0.580143
H	-0.431832	-1.948344	-0.022038
H	-1.634494	-0.901356	0.521042
N	0.452716	1.322271	-2.158331
O	1.150685	1.138823	-3.155989
O	0.199953	2.416088	-1.665054
N	-1.569985	0.103141	-2.05597
H	-1.750276	-0.736476	-2.584725
H	-2.272714	0.178566	-1.258616
F	-2.949386	0.0	0.0
