16

C	0.0	0.0	0.0
C	-0.391157	-0.108638	-1.509838
Br	1.952677	0.0	0.0
H	0.399631	0.377464	-2.091612
C	-0.329472	1.309236	0.60506
N	-0.455373	2.278036	1.260891
N	-0.533246	-1.091863	0.750626
H	-1.576476	-0.828975	0.665143
H	-0.221996	-1.004784	1.712451
N	-1.583977	0.769482	-1.949966
O	-2.381067	0.267827	-2.734486
O	-1.499938	1.962203	-1.691866
N	-0.532265	-1.470329	-1.883359
H	-1.155448	-1.503521	-2.68076
H	-0.974586	-1.95707	-1.111137
F	-2.619299	0.0	0.0
