16

C	0.0	0.0	0.0
C	-0.384257	0.090001	-1.515663
Br	1.948306	0.0	0.0
H	0.40569	0.65259	-2.021237
C	-0.340001	1.215078	0.768647
N	-0.474616	2.092572	1.540369
N	-0.5265	-1.187928	0.596481
H	-0.217499	-1.226958	1.561357
H	-1.57042	-0.918176	0.546073
N	-1.578948	1.009635	-1.842934
O	-1.489485	2.163933	-1.448909
O	-2.388066	0.605286	-2.668851
N	-0.517966	-1.211699	-2.065631
H	-1.178654	-1.151399	-2.830338
H	-0.911443	-1.810037	-1.346267
F	-2.602781	0.0	0.0
