16

C	0.0	0.0	0.0
C	-0.37184	0.214065	-1.550886
Br	2.005083	0.0	0.0
H	-0.317435	-0.797374	-1.960781
C	-0.325025	1.199776	0.789216
N	-0.547613	2.118952	1.489027
N	-0.625729	-1.197595	0.425426
H	-0.441956	-1.334048	1.415223
H	-1.653704	-0.947782	0.315128
N	0.690839	0.998497	-2.285373
O	0.800904	2.187101	-1.993122
O	1.327158	0.426016	-3.16694
N	-1.582766	0.869075	-1.895796
H	-1.49274	1.844659	-1.627219
H	-2.33566	0.471866	-1.277299
F	-2.953859	0.0	0.0
