14
Coordinates from ORCA-job run
  C   -0.74133895303911      0.30211332318560     -0.36682066878090
  C   0.77007547203806      0.05318541653273     -0.43175985179380
  Cl  -1.33143718317829      0.32794687407766     -2.05027003202457
  H   0.97936642390715     -0.88859441030520     -0.94228018592840
  H   -0.91050037495404      1.29885640676731      0.04355188539133
  C   -1.46599995892058     -0.75744907112947      0.43972571152577
  H   -2.54154486036366     -0.58920752409462      0.37977804209051
  H   -1.17383779021814     -0.70532957532801      1.49093225085100
  H   -1.24867721144318     -1.75733588181545      0.05878171192240
  N   1.26347163763338     -0.11402668156702      0.98642543017882
  O   1.62518316591140     -1.23873342416592      1.31370289410653
  O   1.20117284210325      0.87997825196989      1.70129182718219
  C   1.49621570170077      1.15251265811401     -1.05645336115246
  N   2.07785108882298      2.03608363775849     -1.56560565356843
