14
Coordinates from ORCA-job run
  C   -0.64060921052045     -0.16132282137610     -0.71235192538073
  C   0.84004748730268      0.18405938735520     -0.48917793116737
  Cl  -0.73554337079616     -1.79714828867075     -1.41860620807479
  H   1.39846437292119      0.02705739191259     -1.41365993243826
  H   -0.98572200226616      0.52421362026502     -1.49061081651603
  C   -1.52528574247645     -0.05233329371589      0.51392866299516
  H   -2.56176581558090     -0.22086370494356      0.21953280457706
  H   -1.44444932671663      0.94421668723291      0.95369717011436
  H   -1.25344780667731     -0.78983107644858      1.26723528330227
  N   1.47505437141624     -0.74024344086084      0.52362614532801
  O   1.17965335161261     -0.55612927177535      1.69991952729600
  O   2.21490469303116     -1.60802332959611      0.07533146753169
  C   0.97989349944473      1.56124946210267     -0.02971134730855
  N   1.05780549930546      2.68509867851877      0.30184709974119
