14
Coordinates from ORCA-job run
  C   -0.74025871298764      0.28501632561328     -0.38276582172069
  C   0.77888270252607      0.08019575721918     -0.41022920656200
  Cl  -1.28641004964943      0.31425938525899     -2.08094263531648
  H   1.02865696687421     -0.84930817303744     -0.92505177454087
  H   -0.94886016756094      1.27154132572492      0.03411039788326
  C   -1.45457450741680     -0.80483201784846      0.39209423942822
  H   -1.19715244379299     -1.79306315055707      0.00568212738359
  H   -2.53282068903339     -0.66853420833777      0.30507421187426
  H   -1.19223826439812     -0.75638113193600      1.45120839208167
  N   1.24024741158642     -0.08839904421666      1.01859915137030
  O   1.62678215050209     -1.20550755498212      1.34345904111087
  O   1.13128117820815      0.89586622919682      1.74154552798614
  C   1.48880110870440      1.20673688533200     -1.00424566781951
  N   2.05766331643797      2.11240937257033     -1.48853798315875
