14
Coordinates from ORCA-job run
  C   -0.54602627048712     -0.38127202472139     -0.47091885999213
  C   0.71008150752561      0.33921515788755      0.01507562138429
  Cl  -0.49079885752898     -2.07660304160680      0.07563359706942
  H   0.71568195755506      1.34965211986918     -0.40763259097216
  H   -0.49868274246558     -0.40406765987574     -1.56055647270866
  C   -1.80806343161149      0.30080382213046      0.01925930208367
  H   -2.68323443392579     -0.20948870618142     -0.38405841053852
  H   -1.86694716670117      0.27642882089181      1.10863617000927
  H   -1.82939077870199      1.34177600615718     -0.31602656884152
  N   1.93898083645347     -0.32750916039830     -0.57397435217606
  O   1.96017195885519     -0.35500602900165     -1.79881438992544
  O   2.78654428493522     -0.76812118375328      0.18916408583025
  C   0.80183251515035      0.40798125269358      1.46675382034925
  N   0.81085062094724      0.50821062590882      2.63645904842835
