14
Coordinates from ORCA-job run
  C   -0.54905945111224     -0.13335570185226     -0.79041423951225
  C   0.86439752272009      0.30332518330574     -0.37467688908552
  Cl  -0.42432773902310     -1.68398101883243     -1.66429453074888
  H   1.52422472538510      0.29387540157284     -1.24398515788128
  H   -0.87680966333326      0.60350824077026     -1.52822469705193
  C   -1.55684103441853     -0.23100197783302      0.33797998955754
  H   -1.29468325227171     -1.02243599027833      1.03814321773851
  H   -1.61097377704456      0.71455884580090      0.88209879188275
  H   -2.53947914562140     -0.44866041297639     -0.08209098241825
  N   1.47713410254426     -0.67204453439312      0.60362132405680
  O   1.05155219823965     -0.64094866983584      1.75373210996389
  O   2.33285552501241     -1.42457504496356      0.15326010842089
  C   0.83127676800195      1.62876124537263      0.23316569994888
  N   0.77273322092137      2.71197443414259      0.68268525512884
