14
Coordinates from ORCA-job run
  C   -0.54797360816272     -0.59868170293491      0.07904021095539
  C   0.69849836706325      0.19633771497050     -0.30554669349428
  Cl  -0.41838753625433     -1.09125829397294      1.78674211161608
  H   0.65624779660558      0.40911953704378     -1.37910144840230
  H   -0.53494022657729     -1.51597643789065     -0.51133161989322
  C   -1.81558081258187      0.19875788301018     -0.15585860265113
  H   -2.68587364846297     -0.41298282166660      0.08358665620632
  H   -1.83804951766805      1.09016468381349      0.47299222656903
  H   -1.88287642536176      0.50043014028860     -1.20498987870766
  N   1.92872130131804     -0.67516903859994     -0.13700593336583
  O   2.81341976879511     -0.29707045405353      0.61739120421267
  O   1.91076845231113     -1.70665326869998     -0.79818447227659
  C   0.83506386177091      1.43856559498162      0.44194223743137
  N   0.87996222720497      2.46541646371039      1.00932400180016
