14
Coordinates from ORCA-job run
  C   -0.55538503505078     -0.50006138326461     -0.32737696774224
  C   0.71559974884057      0.31398040856645     -0.09150043859553
  Cl  -0.52554411288768     -1.93975369384658      0.72223490007581
  H   0.73495219536763      1.14137199066000     -0.80897074799921
  H   -0.51438644689884     -0.86296306774136     -1.35538957873558
  C   -1.80274460834287      0.32378816386060     -0.07533178103223
  H   -2.68900340421907     -0.27188102575839     -0.29577452153298
  H   -1.85451391532898      0.64509404886970      0.96618019510917
  H   -1.80959541586178      1.20598156869928     -0.72184852546154
  N   1.92913756907159     -0.52528516771565     -0.44344785052838
  O   2.77256569752497     -0.72314520299355      0.41929661667573
  O   1.94236643470184     -0.93344054502992     -1.59873690809591
  C   0.81739962636483      0.83172110077528      1.26572940759316
  N   0.83715166671856      1.29359280491876      2.34493620026975
