14
Coordinates from ORCA-job run
  C   -0.72508525230778      0.29813138033872     -0.40082658612519
  C   0.79005524058986      0.06473041545806     -0.38929347513369
  Cl  -1.22717361665886      0.33568773084395     -2.11245179026695
  H   1.03480333379408     -0.87166009753005     -0.89414108070716
  H   -0.92598280070296      1.28874152778712      0.01001019600241
  C   -1.47909923440797     -0.77783012203222      0.35551881742591
  H   -1.24072189232105     -0.73648214001741      1.42047764299688
  H   -1.23270943322150     -1.77028587048529     -0.02681672802123
  H   -2.55202857588353     -0.61980983655725      0.24391006303930
  N   1.21242233058771     -0.10667157015634      1.05094346630086
  O   1.57260986650229     -1.22887763324680      1.38856700944124
  O   1.09999637671073      0.88129399219274      1.76832516741954
  C   1.53637938435872      1.17498025795370     -0.96965272857813
  N   2.13553427296028      2.06705196545108     -1.44256997379378
