14
Coordinates from ORCA-job run
  C   -0.74179185734225      0.26035055123171     -0.39757968750990
  C   0.78580786197976      0.12988043433541     -0.38547851951468
  Cl  -1.23937193533732      0.31290070368790     -2.11021912498891
  H   1.09551091698656     -0.76905860671539     -0.92153319145692
  H   -1.01049608576132      1.22323004346948      0.03967305992480
  C   -1.42412357870097     -0.88433843223314      0.32521271640749
  H   -1.19773053657007     -0.85145194233992      1.39323567801352
  H   -1.10519791843658     -1.84782692544853     -0.07739427359255
  H   -2.50457996055925     -0.79905250637093      0.20677141473779
  N   1.21400356560683     -0.06331377985634      1.05042966889610
  O   1.03976530293085      0.89131373816713      1.79979584628888
  O   1.64242491273694     -1.17176631986537      1.35160219264706
  C   1.45520777711200      1.30928317896873     -0.92111194843906
  N   1.98957153535484      2.25984986296925     -1.35640383141359
