14
Coordinates from ORCA-job run
  C   -0.55895550132106     -0.58415010672339      0.11684495981459
  C   0.70059320572163      0.16505438626994     -0.31319984654253
  Cl  -0.44067502783683     -0.96897366033688      1.85290940059306
  H   0.66332607230468      0.31175669785309     -1.39799520286929
  H   -0.55970952413321     -1.53728086437777     -0.41388965413658
  C   -1.81294958440449      0.21703699627885     -0.17244712450708
  H   -1.87373156638308      0.45083041693571     -1.23918790916854
  H   -1.82179814017774      1.14774970714197      0.39711012378476
  H   -2.69355723522154     -0.36352609155108      0.10395532418267
  N   1.91646700938683     -0.71391137962554     -0.08812978784765
  O   1.88289581473715     -1.78351356312208     -0.68511632574440
  O   2.80631103182437     -0.30420993589938      0.64336182945355
  C   0.85747222251950      1.44975037446346      0.35444253115431
  N   0.93431122298378      2.51438702269310      0.84334168183312
