14
Coordinates from ORCA-job run
  C   -0.71887366417742      0.29344947878487     -0.41564869063411
  C   0.79280774985068      0.03999972703682     -0.38869261562610
  Cl  -1.21307958405026      0.27686532886880     -2.12983584001988
  H   1.02775498960017     -0.91613208367515     -0.86000561995021
  H   -0.90745664326774      1.30079641574679     -0.04132519005526
  C   -1.49104475671751     -0.74387594402615      0.37564086546577
  H   -2.56110851814990     -0.57765217869927      0.24925516562181
  H   -1.25353237779680     -1.75347588940521      0.03456402579706
  H   -1.25999284053043     -0.66335604103347      1.44008447629218
  N   1.20585639009540     -0.08804910363894      1.05897184086574
  O   1.10604051376138      0.92564095524493      1.74148189951967
  O   1.54653684133499     -1.20352917619169      1.43685619644267
  C   1.55656491147807      1.12029118781117     -1.00184729965545
  N   2.16952698856934      1.98802732317649     -1.50149921406391
