14
Coordinates from ORCA-job run
  C   -0.74748870839035      0.28323082031120     -0.36905163768671
  C   0.77434331318958      0.10179294484218     -0.41639561555811
  Cl  -1.31082863203689      0.34294862436453     -2.06088355693970
  H   1.03142358195170     -0.81153818775023     -0.95593739417664
  H   -0.96669958549375      1.25699749989531      0.07181110789011
  C   -1.43804083220080     -0.83434533265322      0.38756555621750
  H   -2.51896221675583     -0.71480045408751      0.31024962566371
  H   -1.16592191368315     -1.80983084045967     -0.02039905723669
  H   -1.16938496346253     -0.80346959231581      1.44575899006801
  N   1.25174784927844     -0.09527561234909      1.00323650213993
  O   1.62972172181628     -1.22256899686583      1.30321021376642
  O   1.15928003934712      0.87574960383650      1.74584628359747
  C   1.46103105129047      1.25329244944437     -0.98975739684333
  N   2.01077929514972      2.17981707378726     -1.45625362090197
