14
Coordinates from ORCA-job run
  C   -0.63562094968422     -0.15680932157067     -0.71767471354833
  C   0.85102387465724      0.15245609326279     -0.48131013316394
  Cl  -0.76625740548896     -1.80194398488739     -1.39628217667065
  H   1.41640627491403     -0.03608083966613     -1.39563192704154
  H   -0.95222497193615      0.52359083388117     -1.51238751058242
  C   -1.53236590328791     -0.00189591068998      0.49478025542024
  H   -2.56926981525617     -0.14746592997597      0.18968792974224
  H   -1.42981461883679      0.99992218516534      0.91781077505645
  H   -1.29041013537071     -0.73266844987866      1.26467336894917
  N   1.44755834466754     -0.77003496183618      0.55605919362477
  O   2.16841052147343     -1.66607134764909      0.13313457284279
  O   1.14285638925646     -0.55622286788895      1.72497454934665
  C   1.02223358322700      1.53354240518199     -0.04469339593935
  N   1.12647481166522      2.66068209655174      0.26785921196393
