14
Coordinates from ORCA-job run
  C   -0.55532624110849     -0.57705958768432      0.15611145747214
  C   0.71181752620012      0.14145486060205     -0.30385449982921
  Cl  -0.50079473902784     -0.77590570165538      1.92587661680112
  H   0.71543151651824      0.16963368490944     -1.39877020902128
  H   -0.52447823198457     -1.58030760538765     -0.27117564480032
  C   -1.80588789310567      0.17021665398405     -0.26283711879709
  H   -2.69004921741034     -0.39187748715847      0.03908776942227
  H   -1.84750373014554      1.15460546573169      0.20563710690570
  H   -1.82719356473077      0.29117239741672     -1.34949376317096
  N   1.92801883382203     -0.68910717140403      0.06055278227086
  O   1.93082860861957     -1.81664385437494     -0.41903781441385
  O   2.78329661385825     -0.18910404936623      0.77696583973032
  C   0.82681539761952      1.49232340916432      0.22779029621283
  N   0.85702512087548      2.60059898522276      0.61414718121746
