14
Coordinates from ORCA-job run
  C   -0.62917974554643     -0.14997084688270     -0.72429296329170
  C   0.84917598825935      0.18715715850796     -0.47319319908034
  Cl  -0.71881001700946     -1.77588828449435     -1.45411106505078
  H   1.42163243742384      0.03891375362323     -1.39051853716511
  H   -0.95940031761124      0.54733582442197     -1.49864785764112
  C   -1.53278887898212     -0.05381367289660      0.48906470677963
  H   -2.56508630564964     -0.21478312430600      0.17600835430746
  H   -1.45544675441624      0.93683278651720      0.94271634946373
  H   -1.27591957555552     -0.80194969602444      1.23720323958601
  N   1.46384202063809     -0.75182738976709      0.53848728815604
  O   1.15010289287008     -0.58081183047153      1.71196591080827
  O   2.20631469097928     -1.61804635470910      0.09153786685152
  C   0.98603222461813      1.55852200039374      0.00417622043921
  N   1.06153133998188      2.67832967608772      0.34960368583719
