14
Coordinates from ORCA-job run
  C   -0.64174807191141     -0.15711068026849     -0.71176149224866
  C   0.84206298480859      0.17406471337838     -0.48932637239467
  Cl  -0.75278369614314     -1.79387626880781     -1.41407344860520
  H   1.39926898654446      0.00825292816252     -1.41303676293189
  H   -0.98028159900925      0.52943657474511     -1.49200988632430
  C   -1.52563773210921     -0.03661601950209      0.51400492117902
  H   -2.56415593343225     -0.19041440013391      0.21850690321047
  H   -1.26475527861244     -0.77871268820663      1.26678773353647
  H   -1.43102569085087      0.95807115123934      0.95521494808672
  N   1.46769774800432     -0.75254003087881      0.52749059755869
  O   1.17319213879503     -0.56123484330321      1.70280404963891
  O   2.20014681862885     -1.62855407371059      0.08292817181435
  C   0.99540745673320      1.55171906014898     -0.03527935371773
  N   1.08361186855411      2.67751457713723      0.28674999119780
