9
Coordinates from ORCA-job run
  C   -0.33177839347343     -0.57528170036841     -0.46636386146501
  C   0.97013732054791     -0.43612022099646     -0.11057576907011
  H   -0.62744268692845     -1.43459576847524     -1.06128471046055
  H   1.70544377852492     -1.16591732409501     -0.42047459879090
  N   -1.33219029720303      0.32076401566754     -0.21277587925592
  H   -2.27416183421404     -0.02921495131564     -0.21473128535142
  H   -1.14587709108802      1.03101739560178      0.47942226656336
  C   1.38079860916645      0.67557403784020      0.67461547790249
  N   1.65507059466768      1.61377451614124      1.33116835992806
