9
Coordinates from ORCA-job run
  C   -0.40021547402744      0.07030395928166     -0.32246842775946
  C   0.76432160047998     -0.05879889186858      0.35554587384367
  H   -0.44555035018343      0.72710296075021     -1.18716525773715
  H   0.84917798634305     -0.71232404471296      1.21887488881208
  N   -1.55412902434692     -0.62637533954996     -0.07079362001525
  H   -2.41069566768450     -0.20493538897518     -0.38663976387285
  H   -1.62641630816297     -1.07597809048839      0.82786532843969
  C   1.92804046275586      0.64872977956840     -0.05328863473241
  N   2.89446677482636      1.23427505599480     -0.38093038697831
