9
Coordinates from ORCA-job run
  C   -0.36919054308237     -0.01979043084161     -0.36375633744765
  C   0.71017093967386      0.13238649703726      0.43927062826348
  H   -0.23395754479638     -0.04719016301370     -1.44179433199433
  H   0.61214661523895      0.17097878835747      1.52039527329941
  N   -1.67528108783385     -0.07101522180413      0.05173774839551
  H   -2.32294040182126     -0.53229805653977     -0.56383131851029
  H   -1.83282971946505     -0.26454406661902      1.02791844843174
  C   2.01466095700185      0.26347905676976     -0.11107237951577
  N   3.09822078508424      0.36699359665373     -0.55786773092209
