9
Coordinates from ORCA-job run
  C   -0.29160543146428     -0.30190397441919     -0.30418355410399
  C   0.60373500589823      0.49181015950964      0.32900707288119
  H   0.04487508875335     -0.95230984428589     -1.10730697500344
  H   0.30277685923966      1.16128572937355      1.12957190155366
  N   -1.64482089842751     -0.31652818002981     -0.08354315650091
  H   -1.96890517953957      0.09907068425355      0.77517844008017
  H   -2.13091851306004     -1.15954554931258     -0.33685260188587
  C   1.97448888725901      0.48881617097164     -0.04902666594607
  N   3.11137418134116      0.48830480393909     -0.35184446107476
