9
Coordinates from ORCA-job run
  C   -0.36270352213587     -0.59344086835370     -0.41759864061333
  C   0.95769199022555     -0.45568615006072     -0.13739408558070
  H   -0.69975103054803     -1.47811262318098     -0.94990336273549
  H   1.66678941052396     -1.21128056061257     -0.44656081189401
  N   -1.33754927980256      0.32889065612216     -0.15942665913597
  H   -2.28277148705428     -0.00618034428090     -0.09708116117213
  H   -1.10750014522521      1.07203014981307      0.48322458183425
  C   1.42305069016491      0.68882968760374      0.56587423921295
  N   1.74374337385153      1.65495005294992      1.15786590008442
