9
Coordinates from ORCA-job run
  C   -0.34469363168503     -0.58559622116672     -0.44591151317146
  C   0.97266215332537     -0.36538961364133     -0.21106625050012
  H   -0.63492326954911     -1.39182534488993     -1.11322755405245
  H   1.72425643200651     -0.99519223587201     -0.66706202585453
  N   -1.38573302756381      0.07703667993781      0.14130815118553
  H   -2.26540039473466      0.07609006824349     -0.34416582506778
  H   -1.16877964308821      0.93505179735166      0.62593772206112
  C   1.38597150066426      0.69148448076561      0.64473124569864
  N   1.71663988062469      1.55834038927142      1.36945604970104
