9
Coordinates from ORCA-job run
  C   -0.37080934678743     -0.11016908617643     -0.34483983018242
  C   0.68765221470995      0.28521690678003      0.40108274477520
  H   -0.27404790840717     -0.16053711466707     -1.42615987567645
  H   0.62542596662243      0.35676665665954      1.48278650880588
  N   -1.62446665697920     -0.39368550517020      0.13182074767549
  H   -2.19717019533939     -0.99389370604604     -0.43613322383351
  H   -1.70759119451040     -0.56271720192024      1.12161855429534
  C   1.91858464981267      0.64246080407408     -0.21449732791850
  N   2.94242247087854      0.93555824646633     -0.71467829794103
