9
Coordinates from ORCA-job run
  C   -0.34065530082011     -0.67669892245902     -0.29073958015440
  C   0.97887991014728     -0.41473241689772     -0.11506124439777
  H   -0.64115373829717     -1.65702477459420     -0.64853205003925
  H   1.72307395579889     -1.16784785042219     -0.33493703811543
  N   -1.36239233571188      0.21719284904436     -0.13338940265522
  H   -1.15253639206262      1.06788348734293      0.36706601050459
  H   -2.27825257642789     -0.15830932453441      0.04029932863740
  C   1.39670870279566      0.85953838837248      0.35740112893911
  N   1.67632777457784      1.93099856414778      0.75789284728097
