9
Coordinates from ORCA-job run
  C   -0.33907407295172     -0.57666563134578     -0.45872707710020
  C   0.96576847585115     -0.44585712343118     -0.11094809317885
  H   -0.64513613498171     -1.43659024060596     -1.04701316082237
  H   1.69319338442880     -1.18371705281376     -0.42043144904645
  N   -1.33052051241959      0.32826568467613     -0.20415469991673
  H   -2.27651062328958     -0.01001565491048     -0.20826964739253
  H   -1.13684745585439      1.04395670328012      0.48011674332780
  C   1.39098411160539      0.66873415347244      0.66226925852504
  N   1.67814282761166      1.60988916167847      1.30915812560429
