9
Coordinates from ORCA-job run
  C   -0.34811462760518     -0.68842867204145     -0.25063426114081
  C   0.97584696477386     -0.40536521603856     -0.16312319198259
  H   -0.65735174656816     -1.64897412845555     -0.65177002901859
  H   1.71420748429224     -1.12822991269563     -0.48194471348507
  N   -1.36774740699587      0.10254509783477      0.19809819077166
  H   -1.14598767917666      1.06324201262730      0.41222640517272
  H   -2.27675735488928     -0.04367498936194     -0.20397596520024
  C   1.40618897532849      0.84669856197701      0.35469142042782
  N   1.69771539084055      1.90318724615405      0.78543214445509
