9
Coordinates from ORCA-job run
  C   -0.34326963026484     -0.71903561454269     -0.15209820241540
  C   0.97671560269986     -0.40537866955135     -0.15739390065997
  H   -0.64769615599712     -1.72505792128306     -0.42585625800974
  H   1.71566688488769     -1.14779973755730     -0.42627574595198
  N   -1.36012087863774      0.10028642604612      0.25021170918225
  H   -1.14943406471853      1.08277696112549      0.34184720143214
  H   -2.28091269165657     -0.10424631296440     -0.09608388615687
  C   1.40190173449728      0.90627662858734      0.18849183706810
  N   1.68914919918998      2.01117824013985      0.47715724551147
