9
Coordinates from ORCA-job run
  C   -0.35460842782100     -0.10601514436258     -0.36265816309205
  C   0.71223649281101      0.09394439695524      0.44634328595427
  H   -0.21289262705184     -0.12206375134315     -1.44017184612337
  H   0.60978810322663      0.10696054225605      1.52754121899361
  N   -1.63373748284990     -0.37692058611299      0.05138527656209
  H   -2.37001011103670     -0.15442743886256     -0.59642113224279
  H   -1.85532538089387     -0.16074707116497      1.01004182244375
  C   2.01300164879547      0.27948350799346     -0.09711757725173
  N   3.09154778482021      0.43978554464149     -0.53894288524379
