9
Coordinates from ORCA-job run
  C   -0.34509956345268     -0.70433085247179     -0.20738767193125
  C   0.97735977114442     -0.42521434403772     -0.08749510869599
  H   -0.64765044269264     -1.69165785226317     -0.54390548571446
  H   1.72068375615110     -1.17612019376710     -0.31751717103553
  N   -1.37382291082277      0.12737707721936      0.13491664796836
  H   -2.26583152391881     -0.04139122936292     -0.29573542761171
  H   -1.14899977938380      1.10034680175134      0.27974873477584
  C   1.39937948334274      0.86264341342722      0.34209727832691
  N   1.68398120963244      1.94934717950479      0.69527820391784
