9
Coordinates from ORCA-job run
  C   -0.34766696796901     -0.58145201369467     -0.44600077303114
  C   0.95870608094836     -0.46314904232871     -0.09920224894794
  H   -0.66691349364014     -1.45176080767576     -1.01202281587832
  H   1.67460822632114     -1.22045092462603     -0.38790879329384
  N   -1.32477073491346      0.34629740232952     -0.21767758873427
  H   -1.11914336465909      1.07412484162223      0.45031715562902
  H   -2.27535970467858      0.02064651243693     -0.20859307575978
  C   1.40003104336501      0.66263050310838      0.64836185170534
  N   1.70050891522578      1.61411352882810      1.27372628831092
