9
Coordinates from ORCA-job run
  C   -0.36791934916386     -0.00251080216372     -0.36654636440868
  C   0.72847753732856      0.00574631758972      0.42738372536692
  H   -0.30414530803077      0.40569482394768     -1.37180966332953
  H   0.70310614619278     -0.40261691202740      1.43348841004599
  N   -1.57910595311758     -0.56385225250947     -0.05145596380176
  H   -1.75047785001939     -0.75380679794335      0.92321010925547
  H   -2.37918560700723     -0.20287690731853     -0.54244929329495
  C   1.96255351777587      0.53572886832956     -0.03909388624161
  N   2.98669686604163      0.97849366209552     -0.41272707359185
