9
Coordinates from ORCA-job run
  C   -0.40262218367922      0.12135117212600     -0.30396145934311
  C   0.73981179669823     -0.02227714968942      0.40801685562484
  H   -0.38018369805732      0.65859391664128     -1.24858758767810
  H   0.75279778738296     -0.54746215310326      1.35855370778742
  N   -1.64912687498253     -0.29072290199468      0.09188777871896
  H   -2.32111469473930     -0.45132624809604     -0.63849487482082
  H   -1.68829738633732     -0.96511527117877      0.83935247313737
  C   1.96487923130559      0.52535402332771     -0.06183666921978
  N   2.98385602240891      0.97160461196718     -0.44493022420678
