9
Coordinates from ORCA-job run
  C   -0.34240984095038     -0.67874496775804     -0.28370982192608
  C   0.97932317333646     -0.39427796135982     -0.17098844615383
  H   -0.64313888791718     -1.65908625166942     -0.64186944959384
  H   1.72523457966185     -1.13011628668771     -0.43842884316301
  N   -1.37136789554304      0.19284791418454     -0.06143244809094
  H   -1.15273497644745      1.04256207605616      0.43697445697615
  H   -2.27018544566387     -0.20252469136994      0.15227724938369
  C   1.39763499795286      0.87964137733570      0.30137683376913
  N   1.67864429557074      1.94969879126853      0.70480046879871
