16
Coordinates from ORCA-job run
  C   -0.56881010714514      0.07044136173891      0.12997262173805
  C   0.72646129733495     -0.11037577220697     -0.64924049509403
  F   -1.13297552988145      1.29313788127430     -0.26073615221967
  H   0.46197627990963     -0.15832862681378     -1.70991847001457
  H   1.15603652319327     -1.08495672615340     -0.38800396416742
  N   -0.28365886172341      0.19761549173760      1.53745141347310
  H   -1.14208727342185      0.17342407240131      2.07511377945344
  H   0.31194175299024     -0.55926419938832      1.84782843230324
  C   -1.60841522918975     -0.98393739500961     -0.21460371120499
  H   -1.82467160908903     -0.98036671599867     -1.28502845152908
  H   -1.25645995244051     -1.97705445372830      0.07385816516630
  H   -2.53603489655205     -0.77059021751305      0.32275080144955
  C   1.73552273394824      1.00775682393715     -0.41207231235894
  H   2.05060904837795      1.04578390063745      0.63046641278514
  H   1.29024022263562      1.97167009278549     -0.65951148071962
  H   2.61932560105329      0.86504448229989     -1.03832658906049
