16
Coordinates from ORCA-job run
  C   -0.64289603293721      0.00748679500394      0.11502208756433
  C   0.68697196018200     -0.07049861802608     -0.63629586827947
  F   -1.23909696907789      1.21070338139461     -0.28703199814196
  H   1.15215372191905     -1.03568133965422     -0.40621184013371
  H   0.46183916324788     -0.07082255605009     -1.70770619128857
  N   -0.55360196643379      0.08137861274123      1.55306804219336
  H   -0.25252092294338     -0.80615730923262      1.93470371016720
  H   0.10647089683954      0.79595377131505      1.83338142371267
  C   -1.58512095504339     -1.11397830624364     -0.26971864424121
  H   -2.53459534986558     -0.96920000381376      0.24612735354061
  H   -1.17130018030424     -2.08656312674858      0.00877463108049
  H   -1.75604542298094     -1.10450521025568     -1.34714764566361
  C   1.64506189835744      1.07198500151736     -0.31609545289446
  H   2.51894247506807      1.03596379357152     -0.96966852593710
  H   2.01144099729116      1.02216467815840      0.71203077656658
  H   1.15329668668128      2.03477043632256     -0.46223185824515
