16
Coordinates from ORCA-job run
  C   -0.71548259024317      0.14569689231989      0.22851918550105
  C   0.34975235946400      0.90027233692793     -0.55148305299969
  F   -1.91871280115824      0.88497511116047      0.03069688939108
  H   0.41743547380182      1.90555704570638     -0.11930201627589
  H   -0.02104280319043      1.02831297714506     -1.57246058359878
  N   -0.38452878234745      0.10144709021434      1.61234569909364
  H   -0.29302463359988      1.04143199160977      1.97928180702364
  H   -1.10771644890139     -0.37735476346307      2.13531554420850
  C   -0.99863411293125     -1.24751330842426     -0.29234945386090
  H   -1.22930145977021     -1.20915962520042     -1.35804569274751
  H   -0.14694654599436     -1.90645043594566     -0.12681246743960
  H   -1.86791991551084     -1.65861350344090      0.22689155609478
  C   1.71647185638435      0.22542491717002     -0.54704973901867
  H   1.69397761237874     -0.72500184772034     -1.08413129008414
  H   2.04664624593277      0.03107856336592      0.47388149204189
  H   2.45902654568556      0.85989655857487     -1.03629787732940
