16
Coordinates from ORCA-job run
  C   -0.66428009616349      0.17637993779346      0.26153614144664
  C   0.82380570828963      0.51656864649572      0.23560776664659
  F   -1.28477391105703      1.12236439862130     -0.57272940455683
  H   0.91672583543004      1.53678394856405      0.62691643959870
  H   1.33221837486049     -0.14459137210001      0.94603182156603
  N   -1.26564045222690      0.31965018437586      1.56000432481895
  H   -1.18520439109332     -0.53286213956583      2.09660629156319
  H   -0.83911150932728      1.07756418308454      2.07849866365027
  C   -0.99600175910106     -1.19099883827408     -0.30002507735870
  H   -0.75449614957785     -1.23193078434247     -1.36139880532734
  H   -2.06563766295798     -1.37065174810824     -0.18135708530822
  H   -0.43783229368925     -1.97543190164859      0.21786702896428
  C   1.47759444526987      0.43582461330928     -1.13953059516153
  H   0.91689357186100      1.03165685938984     -1.86089406827221
  H   2.49961272321873      0.81968283167115     -1.10331252196175
  H   1.52612756626439     -0.59200881926597     -1.50482092030807
