16
Coordinates from ORCA-job run
  C   -0.81568020802486      0.18245421458443      0.18149897846163
  C   0.30495399998384      0.89518201593632     -0.57030200198768
  F   -1.96648177245682      0.93784542982622     -0.10067178090236
  H   0.02255166692314      0.95716880078390     -1.62576225925604
  H   0.33016075973283      1.92487407875031     -0.19473032823993
  N   -0.66915104163469      0.17470072728474      1.61006488761511
  H   -0.15838663267026     -0.63293771831353      1.93503577556614
  H   -0.22009717296057      1.01684328722728      1.94636804700148
  C   -1.08946031914512     -1.22401802529937     -0.31080218398260
  H   -0.24252427494664     -1.88913934367544     -0.13113758537177
  H   -1.30127071111724     -1.20671700794274     -1.38072334061408
  H   -1.96350037597346     -1.61258428347590      0.21361492874846
  C   1.67389829531671      0.24174315880239     -0.42059872731631
  H   1.95149917938202      0.13873096580242      0.63096324650858
  H   1.69992799399174     -0.74954356511753     -0.87785618550215
  H   2.44356061359939      0.84539726482650     -0.90596147072848
