18
Coordinates from ORCA-job run
  C   -0.87412593459534     -0.10826404946591     -0.31731528658292
  C   0.62275086530099      0.23061329322526     -0.35046401958714
  Br  -1.87016291405372      1.33800538035456     -1.35839199070112
  H   0.94252108548105      0.15763463297054     -1.39871115633258
  N   -1.10537603198448     -1.38126377777111     -0.90897252992331
  H   -2.09580368991347     -1.59031209451814     -0.94840134836421
  H   -0.72098504103501     -1.43442479012340     -1.84514731443049
  N   -1.40560724603566     -0.02657683542862      1.02605736727500
  H   -2.39826773569816      0.16789586842730      1.01325598568149
  H   -1.25657388810554     -0.92685754021252      1.47035339493954
  C   1.39034264226828     -0.80943242103384      0.47382328129893
  H   2.46471613720309     -0.64593201968263      0.35850118171909
  H   1.15927990681459     -1.82899415549915      0.16531152776740
  H   1.15405979594874     -0.69921158010798      1.53559150071155
  C   0.93471878224156      1.62978374025834      0.16784024563547
  H   2.01651512064457      1.75188292127144      0.26693079258719
  H   0.47591666562424      1.76927184526293      1.14806021231721
  H   0.56608147989427      2.40718158207294     -0.50032184401111
