18
Coordinates from ORCA-job run
  C   -0.84884589930647     -0.24598806348410     -0.26600521843683
  C   0.60907816732842      0.20433263487258     -0.32668983756136
  Br  -1.87568232029705      1.14947078099273     -1.66104160006899
  H   0.87687074371503      0.25314791986803     -1.38746956484942
  N   -1.04534796763712     -1.52681103801137     -0.78866784866796
  H   -0.64542830475796     -1.60345114803880     -1.71428694850319
  H   -2.02447666035550     -1.77941561329273     -0.83581877783441
  N   -1.43239565657543     -0.08990596473172      0.99061241731742
  H   -2.37197170024301     -0.46234165954936      1.03784691966650
  H   -1.43913735797146      0.87627871450715      1.28432498923272
  C   1.48967751431535     -0.84032336882309      0.36973626809795
  H   2.53022076707547     -0.50462345205424      0.36224085529724
  H   1.43585011593754     -1.81162194628350     -0.12161246668838
  H   1.17308151848772     -0.96847458886843      1.40665542254137
  C   0.83491467702517      1.57917528446067      0.29339314143092
  H   1.86130558182181      1.90031585278044      0.10242047618688
  H   0.16329729517678      2.32856446772650     -0.12687685028827
  H   0.70698948626068      1.54267118792922      1.37923862312779
