18
Coordinates from ORCA-job run
  C   -0.82445984331444     -0.25347749763315     -0.27884317799885
  C   0.55527214145182     -0.03642122967351      0.35212708312670
  Br  -0.85021503013313      0.62633589707496     -2.11912945496823
  H   0.51602039014589     -0.67844686014124      1.24485619809105
  N   -1.02795201986674     -1.65641689103764     -0.55731729822057
  H   -1.23569297674689     -2.11389929005530      0.32580895193198
  H   -1.81326021770993     -1.78823934596788     -1.18341686974489
  N   -1.85260580524553      0.28577245793366      0.54561740412042
  H   -2.76409971124500      0.09583136199064      0.14593042970908
  H   -1.75940020100550      1.28635084937940      0.66706187816503
  C   0.78966656521262      1.39807506660664      0.81733575073406
  H   1.80779178721827      1.49833040254164      1.20066454477633
  H   0.11294938046197      1.68923393790318      1.62368663904676
  H   0.67836799058598      2.09812194928060     -0.01526271052605
  C   1.69859164180898     -0.52366407268220     -0.53157817275689
  H   1.90279889473247      0.18814003590233     -1.33345610517657
  H   2.60635144072781     -0.62501420620090      0.06967741834850
  H   1.46087557292135     -1.48961256522124     -0.97576250865788
