18
Coordinates from ORCA-job run
  C   -0.98400589589207     -0.08042428429112     -0.19218566260382
  C   0.33214331698041      0.52540422543684      0.33005749284919
  Br  -2.13783082633795      1.54036975396227     -0.77209010065567
  H   0.04630227843995      1.31922441302715      1.02851821592567
  N   -0.76397720994360     -0.98348779918968     -1.24773796050841
  H   -0.28237713823220     -0.56296804145842     -2.02977354273527
  H   -1.64313412167831     -1.38227677295292     -1.55271301960692
  N   -1.82234500116370     -0.74716759385571      0.76527732353282
  H   -1.34813813537191     -1.58166806745977      1.09135173052024
  H   -2.03744616427474     -0.14233278787229      1.54727474299993
  C   1.19201005379608      1.13562917467323     -0.77461959734858
  H   2.01756800356257      1.69949060906433     -0.33350782952087
  H   0.61981119358961      1.81817404662725     -1.40454531237593
  H   1.63638546773440      0.35580085485726     -1.40057404409100
  C   1.13442545556600     -0.53297927408056      1.09231676201573
  H   1.32929782517641     -1.39931056077860      0.45635238766879
  H   0.61895120669995     -0.86949890308124      1.99395145347017
  H   2.09435969134907     -0.11397899262804      1.40464696046392
