18
Coordinates from ORCA-job run
  C   -0.92811390388429     -0.24907707787246     -0.16649796571988
  C   0.51048778697340      0.01950979166283      0.31203026160627
  Br  -1.17520446874033      0.74502898312418     -1.95325950683413
  H   0.51925027433931     -0.46227053688871      1.30120884740256
  N   -1.16854603608812     -1.63149949254642     -0.29798064288184
  H   -2.13724278837655     -1.78402792221175     -0.54963375897108
  H   -0.56029529756070     -2.07565793655371     -0.97065962182628
  N   -1.98884608846599      0.27115632563071      0.65973278110292
  H   -1.96658482631121      1.28039220090985      0.69944594419074
  H   -1.88444551706757     -0.11243342663419      1.59397634871947
  C   0.83240596762586      1.49769076707084      0.50473292446731
  H   0.08102313855623      2.00945876690307      1.10956847018805
  H   1.78895365941420      1.59578325712861      1.02443528935120
  H   0.91169528487749      2.01333020998040     -0.45342554771631
  C   1.57835429713415     -0.65576754245961     -0.54537169798911
  H   1.52502544295709     -0.30655453565365     -1.57906282802324
  H   2.57125923015914     -0.41269088347019     -0.15880595176090
  H   1.49082384445792     -1.74437094811983     -0.53243334530576
