18
Coordinates from ORCA-job run
  C   -0.93796352100491     -0.23297100536007     -0.13082411260648
  C   0.52227550984830      0.01053432683464      0.29242459616700
  Br  -1.17471427135514      0.57742689038099     -2.00939181527009
  H   0.57962649742500     -0.53098202945725      1.24852553417275
  N   -1.33758556648418     -1.60749589971806     -0.30238833254071
  H   -0.82575464049259     -2.05144176295825     -1.05176899733745
  H   -1.16936514533862     -2.10097992732606      0.56883367262136
  N   -1.83546428570349      0.32856990771003      0.79941322945076
  H   -2.78520180072921      0.09925466395724      0.53411584478551
  H   -1.73230589917436      1.32872897619272      0.89312962952829
  C   0.84493937704075      1.47751421555475      0.56691155304145
  H   1.89628379421947      1.57866759431645      0.84766540327020
  H   0.67456864216128      2.08628763470367     -0.32397408195482
  H   0.25585379876870      1.88238649787261      1.39271082923976
  C   1.55062727091645     -0.59693658501602     -0.65586678834359
  H   1.34150897357364     -1.64572545448422     -0.87636735264291
  H   2.54018098037790     -0.55369436464143     -0.19368489130001
  H   1.59149028595104     -0.04914367856175     -1.59846392028101
