17

C	-0.523225	-0.039882	-1.424037
C	0.0	0.0	0.0
F	-1.945777	-0.290885	-1.299138
H	1.093572	0.0	0.0
N	-0.295489	1.177265	-2.093557
H	-0.831567	1.195677	-2.950408
H	-0.535105	1.936913	-1.471322
N	-0.014596	-1.128552	-2.20646
H	-0.085776	-1.947432	-1.609762
H	0.979097	-0.935208	-2.303219
N	-0.364849	-1.258241	0.648255
H	0.292623	-1.423751	1.400199
H	-1.305611	-1.216815	1.019165
N	-0.429553	1.236101	0.659811
H	-1.327655	1.097852	1.110954
H	0.261665	1.465726	1.366898
H	2.948489	0.0	0.0
