17

C	-0.473601	-0.057958	-1.442971
C	0.0	0.0	0.0
F	-0.055676	-1.322518	-1.943953
H	1.097305	0.0	0.0
N	-1.888846	0.05656	-1.527805
H	-2.295975	-0.654329	-0.931508
H	-2.163695	-0.089602	-2.491628
N	0.151119	0.916959	-2.290995
H	1.154432	0.763211	-2.193867
H	-0.035326	1.807181	-1.839924
N	-0.566698	-1.149117	0.736368
H	-0.203739	-1.978758	0.273383
H	-0.120812	-1.141172	1.650369
N	-0.402297	1.270593	0.570656
H	0.241527	1.503956	1.317619
H	-1.343872	1.19746	0.937971
H	3.025193	0.0	0.0
