17

C	-0.380948	0.019898	-1.472981
C	0.0	0.0	0.0
F	-1.795156	0.028401	-1.521008
H	1.098857	0.0	0.0
N	0.085505	1.204227	-2.140356
H	1.089751	1.090907	-2.257516
H	-0.014792	1.947626	-1.453001
N	0.065132	-1.156381	-2.16641
H	-0.105825	-1.92197	-1.521264
H	1.077791	-1.086986	-2.24134
N	-0.430976	-1.253472	0.616961
H	0.173756	-1.444037	1.40776
H	-1.384466	-1.171501	0.950352
N	-0.428497	1.237836	0.647867
H	0.156059	1.394883	1.460924
H	-1.393167	1.163614	0.94831
H	2.948853	0.0	0.0
