17

C	-0.291609	-0.06225	-1.488713
C	0.0	0.0	0.0
F	-1.678682	-0.12567	-1.707615
H	1.103517	0.0	0.0
N	0.164971	1.113846	-2.189874
H	-0.201388	1.901721	-1.661766
H	1.172892	1.13601	-2.043328
N	0.29259	-1.264525	-2.015738
H	0.360851	-1.151338	-3.021523
H	1.240134	-1.325094	-1.64099
N	-0.524912	-1.170768	0.710897
H	0.241496	-1.55507	1.257169
H	-0.768347	-1.874587	0.021854
N	-0.479894	1.257791	0.561366
H	-1.351751	1.049375	1.03466
H	0.189625	1.552512	1.26397
H	2.931833	0.0	0.0
