11
Coordinates from ORCA-job run
  C   1.05011220479522     -0.59611994855180     -0.15274299802502
  C   -0.34044905691125      0.02685841632089     -0.21667858523663
  Cl  2.21734609091657      0.42699174164078     -1.03162612649093
  H   -0.60893374568750      0.14905754069176     -1.27739527930746
  H   1.05834363067197     -1.57953580859220     -0.62034296344611
  H   1.37063008903110     -0.65708757463625      0.88637032696603
  N   -0.36729484494003      1.26346460467730      0.55466198235620
  H   0.26357027280252      1.93138390737126      0.12755614714239
  H   -1.29819249854343      1.66212957781024      0.54046562719501
  C   -1.29367293396301     -0.92646377324524      0.36782360422272
  N   -2.05145920817216     -1.69967868348672      0.82090826462380
