11
Coordinates from ORCA-job run
  C   1.09711992304587     -0.51815767932869     -0.29259527204096
  C   -0.32342916250104      0.03948926493948     -0.25917590472005
  Cl  1.75279330607072     -0.81080348146079      1.32637769621199
  H   -0.64808662803079      0.08267865408546     -1.31333092361662
  H   1.10909655559281     -1.46068766665694     -0.84037534552957
  H   1.74909694368769      0.19745497771378     -0.79768827398552
  N   -0.36227443531367      1.32459520800907      0.42320479786932
  H   0.16407135672842      2.00806692579672     -0.10841506139788
  H   -1.31632588248044      1.65379899239265      0.50206673760278
  C   -1.23354043890104     -0.89403883184639      0.41660988168061
  N   -1.98752153789852     -1.62239636364436      0.94332166792588
