11
Coordinates from ORCA-job run
  C   1.16013156723657     -0.40630605207205     -0.04687014820244
  C   -0.29209960591827      0.02049813272662     -0.24279743200200
  Cl  1.46236787923765     -1.99527687530749     -0.78231831900926
  H   -0.54358929125828     -0.08869830139697     -1.30761608223635
  H   1.81682394136836      0.31802577838786     -0.52978821599677
  H   1.38889502768172     -0.45758082635044      1.01599131765038
  N   -0.42657960967459      1.38218917122724      0.27387666668220
  H   -1.40198667605472      1.61573701525535      0.41243698748534
  H   -0.04409338036585      2.03605774056466     -0.39896658811312
  C   -1.19183650943770     -0.86731345590084      0.50217560583537
  N   -1.92903334281489     -1.55633232713392      1.10087620790666
