11
Coordinates from ORCA-job run
  C   1.04095857502653     -0.49341292995927     -0.25725834631332
  C   -0.39050492177788      0.04769268199514     -0.35574571951472
  Cl  1.58453894593926     -0.57779558314654      1.43406242606460
  H   -0.63502884445670      0.07634832302908     -1.42524515672125
  H   1.10919422115624     -1.49583073421733     -0.68173953918727
  H   1.71661599461641      0.17814788863556     -0.78932636117181
  N   -0.62368815883751      1.37562143543189      0.18219439183694
  H   -0.36556251754186      1.40405713222742      1.16124806339328
  H   -0.06043710248499      2.05407837002068     -0.31618619364850
  C   -1.32561694579925     -0.89998141725199      0.26954660888023
  N   -2.05146924584023     -1.66892516676463      0.77744982638182
