11
Coordinates from ORCA-job run
  C   1.09552481366250     -0.33881663196729      0.00887142606068
  C   -0.35874456391911     -0.00407392100887     -0.33544614171287
  Cl  1.53908832385802     -1.96772927502035     -0.54983556361974
  H   -0.49921127388641     -0.16142434591189     -1.40975337105801
  H   1.25162343399882     -0.29356910085843      1.08765437431174
  H   1.75242754902675      0.37606523765001     -0.48835755662019
  N   -0.73976760327754      1.36563718192780     -0.02485665848367
  H   -0.60007582592851      1.56615172362482      0.95804084035169
  H   -0.19113652509867      2.01667589559686     -0.57262227390573
  C   -1.26875924567669     -0.92205736152867      0.36398572169135
  N   -1.98096908275916     -1.63785940250400      0.96131920298476
