11
Coordinates from ORCA-job run
  C   1.06913157007721     -0.45731392176654     -0.19916057953894
  C   -0.37880525198742      0.01868808675201     -0.36733683319869
  Cl  1.55439529515254     -0.45540647431187      1.51203569092021
  H   -0.58629508854448     -0.00307404669001     -1.44479586157389
  H   1.19326749121719     -1.47116965774821     -0.58175124321608
  H   1.73556759696610      0.22178272606861     -0.73345122614017
  N   -0.68526455549997      1.35481921104984      0.11021027100741
  H   -0.45931006324559      1.43262264233078      1.09451623733113
  H   -0.13661784432607      2.03792508919403     -0.39805471438463
  C   -1.29613524007510     -0.94468231699818      0.25923727509998
  N   -2.01093390973441     -1.73519133788044      0.74955098369368
