11
Coordinates from ORCA-job run
  C   1.09271717246614     -0.34630778416263      0.02377013072588
  C   -0.35788138246148     -0.01213557027654     -0.33708570550728
  Cl  1.52525718722844     -1.99570978297254     -0.48091481392272
  H   -0.49559678565284     -0.20494418417034     -1.40589651052019
  H   1.75713203512239      0.34712377540885     -0.49338512154124
  H   1.24491724515422     -0.26781365075882      1.10116719553031
  N   -0.72964558742185      1.37038216172197     -0.07474154214301
  H   -0.16962969912042      1.99859219460146     -0.63751967061083
  H   -0.59693121479307      1.60105925747614      0.90250192470146
  C   -1.27653248066045     -0.89876469766485      0.39095071321846
  N   -1.99380648986109     -1.59048171920270      1.01015340006916
