11
Coordinates from ORCA-job run
  C   1.12423945101758     -0.54686469966325     -0.23211095208910
  C   -0.26810503493652      0.04656085269857     -0.39242519933440
  Cl  1.60913143149543     -0.60046569886313      1.48078790453637
  H   -0.48812337317426      0.02614586158360     -1.46628914212976
  H   1.15969172605646     -1.56526443369443     -0.61776049879420
  H   1.83174781671328      0.09177460906107     -0.75908370818443
  N   -0.27742861126644      1.43648261769243      0.03198801579809
  H   -1.17943833252680      1.85397997141124     -0.16160731022187
  H   -0.11981435677238      1.49038379846906      1.03151052146698
  C   -1.27961210134857     -0.80134747074083      0.27493597518995
  N   -2.11228861525778     -1.43338540795435      0.81005439376237
