11
Coordinates from ORCA-job run
  C   1.05446360395768     -0.47547893726250     -0.23402168751592
  C   -0.39072976604061      0.02246158638168     -0.35653641786215
  Cl  1.59583835776243     -0.47548651225555      1.46018477489609
  H   -0.63382093056014      0.00020693385627     -1.42653375372916
  H   1.15054067299960     -1.49231749227550     -0.61674078121274
  H   1.71335112705690      0.19160123598566     -0.79222808770185
  N   -0.66053500693730      1.36474625609450      0.12549863300894
  H   -0.39849001241172      1.44328254449016      1.10074625331873
  H   -0.12072390214420      2.03746054884637     -0.40543930760649
  C   -1.30170907361557     -0.92365455623844      0.30538904525576
  N   -2.00818507006708     -1.69282160762264      0.83968132914881
