14
Coordinates from ORCA-job run
  C   0.72278670032539      0.19233012576635     -0.00009887874628
  C   -0.78236899723668     -0.10084990586277     -0.17693748633733
  F   0.86580379205188      1.36882853516065      0.68278626284210
  H   -0.91088824229000     -1.00687540295499     -0.77392308219816
  N   1.29042681222108      0.37823426571053     -1.29973038926294
  H   2.22504079670160      0.76162932094201     -1.21122554424039
  H   1.33841597209122     -0.49301021869000     -1.81470555427972
  C   1.36501287871413     -0.87384228373315      0.80856648509359
  N   1.92582856648690     -1.73661899785923      1.37643833219966
  C   -1.45067351342768      1.03667524825187     -0.78988966881811
  N   -2.01729977869890      1.92917649843634     -1.29994863405260
  N   -1.39239165931147     -0.40631978244616      1.17343002288616
  O   -1.47846568883549     -1.59800141410464      1.45257147067682
  O   -1.70222763879197      0.54964401138318      1.87166666423721
