14
Coordinates from ORCA-job run
  C   0.71379517190151      0.22537563198089      0.03244978665364
  C   -0.77254740003730     -0.11164118686352     -0.21737117589224
  F   0.79139669160460      1.35752311063658      0.79610109627730
  H   -0.83989641688468     -0.96356303568304     -0.89744296126194
  N   1.31550857632783      0.51732403937067     -1.23037223138423
  H   2.23362901903426      0.92363534132495     -1.08524361836092
  H   1.40672720797022     -0.31265116586382     -1.80564199103698
  C   1.36914311243211     -0.86884143032339      0.79450629037325
  N   1.96034192373575     -1.72862294993767      1.33521545888541
  C   -1.47600202755671      1.04869317477453     -0.73970258517723
  N   -2.07660257267824      1.96510983135109     -1.15985780513297
  N   -1.40500385454734     -0.56894435536243      1.07954224428107
  O   -1.75013034395802      0.30224779079333      1.86643453037980
  O   -1.46935908734398     -1.78464479619817      1.23038296139605
