14
Coordinates from ORCA-job run
  C   0.72738523876906      0.23438174728926     -0.33340665500306
  C   -0.81495340409611      0.18694975966309     -0.27954393128961
  F   0.99464763621964      1.23809853936132     -1.27734718008194
  H   -1.17817462975900     -0.03315770902635     -1.28608160094593
  N   1.22832927363047     -1.02925242298281     -0.67652126091022
  H   0.87410626403294     -1.36617061658285     -1.56265251788086
  H   2.23800806774166     -1.07322575196880     -0.64615347846034
  C   1.31631211917217      0.67962382218538      0.93978272104392
  N   1.82780840871852      1.05159943410600      1.92907434617759
  C   -1.38616360575895      1.43014747902870      0.21346597802836
  N   -1.85453873712509      2.43782528544090      0.59304442270668
  N   -1.23518003402534     -0.97124579721085      0.59033349705837
  O   -1.11840297254640     -0.81665228674040      1.79880542422944
  O   -1.62018362497356     -1.97092148256260     -0.00379976467240
