14
Coordinates from ORCA-job run
  C   0.72056863719308      0.22551334931680     -0.35291785113322
  C   -0.82039903635051      0.17883023450817     -0.26830249832275
  F   0.96875112369036      1.20386093712737     -1.32788672922150
  H   -1.20226061479911     -0.06833838069523     -1.26161651632668
  N   1.21587563655587     -1.04673169797676     -0.67279882655258
  H   2.22604518657607     -1.08849743895906     -0.66089603508603
  H   0.84656904324032     -1.40385529829981     -1.54491918273441
  C   1.33364185711025      0.70383714555388      0.89650026636610
  N   1.86465272521451      1.10066575627384      1.86565203116707
  C   -1.38298226718600      1.43491587543521      0.20156495573524
  N   -1.84432547220181      2.45296318067301      0.56155755673676
  N   -1.22349237529372     -0.95514541713916      0.64055514640132
  O   -1.61900704237632     -1.97076764086592      0.08147598904280
  O   -1.08463740137300     -0.76725060495233      1.84203169392789
