14
Coordinates from ORCA-job run
  C   0.59283329469719      0.14591495107337     -0.56190114268651
  C   -0.79706067396023      0.27815377254513      0.10272952196762
  F   0.31428834981152     -0.42364460867944     -1.81843742745197
  H   -1.40914216429157      0.96033964421250     -0.48914038042720
  N   1.49991045750032     -0.57709757664470      0.21596187713776
  H   1.15194790668464     -1.49006595059890      0.47761770906648
  H   2.41965515014199     -0.62319515266620     -0.20055707731045
  C   1.11471031102515      1.50076064733418     -0.81941233426152
  N   1.51333794855969      2.58537160593989     -1.02791088930826
  C   -0.70833400730468      0.71009003702341      1.48880199637164
  N   -0.66402309286135      1.07588792895968      2.60376995010446
  N   -1.50629948833234     -1.05870853514936      0.02810994825970
  O   -0.96650620066653     -1.99901419432875      0.60200164592062
  O   -2.55431779100379     -1.08279256902081     -0.60063339738238
