14
Coordinates from ORCA-job run
  C   0.57950768482754      0.12153998909746     -0.58089762017382
  C   -0.80636364304154      0.25432894965902      0.09197232055501
  F   0.30874350955998     -0.56077770994203     -1.78195872911366
  H   -1.45252741666861      0.86141821423758     -0.54381986985832
  N   1.52413809332339     -0.49890451793961      0.23972164380803
  H   1.21593359484112     -1.40054859839451      0.57902470679976
  H   2.43982112572117     -0.54391869155107     -0.18573718287525
  C   1.04353604431900      1.46958432354925     -0.95705041159949
  N   1.39681083971096      2.54784027808792     -1.25924125711774
  C   -0.71712410606529      0.80253935796918      1.43632752613721
  N   -0.67307363347535      1.26403594095270      2.51527448212284
  N   -1.46342785687716     -1.11035139874468      0.13820970894627
  O   -0.88026930241221     -1.97893569915550      0.77883401724879
  O   -2.51770493376301     -1.22585043782570     -0.46965933487963
