18

C	0.0	0.0	0.0
C	-0.435945	-0.038516	-1.477604
Cl	1.776299	0.0	0.0
H	0.068121	-0.900877	-1.922258
C	-0.588923	1.129253	0.800205
H	-0.350304	2.075188	0.310205
H	-1.675197	1.004561	0.848519
H	-0.184936	1.131977	1.810491
N	-0.369723	-1.343829	0.643131
O	-0.353836	-2.33273	-0.080288
O	-0.585555	-1.338881	1.847956
C	0.081677	1.158216	-2.146067
N	0.464211	2.110182	-2.717678
C	-1.944422	-0.153058	-1.690219
H	-2.139734	-0.255972	-2.760156
H	-2.495445	0.708346	-1.32235
H	-2.3623	-1.017017	-1.179359
Cl	-4.742502	0.0	0.0
