18

C	0.0	0.0	0.0
C	-0.408959	-0.168597	-1.479444
Cl	1.776487	0.0	0.0
H	0.108879	-1.063141	-1.836877
C	-0.604738	1.192334	0.686911
H	-1.69037	1.057119	0.738034
H	-0.210115	1.295587	1.6956
H	-0.376013	2.090563	0.111055
N	-0.371835	-1.282472	0.75541
O	-0.572142	-1.174005	1.958119
O	-0.36949	-2.329279	0.117179
C	0.12101	0.969508	-2.236315
N	0.508709	1.875557	-2.875181
C	-1.909337	-0.307614	-1.726768
H	-2.070643	-0.489656	-2.79258
H	-2.337007	-1.132911	-1.163338
H	-2.472995	0.575451	-1.436989
Cl	-4.666737	0.0	0.0
