18

C	0.0	0.0	0.0
C	-0.466469	-0.020597	-1.499117
Cl	1.772413	0.0	0.0
H	0.445548	0.214664	-2.059421
C	-0.445227	1.241206	0.742038
H	-1.535046	1.230929	0.802083
H	-0.005008	1.259597	1.737323
H	-0.109805	2.117182	0.182358
N	-0.374084	-1.244774	0.810104
O	-0.745295	-1.066373	1.961134
O	-0.179689	-2.335481	0.285077
C	-1.332205	1.120515	-1.835724
N	-1.786541	2.090295	-2.320128
C	-1.018525	-1.314015	-2.107432
H	-1.919331	-1.624429	-1.582414
H	-0.265196	-2.099232	-2.082328
H	-1.271477	-1.098264	-3.14849
Cl	-3.469049	0.0	0.0
