18

C	0.0	0.0	0.0
C	-0.676966	-0.363697	-1.322812
Cl	1.761174	0.0	0.0
H	-1.735231	-0.539583	-1.04844
C	-0.606322	1.230924	0.628879
H	-0.345641	2.116073	0.049061
H	-1.695976	1.094748	0.633071
H	-0.235425	1.354338	1.64775
N	-0.346009	-1.205205	0.976383
O	-1.538887	-1.358845	1.185823
O	0.559615	-1.882452	1.447931
C	-0.114197	-1.594432	-1.876784
N	0.335251	-2.566615	-2.359136
C	-0.649407	0.768792	-2.349882
H	0.365548	1.133189	-2.521133
H	-1.060151	0.406925	-3.293591
H	-1.288021	1.581775	-2.003335
Cl	-4.042438	0.0	0.0
