18

C	0.0	0.0	0.0
C	-0.308662	0.427452	-1.503036
Br	2.03274	0.0	0.0
H	0.577901	0.142111	-2.070329
N	-0.493133	0.950812	0.952601
H	-1.517766	0.855351	0.792342
H	-0.30069	0.589701	1.883926
N	-0.424395	-1.373396	0.172467
H	-0.144173	-1.682145	1.099134
H	-1.450594	-1.247766	0.177301
C	-0.480056	1.93596	-1.617551
H	-1.400873	2.241728	-1.118383
H	0.357796	2.472881	-1.167121
H	-0.557107	2.190132	-2.679041
N	-1.428025	-0.23664	-2.14864
H	-2.231901	-0.11898	-1.513122
H	-1.216239	-1.229154	-2.152236
F	-2.884376	0.0	0.0
