18

C	0.0	0.0	0.0
C	-0.200033	0.131196	-1.57976
Br	2.037961	0.0	0.0
H	0.278276	-0.780452	-1.95919
N	-0.517975	1.158788	0.671322
H	-1.539184	1.01971	0.529686
H	-0.345736	1.058248	1.668245
N	-0.476496	-1.28542	0.442777
H	-0.257223	-1.377973	1.43237
H	-1.502336	-1.146751	0.383125
C	0.487561	1.366407	-2.174111
H	1.570466	1.290311	-2.244888
H	0.237867	2.24001	-1.565164
H	0.087065	1.5036	-3.182297
N	-1.567616	0.171969	-2.084733
H	-2.2227	-0.20791	-1.386248
H	-1.846099	1.149207	-2.094799
F	-2.995995	0.0	0.0
