18

C	0.0	0.0	0.0
C	-0.425653	0.119502	-1.460395
Br	2.115777	0.0	0.0
H	-1.512259	0.241454	-1.305338
N	-0.273664	1.226935	0.659867
H	0.114692	1.236271	1.593363
H	0.092492	1.991516	0.106661
N	-0.583444	-1.133084	0.585246
H	-1.630661	-0.841733	0.417831
H	-0.425805	-1.093712	1.589213
C	-0.145581	-1.140517	-2.264482
H	-0.577778	-1.039341	-3.266536
H	-0.585514	-2.009183	-1.774877
H	0.932954	-1.305139	-2.363506
N	0.115642	1.346976	-2.050446
H	-0.479841	1.620264	-2.822693
H	1.042574	1.158399	-2.41861
F	-2.855989	0.0	0.0
