18

C	0.0	0.0	0.0
C	-0.421025	0.063409	-1.481527
Br	1.99901	0.0	0.0
H	-1.512776	0.113859	-1.360774
N	-0.44789	1.144044	0.746632
H	-0.238148	1.962053	0.179727
H	-1.473502	0.994152	0.691053
N	-0.495236	-1.219704	0.567376
H	-1.521127	-1.073822	0.435808
H	-0.323922	-1.151139	1.567739
C	-0.043015	-1.166379	-2.29716
H	-0.524504	-1.115932	-3.280902
H	-0.36332	-2.07741	-1.791373
H	1.040245	-1.217872	-2.447213
N	0.030921	1.327946	-2.073596
H	0.988264	1.219907	-2.394809
H	-0.544542	1.524271	-2.884066
F	-2.850123	0.0	0.0
