18

C	0.0	0.0	0.0
C	-0.097817	-0.028138	-1.562135
Br	2.160359	0.0	0.0
H	0.545298	0.793418	-1.894047
N	-0.645009	1.112581	0.540588
H	-0.512393	1.115073	1.549861
H	-1.697873	0.77986	0.353232
N	-0.332986	-1.227686	0.54708
H	-0.381214	-1.248166	1.552561
H	0.144332	-2.002852	0.114535
C	-1.478415	0.217866	-2.153668
H	-1.844621	1.205454	-1.883853
H	-2.212924	-0.480264	-1.762924
H	-1.374925	0.168201	-3.247677
N	0.397717	-1.331431	-2.039718
H	-0.085941	-1.570835	-2.895041
H	1.388813	-1.272027	-2.230985
F	-2.933273	0.0	0.0
