18

C	0.0	0.0	0.0
C	-0.339908	0.310236	-1.531534
Br	1.969033	0.0	0.0
H	0.554934	0.022918	-2.088228
N	-0.50311	1.022631	0.879067
H	-0.29785	0.739911	1.834378
H	-1.526523	0.906544	0.737127
N	-0.437411	-1.35602	0.285081
H	-0.150955	-1.583621	1.234011
H	-1.461573	-1.226527	0.292453
C	-0.583899	1.796952	-1.747783
H	0.199122	2.409666	-1.29864
H	-1.540677	2.07202	-1.30135
H	-0.634177	1.985648	-2.823264
N	-1.435654	-0.442416	-2.118807
H	-2.243865	-0.288311	-1.497582
H	-1.195288	-1.424276	-2.033511
F	-2.899734	0.0	0.0
