18

C	0.0	0.0	0.0
C	-0.216799	-0.033039	-1.58459
Br	1.985264	0.0	0.0
H	0.459845	-0.827729	-1.925987
N	-0.555097	1.189524	0.558377
H	-0.447637	1.112869	1.566525
H	-1.573562	1.038143	0.374093
N	-0.483216	-1.162834	0.691089
H	-1.507184	-1.018808	0.65716
H	-0.246788	-2.003169	0.17118
C	0.185233	1.281352	-2.250424
H	0.040367	1.177214	-3.329477
H	-0.465555	2.077103	-1.883127
H	1.214547	1.569924	-2.050978
N	-1.54404	-0.362892	-2.086676
H	-2.096958	0.486012	-2.025406
H	-2.039915	-0.90305	-1.38196
F	-2.955891	0.0	0.0
