18

C	0.0	0.0	0.0
C	-0.289884	-0.003986	-1.55111
Br	2.04689	0.0	0.0
H	0.58427	-0.464216	-2.014991
N	-0.503032	1.184311	0.630936
H	-1.528542	1.022993	0.517378
H	-0.297966	1.116793	1.624464
N	-0.382435	-1.264772	0.576297
H	-1.403109	-1.249861	0.450608
H	-0.20661	-1.204742	1.576743
C	-0.40288	1.430598	-2.074594
H	-0.432898	1.40259	-3.171082
H	0.435955	2.056541	-1.761513
H	-1.328693	1.880505	-1.712975
N	-1.423148	-0.852084	-1.917366
H	-2.237138	-0.528853	-1.369963
H	-1.592952	-0.702053	-2.906269
F	-2.904948	0.0	0.0
