17

C	0.0	0.0	0.0
C	-0.619069	0.094672	-1.39357
Br	1.952494	0.0	0.0
H	-1.74801	0.10819	-1.100718
C	-0.406937	1.202977	0.850837
H	0.028394	2.139012	0.500441
H	-1.502233	1.247661	0.81626
H	-0.077715	1.02474	1.878267
N	-0.502241	-1.252591	0.500966
H	-1.534863	-1.12175	0.470502
H	-0.241942	-1.335622	1.478457
C	-0.29417	-1.033751	-2.245942
N	-0.096585	-1.936369	-2.972823
N	-0.292785	1.367953	-2.095391
O	0.602551	1.359615	-2.94382
O	-0.949046	2.358711	-1.771198
H	-2.9511	0.0	0.0
