15

C	0.0	0.0	0.0
C	-0.503727	-0.03934	-1.433967
F	1.380795	0.0	0.0
H	-1.592094	-0.193875	-1.359985
H	-0.356773	-0.874728	0.541606
C	-0.41609	1.228378	0.695059
N	-0.581276	2.209663	1.317488
N	0.063248	-1.284661	-2.056021
O	0.064451	-2.305259	-1.371258
O	0.455923	-1.23021	-3.221124
C	-0.156835	1.190462	-2.240966
H	0.920764	1.370269	-2.251227
H	-0.503031	1.081894	-3.267615
H	-0.663886	2.047657	-1.793824
Cl	-3.369189	0.0	0.0
