15

C	0.0	0.0	0.0
C	-0.504044	-0.025288	-1.43382
F	1.380733	0.0	0.0
H	-1.592481	-0.178642	-1.358945
H	-0.358569	-0.879932	0.532295
C	-0.41651	1.219981	0.708167
N	-0.582249	2.193581	1.341939
N	0.061086	-1.267354	-2.063571
O	0.488548	-1.198411	-3.215895
O	0.02827	-2.299661	-1.396569
C	-0.153453	1.209436	-2.23098
H	-0.654403	2.064835	-1.774294
H	-0.504106	1.111851	-3.256737
H	0.924262	1.383313	-2.244273
Cl	-3.367976	0.0	0.0
