15

C	0.0	0.0	0.0
C	-0.492403	0.098875	-1.441633
F	1.379714	0.0	0.0
H	-0.325413	-0.8637	-1.927936
H	-0.361813	-0.936892	0.431683
C	-0.43086	1.115731	0.857993
N	-0.709179	1.976483	1.605412
N	0.409702	1.044335	-2.181767
O	0.887249	0.647423	-3.243346
O	0.577015	2.15973	-1.69739
C	-1.92243	0.575262	-1.576281
H	-2.008466	1.606254	-1.232421
H	-2.229444	0.517488	-2.621969
H	-2.638263	-0.006574	-0.984595
Cl	-4.841899	0.0	0.0
