15

C	0.0	0.0	0.0
C	-0.504084	-0.038736	-1.433363
F	1.380838	0.0	0.0
H	-1.593842	-0.185309	-1.360277
H	-0.356817	-0.873228	0.544028
C	-0.413886	1.233632	0.694027
N	-0.591917	2.226121	1.295859
N	0.052356	-1.28931	-2.055281
O	0.067883	-2.304644	-1.362478
O	0.41622	-1.245026	-3.230149
C	-0.149156	1.18711	-2.24304
H	-0.498591	1.078959	-3.267767
H	-0.649449	2.047572	-1.79592
H	0.928967	1.359427	-2.255949
Cl	-3.374101	0.0	0.0
