15

C	0.0	0.0	0.0
C	-0.504383	-0.038431	-1.433689
F	1.380807	0.0	0.0
H	-1.593156	-0.190713	-1.359386
H	-0.357155	-0.874845	0.541224
C	-0.420401	1.224879	0.697527
N	-0.588014	2.204349	1.321969
N	0.06016	-1.285015	-2.055601
O	0.453348	-1.231659	-3.219934
O	0.060236	-2.306405	-1.370849
C	-0.155488	1.190114	-2.241248
H	0.921467	1.367183	-2.2538
H	-0.503377	1.082487	-3.266346
H	-0.659994	2.047394	-1.793654
Cl	-3.371317	0.0	0.0
