11

C	-0.445063	-0.003157	-1.458305
C	0.0	0.0	0.0
F	-0.073257	1.194182	-2.037782
H	1.093033	0.0	0.0
H	0.058758	-0.809517	-1.997201
H	-0.361891	0.911514	0.482102
C	-1.905427	-0.146486	-1.615797
N	-3.066594	-0.252211	-1.748791
C	-0.507107	-1.174341	0.697815
N	-0.918619	-2.130522	1.240512
Br	3.464915	0.0	0.0
