11

C	-0.448493	-0.016568	-1.456919
C	0.0	0.0	0.0
F	-0.066012	1.169996	-2.052772
H	1.093037	0.0	0.0
H	0.04508	-0.834829	-1.987987
H	-0.359811	0.916626	0.474141
C	-1.911041	-0.145274	-1.606213
N	-3.074885	-0.232615	-1.73208
C	-0.508493	-1.16705	0.709106
N	-0.925726	-2.119684	1.253753
Br	3.467165	0.0	0.0
