13
Coordinates from ORCA-job run
  C   1.36856658070184     -0.02889928999314      0.02187124093999
  C   -0.11904858832296     -0.35446527287276      0.02163014741287
  Br  2.18788929882523     -0.30747721138004     -1.72241570172773
  H   -0.25097232008276     -1.35740803610282     -0.41197910046946
  H   1.52837957700085      1.01261209598389      0.29939003776269
  H   1.90994441954885     -0.67393521150603      0.71457342450248
  C   -0.92484688120766      0.64408455779426     -0.79127422757667
  H   -0.81896465776260      1.64129607647342     -0.35603273842724
  H   -1.98544695161078      0.37700624101070     -0.78268778398544
  H   -0.59392630431026      0.67140546537065     -1.82956253599653
  N   -0.53804067011256     -0.27312835315384      1.42306948962757
  H   -0.21597804920590     -1.08755730761370      1.93321603637929
  H   -1.54955545346129     -0.26253375401058      1.48020171155818
