13
Coordinates from ORCA-job run
  C   1.29691237897700     -0.03282040433794      0.09761900843134
  C   -0.17433731891908     -0.41786878032170     -0.04731711843449
  Br  2.26331435278409     -0.03722327729438     -1.59795413334076
  H   -0.22365326187183     -1.39201119284463     -0.54570236204980
  H   1.39491638701604      0.97207272607144      0.51427120607650
  H   1.82034908454111     -0.74257551962787      0.73944547662203
  C   -0.96530110625464      0.59594149531073     -0.85701152157501
  H   -0.91832536167799      1.58124653766966     -0.38009169002712
  H   -2.01082715548741      0.28880072217566     -0.90135483389881
  H   -0.57761564768194      0.69246047823165     -1.87113572679400
  N   -0.80541932879086     -0.56916018602644      1.26270430934361
  H   -0.78837685185801      0.31392814132919      1.76151110749204
  H   -0.31163617077649     -1.25279074033537      1.82501627815446
