13
Coordinates from ORCA-job run
  C   1.35329858104051     -0.26053050629037     -0.18082275037319
  C   -0.15120566554233     -0.36582166423789      0.01512917437190
  Br  2.08946991755172      1.48363213729349      0.26347189136671
  H   -0.39393544447891     -1.38012028947429     -0.35465086543080
  H   1.61337582821121     -0.45209644720758     -1.22242498338185
  H   1.87784412435468     -0.97994403911991      0.45076066496452
  C   -0.93097546117991      0.63388537746376     -0.82333224766310
  H   -0.64610111281058      0.57148026937111     -1.87632696911003
  H   -0.74634289790049      1.64668566142791     -0.46453656353953
  H   -2.00361686419156      0.43204698180705     -0.75329293617930
  N   -0.48926187264183     -0.18260159257733      1.42031331532234
  H   -1.49378244374537     -0.22996451619900      1.54103679309684
  H   -0.07876668866714     -0.91765137225694      1.98467547655550
