18

C	0.0	0.0	0.0
C	-0.330869	0.149779	-1.536281
Br	1.959539	0.0	0.0
H	0.447716	-0.452138	-2.010273
N	-0.404015	1.201925	0.879745
O	-0.294687	2.321622	0.392518
O	-0.705783	0.965513	2.035013
N	-0.448044	-1.157652	0.649677
H	-0.239617	-1.950181	0.053876
H	-1.49215	-0.966298	0.605364
C	-0.329553	1.525525	-2.169284
H	-0.379767	1.408422	-3.254484
H	-1.191995	2.093079	-1.83354
H	0.582372	2.05825	-1.906546
N	-1.56163	-0.610624	-2.007167
O	-2.410893	-0.016602	-2.655236
O	-1.507632	-1.83441	-1.880799
F	-2.533963	0.0	0.0
