18

C	0.0	0.0	0.0
C	-0.583809	0.161585	-1.419035
Br	1.941278	0.0	0.0
H	-1.654659	0.334943	-1.206227
N	-0.294822	1.326151	0.808028
O	-0.182878	2.392745	0.217646
O	-0.569212	1.18941	1.99298
N	-0.5979	-1.10161	0.591882
H	-0.355502	-1.123648	1.575938
H	-1.644243	-0.851287	0.474022
C	-0.3701	-1.090368	-2.250423
H	0.692917	-1.310751	-2.365772
H	-0.811108	-0.944318	-3.240756
H	-0.868019	-1.922366	-1.757534
N	-0.090762	1.322376	-2.225307
O	-0.910103	2.194003	-2.508341
O	1.06733	1.298086	-2.645696
F	-2.830563	0.0	0.0
