15

C	0.0	0.0	0.0
C	-0.637481	0.248203	-1.366853
F	1.384057	0.0	0.0
H	-1.591303	0.741771	-1.112172
H	-0.339604	-0.989745	0.310374
C	-0.449066	1.044104	1.001498
H	-1.53869	0.961319	1.048371
H	0.017372	0.857349	1.973418
H	-0.14175	2.038903	0.654767
N	-0.957028	-1.040753	-2.011309
H	-1.832041	-1.251205	-1.525465
H	-1.208531	-0.856313	-2.978909
C	0.205235	1.100698	-2.193006
N	0.850002	1.818804	-2.859989
F	-2.872061	0.0	0.0
