15

C	0.0	0.0	0.0
C	-0.395254	0.06724	-1.502332
F	1.388746	0.0	0.0
H	0.504018	0.458283	-1.996116
H	-0.335074	-0.941074	0.437851
C	-0.518374	1.157715	0.810835
H	-1.608673	1.055864	0.813406
H	-0.220746	2.10752	0.363102
H	-0.115554	1.088962	1.826814
N	-1.515016	0.945181	-1.778114
H	-2.308287	0.604874	-1.150877
H	-1.772346	0.837393	-2.753636
C	-0.550464	-1.31693	-2.019716
N	-0.655374	-2.394189	-2.478499
F	-3.052468	0.0	0.0
