15

C	0.0	0.0	0.0
C	-0.32116	0.075607	-1.525179
F	1.391691	0.0	0.0
H	0.429508	0.786854	-1.896816
H	-0.346472	-0.943152	0.426837
C	-0.570057	1.164929	0.756939
H	-0.264374	2.111101	0.297368
H	-0.223567	1.150628	1.794549
H	-1.661351	1.030863	0.709061
N	-1.632692	0.47769	-1.983166
H	-1.658342	1.490132	-1.942614
H	-2.350639	0.165384	-1.257975
C	0.048694	-1.225076	-2.125662
N	0.327973	-2.263241	-2.598319
F	-3.139378	0.0	0.0
