13

C	0.0	0.0	0.0
C	-0.621657	0.109941	-1.376544
Cl	1.773311	0.0	0.0
H	-1.673615	-0.183768	-1.216527
H	-0.344353	0.859791	0.567046
H	-0.340276	-0.914599	0.477893
N	-0.026136	-0.957554	-2.268528
O	0.034405	-2.092131	-1.808058
O	0.358749	-0.637664	-3.393583
N	-0.527075	1.414842	-1.967747
H	-1.464426	1.721397	-2.195953
H	0.018765	1.35642	-2.818385
Br	-3.755049	0.0	0.0
