13

C	0.0	0.0	0.0
C	-0.555135	-0.110142	-1.412171
Cl	1.779025	0.0	0.0
H	-1.606152	-0.395142	-1.284968
H	-0.330892	-0.849173	0.593098
H	-0.36614	0.921164	0.446358
N	0.125574	-1.289048	-2.072555
O	-0.048956	-2.376884	-1.525535
O	0.823196	-1.104195	-3.064624
N	-0.474066	1.044862	-2.241702
H	-1.278175	1.625619	-2.041278
H	0.383191	1.561391	-2.095276
Br	-3.612944	0.0	0.0
