16

C	0.0	0.0	0.0
C	-0.589169	0.195356	-1.418356
Cl	1.787202	0.0	0.0
H	-1.644865	-0.067961	-1.275471
C	-0.416878	1.078285	0.90341
N	-0.620721	1.981144	1.626737
C	-0.40094	-1.308277	0.534753
N	-0.593901	-2.399003	0.92583
C	0.054406	-0.728412	-2.434563
H	1.069839	-0.404074	-2.675329
H	0.08508	-1.758729	-2.073488
H	-0.546496	-0.715748	-3.348065
N	-0.418381	1.596193	-1.787146
H	-0.454248	1.673764	-2.796509
H	-1.217719	2.108244	-1.423613
Cl	-3.529252	0.0	0.0
