16

C	0.0	0.0	0.0
C	-0.463997	0.242419	-1.538243
Cl	1.794789	0.0	0.0
H	0.449543	0.00739	-2.092824
C	-0.449938	1.016295	0.946274
N	-0.71093	1.881287	1.697966
C	-0.406859	-1.336248	0.43097
N	-0.589556	-2.460144	0.722573
C	-0.825287	1.706567	-1.725454
H	-0.048739	2.374223	-1.344719
H	-1.765221	1.911006	-1.208799
H	-0.966166	1.890898	-2.791373
N	-1.507515	-0.594269	-2.034536
H	-2.37783	-0.437222	-1.512376
H	-1.262837	-1.574063	-1.958317
Cl	-3.826155	0.0	0.0
