16

C	0.0	0.0	0.0
C	-0.479258	0.26904	-1.520926
Cl	1.793406	0.0	0.0
H	0.397821	-0.04315	-2.098315
C	-0.455626	0.993608	0.967042
N	-0.724227	1.846249	1.73044
C	-0.400055	-1.346885	0.406605
N	-0.63144	-2.465257	0.68323
C	-0.727	1.756865	-1.702202
H	-0.866241	1.956733	-2.765618
H	-1.643015	2.035558	-1.176685
H	0.102383	2.362015	-1.327443
N	-1.602096	-0.479019	-1.980788
H	-2.450924	-0.275071	-1.436888
H	-1.433027	-1.47668	-1.927326
Cl	-4.005635	0.0	0.0
