16

C	0.0	0.0	0.0
C	-0.472116	0.247426	-1.532531
Cl	1.795053	0.0	0.0
H	0.434522	0.005633	-2.096445
C	-0.447531	1.012907	0.951643
N	-0.702922	1.872962	1.711328
C	-0.404225	-1.338247	0.429657
N	-0.625291	-2.455197	0.720576
C	-0.820606	1.715382	-1.711805
H	-0.027692	2.372545	-1.344701
H	-0.977121	1.902094	-2.77523
H	-1.749636	1.933136	-1.180455
N	-1.526737	-0.576663	-2.023736
H	-1.291704	-1.560281	-1.965604
H	-2.394068	-0.420752	-1.495998
Cl	-3.860394	0.0	0.0
