17

C	0.0	0.0	0.0
C	-0.503368	-0.022769	-1.461348
Cl	1.785744	0.0	0.0
H	-1.576364	0.160116	-1.320657
N	-0.56773	1.145705	0.645093
H	-1.600846	0.916501	0.534668
H	-0.332992	1.112876	1.63278
C	-0.359243	-1.275916	0.666565
N	-0.587542	-2.287695	1.219592
N	-0.239138	-1.339412	-2.055394
H	-0.382814	-1.25946	-3.056528
H	-0.958132	-1.971885	-1.714811
C	0.143451	1.069351	-2.292284
H	1.161633	0.793506	-2.579704
H	0.167938	2.001293	-1.726233
H	-0.444562	1.230804	-3.202653
F	-2.819281	0.0	0.0
