17

C	0.0	0.0	0.0
C	-0.404088	0.084909	-1.532563
Cl	1.853276	0.0	0.0
H	0.51522	0.266651	-2.097311
N	-0.508986	1.023094	0.84943
H	-0.446397	1.87977	0.304384
H	-1.525558	0.779535	0.840122
C	-0.339194	-1.305175	0.590109
N	-0.514727	-2.365504	1.062772
N	-1.260002	1.25649	-1.698239
H	-2.126382	0.986058	-1.196613
H	-1.46018	1.350944	-2.687901
C	-1.043198	-1.212911	-2.029103
H	-0.385677	-2.078321	-1.90268
H	-1.970454	-1.34848	-1.471637
H	-1.264463	-1.107247	-3.098199
F	-2.815764	0.0	0.0
