17

C	0.0	0.0	0.0
C	-0.180351	0.270985	-1.565246
Cl	1.871806	0.0	0.0
H	0.61789	-0.296487	-2.055423
N	-0.61259	0.903217	0.874004
H	-1.642588	0.6165	0.742333
H	-0.508146	1.810122	0.42189
C	-0.359669	-1.388601	0.313322
N	-0.531976	-2.534537	0.50381
N	0.025442	1.71215	-1.739093
H	0.978203	1.911522	-2.01109
H	-0.603237	2.064175	-2.447546
C	-1.48597	-0.161809	-2.209993
H	-2.339854	0.27274	-1.68734
H	-1.608602	-1.243513	-2.126221
H	-1.432758	0.100841	-3.275884
F	-2.877481	0.0	0.0
