17

C	0.0	0.0	0.0
C	-0.192176	0.341655	-1.547587
Cl	1.872144	0.0	0.0
H	0.622654	-0.171011	-2.066574
N	-0.620005	0.850376	0.919633
H	-0.514912	1.78163	0.519522
H	-1.65141	0.568973	0.764076
C	-0.347662	-1.405045	0.253336
N	-0.544189	-2.548393	0.436244
N	-0.028811	1.793867	-1.65506
H	-0.719847	2.169051	-2.286687
H	0.893509	2.033048	-1.987658
C	-1.484436	-0.105956	-2.209586
H	-1.590352	-1.19143	-2.14151
H	-2.350095	0.307322	-1.686667
H	-1.420889	0.170983	-3.271003
F	-2.882675	0.0	0.0
