16

C	-0.54248	0.003935	-1.442854
C	0.0	0.0	0.0
Cl	0.171548	1.374999	-2.305912
H	1.094272	0.0	0.0
N	-0.072732	-1.265902	-2.158872
O	0.670904	-2.024196	-1.551122
O	-0.502994	-1.420314	-3.297461
C	-2.052291	0.051074	-1.536682
H	-2.418026	0.947641	-1.035206
H	-2.479322	-0.831711	-1.053653
H	-2.353528	0.071646	-2.582397
C	-0.521255	-1.144997	0.745488
N	-0.963806	-2.070625	1.316984
C	-0.441686	1.231591	0.661352
N	-0.822636	2.215206	1.178181
Cl	3.156946	0.0	0.0
