16

C	-0.517947	-0.007271	-1.453224
C	0.0	0.0	0.0
Cl	0.218663	1.352431	-2.317965
H	1.094265	0.0	0.0
N	-0.020453	-1.284704	-2.142327
O	0.866991	-1.921412	-1.590595
O	-0.553046	-1.553712	-3.215969
C	-2.023397	0.040311	-1.581252
H	-2.460629	-0.844562	-1.111623
H	-2.300867	0.059179	-2.633107
H	-2.399808	0.93688	-1.087779
C	-0.495849	-1.179681	0.709648
N	-0.922637	-2.13199	1.249362
C	-0.475868	1.205524	0.676303
N	-0.871476	2.175517	1.207963
Cl	3.171457	0.0	0.0
