16

C	-0.493008	-0.049657	-1.457246
C	0.0	0.0	0.0
Cl	-2.249531	-0.280466	-1.517552
H	1.095584	0.0	0.0
N	-0.151613	1.297645	-2.110309
O	-0.947622	1.788538	-2.902119
O	0.955769	1.731989	-1.820508
C	0.230656	-1.124549	-2.240249
H	-0.052135	-2.104877	-1.853415
H	-0.051224	-1.06486	-3.293518
H	1.307254	-0.980677	-2.111287
C	-0.422437	-1.211199	0.701965
N	-0.746367	-2.19589	1.253942
C	-0.495016	1.18759	0.692499
N	-0.89426	2.148211	1.237717
Cl	3.189908	0.0	0.0
