16

C	-0.540452	0.103967	-1.438154
C	0.0	0.0	0.0
Cl	0.20022	1.5127	-2.214075
H	1.10611	0.0	0.0
N	-0.097771	-1.128352	-2.233347
O	-0.519917	-1.197119	-3.38329
O	0.613787	-1.94939	-1.670099
C	-2.04939	0.187322	-1.528091
H	-2.396052	1.059496	-0.97258
H	-2.349442	0.277545	-2.570556
H	-2.494819	-0.713925	-1.098087
C	-0.52573	-1.18656	0.674514
N	-1.004725	-2.106586	1.226386
C	-0.433686	1.18414	0.745256
N	-0.793738	2.131381	1.339791
Cl	3.146994	0.0	0.0
