16

C	-0.344912	-0.124959	-1.490655
C	0.0	0.0	0.0
Cl	0.092346	-1.751063	-2.046103
H	1.098883	0.0	0.0
N	-1.85351	0.006373	-1.724407
O	-2.591555	-0.072162	-0.747146
O	-2.214135	0.173826	-2.884398
C	0.381597	0.922262	-2.30266
H	0.202077	0.760807	-3.364044
H	1.446538	0.840559	-2.072074
H	0.02656	1.917479	-2.023814
C	-0.490447	-1.091108	0.83471
N	-0.844971	-1.965176	1.534063
C	-0.441795	1.295267	0.513527
N	-0.777589	2.354018	0.895159
Cl	3.162363	0.0	0.0
