16

C	-0.34637	-0.026149	-1.494231
C	0.0	0.0	0.0
Cl	0.105621	-1.607059	-2.158239
H	1.107841	0.0	0.0
N	-1.858012	0.105131	-1.717558
O	-2.593204	-0.041832	-0.745682
O	-2.222251	0.336417	-2.865373
C	0.368741	1.080253	-2.235606
H	0.005252	2.051231	-1.889122
H	1.435078	0.992397	-2.013527
H	0.187202	0.988766	-3.304764
C	-0.484914	-1.145762	0.760859
N	-0.832431	-2.067724	1.400033
C	-0.438786	1.257673	0.600967
N	-0.762911	2.290801	1.0561
Cl	3.157222	0.0	0.0
