16

C	-0.379345	-0.081776	-1.485246
C	0.0	0.0	0.0
Cl	-2.151638	-0.133021	-1.700939
H	1.092813	0.0	0.0
N	0.093539	1.189475	-2.20104
O	0.531035	2.104907	-1.515987
O	-0.014529	1.184438	-3.422723
C	0.287582	-1.264352	-2.149644
H	1.366059	-1.186891	-1.977427
H	0.066135	-1.256565	-3.215646
H	-0.083119	-2.18977	-1.707051
C	-0.430521	-1.233276	0.66065
N	-0.764582	-2.230747	1.183964
C	-0.564914	1.140535	0.715111
N	-1.063677	2.001116	1.339754
Cl	3.155272	0.0	0.0
