16

C	-0.547459	0.16468	-1.428891
C	0.0	0.0	0.0
Cl	0.190096	1.605991	-2.150136
H	1.107256	0.0	0.0
N	-0.09832	-1.031203	-2.278058
O	-0.591066	-1.100073	-3.399901
O	0.704875	-1.814123	-1.786901
C	-2.055479	0.251311	-1.510897
H	-2.359367	0.384192	-2.547397
H	-2.401812	1.09823	-0.917523
H	-2.498755	-0.668666	-1.120025
C	-0.508228	-1.233382	0.600321
N	-0.95989	-2.210238	1.071661
C	-0.452357	1.137303	0.802775
N	-0.85597	2.044972	1.429586
Cl	3.146327	0.0	0.0
