16

C	-0.421998	-0.076263	-1.473316
C	0.0	0.0	0.0
Cl	-2.188306	-0.270632	-1.620466
H	1.09755	0.0	0.0
N	-0.056168	1.234025	-2.173934
O	0.660589	2.015287	-1.562487
O	-0.462456	1.363945	-3.322637
C	0.314187	-1.183037	-2.199194
H	1.388737	-1.015931	-2.069278
H	0.039319	-1.170724	-3.253696
H	0.047476	-2.146609	-1.76461
C	-0.400024	-1.236562	0.673218
N	-0.688241	-2.244028	1.204379
C	-0.56991	1.150407	0.696566
N	-1.094517	2.043095	1.249949
Cl	3.167234	0.0	0.0
