16

C	-0.447448	0.037438	-1.480265
C	0.0	0.0	0.0
Cl	0.060529	1.574015	-2.176105
H	1.107658	0.0	0.0
N	0.253401	-1.104332	-2.232821
O	0.289677	-2.168251	-1.626077
O	0.616947	-0.910877	-3.382131
C	-1.934044	-0.170794	-1.686432
H	-2.228712	-1.143218	-1.285861
H	-2.166416	-0.123687	-2.751607
H	-2.483572	0.61635	-1.168146
C	-0.519537	-1.155908	0.7298
N	-0.981548	-2.03146	1.362747
C	-0.480426	1.201735	0.680638
N	-0.893308	2.149271	1.239316
Cl	3.12872	0.0	0.0
