16

C	-0.384246	0.06269	-1.488286
C	0.0	0.0	0.0
Cl	-2.153856	0.041437	-1.708196
H	1.106667	0.0	0.0
N	0.108324	1.41444	-2.034737
O	1.01983	1.382853	-2.853494
O	-0.44211	2.417033	-1.59664
C	0.266206	-1.064661	-2.253596
H	1.340939	-1.045504	-2.058643
H	0.080378	-0.949338	-3.320268
H	-0.154687	-2.011486	-1.913535
C	-0.43757	-1.277288	0.560262
N	-0.786684	-2.302774	1.014166
C	-0.521989	1.087378	0.822569
N	-0.944319	1.920811	1.53418
Cl	3.122071	0.0	0.0
