16

C	-0.395438	-0.042448	-1.48255
C	0.0	0.0	0.0
Cl	-2.167462	-0.149586	-1.673196
H	1.095495	0.0	0.0
N	0.027353	1.263555	-2.163894
O	-0.159958	1.316455	-3.37441
O	0.52444	2.139704	-1.467735
C	0.303981	-1.175555	-2.198104
H	0.053236	-1.147642	-3.257359
H	1.38201	-1.05463	-2.050593
H	-0.011052	-2.128757	-1.772554
C	-0.423372	-1.250846	0.632368
N	-0.756578	-2.258458	1.135774
C	-0.560989	1.122056	0.746519
N	-1.047498	1.977661	1.387522
Cl	3.156837	0.0	0.0
