15

C	-0.458461	-0.043309	-1.456592
C	0.0	0.0	0.0
F	-1.837939	-0.303888	-1.448171
H	1.093923	0.0	0.0
H	-0.325845	0.970419	-1.84034
N	0.190015	-0.966607	-2.328102
H	0.31081	-1.849129	-1.84578
H	1.120144	-0.611577	-2.510207
N	-0.42652	-1.297816	0.688786
O	-0.063973	-2.360319	0.184382
O	-1.111471	-1.215871	1.70832
N	-0.498016	1.153583	0.665209
H	0.008753	1.292612	1.53006
H	-1.479914	1.039493	0.881615
Cl	3.32293	0.0	0.0
