15

C	-0.56381	-0.132991	-1.406295
C	0.0	0.0	0.0
F	-0.099973	1.005696	-2.103837
H	1.094837	0.0	0.0
H	-0.151402	-0.996194	-1.924596
N	-1.977019	-0.181432	-1.354162
H	-2.373196	-0.158021	-2.284176
H	-2.291813	0.618347	-0.8151
N	-0.402804	-1.218788	0.769309
O	-0.841368	-1.079447	1.911256
O	-0.22677	-2.298918	0.216164
N	-0.566433	1.185222	0.628249
H	-0.550617	1.034424	1.631203
H	0.077932	1.940818	0.42359
Cl	3.342303	0.0	0.0
