15

C	-0.40417	0.069776	-1.46827
C	0.0	0.0	0.0
F	-0.233047	-1.214624	-2.030478
H	1.091699	0.0	0.0
H	-1.470037	0.290524	-1.58879
N	0.398706	1.054011	-2.086564
H	1.381381	0.870198	-1.893546
H	0.242311	1.07935	-3.08429
N	-0.580666	-1.259033	0.561411
O	0.159777	-2.16602	0.917336
O	-1.813899	-1.280813	0.618628
N	-0.464406	1.096958	0.802291
H	-1.344172	1.460575	0.457183
H	0.235572	1.825688	0.780002
Cl	3.375629	0.0	0.0
