15

C	-0.419908	-0.022553	-1.467632
C	0.0	0.0	0.0
F	-1.834542	0.063633	-1.50905
H	1.090244	0.0	0.0
H	-0.072628	0.918854	-1.903641
N	0.029938	-1.142743	-2.203827
H	0.543001	-1.795299	-1.626277
H	0.592662	-0.869798	-2.993906
N	-0.498485	-1.276737	0.636242
O	-1.520847	-1.231862	1.313801
O	0.13613	-2.305567	0.391414
N	-0.483597	1.11507	0.744959
H	0.212971	1.84664	0.750644
H	-1.37181	1.446652	0.396826
Cl	3.354861	0.0	0.0
