15

C	-0.453551	0.204788	-1.444861
C	0.0	0.0	0.0
F	-0.459388	-1.059976	-2.090567
H	1.091646	0.0	0.0
H	-1.492705	0.543783	-1.494097
N	0.418119	1.122722	-2.054197
H	1.388742	0.880209	-1.875282
H	0.241172	1.200156	-3.046108
N	-0.507652	-1.363846	0.429657
O	-1.706096	-1.416041	0.73443
O	0.260038	-2.31704	0.434105
N	-0.49271	1.039423	0.844825
H	0.106035	1.132823	1.652869
H	-1.439966	0.835905	1.133151
Cl	3.377344	0.0	0.0
