14
Coordinates from ORCA-job run
  C   0.46317915805774      0.13413865461937      0.27981014359748
  C   -0.85478117413741     -0.24933319084627     -0.42569087556644
  Cl  0.11619454482388      0.53917682265892      1.99993339706767
  H   -0.63943826240636     -0.28047205741845     -1.49936713106895
  N   1.44421707358278     -0.84873757145138      0.06577445851240
  H   2.33879857603548     -0.54250630387238      0.43159962151557
  H   1.18776530768716     -1.73824242180193      0.47760877316322
  N   1.01847128704983      1.41413491042884     -0.35564868921901
  O   2.13027912721319      1.74419415728357      0.02901556102774
  O   0.32864815342799      1.97543140748764     -1.19738805282888
  C   -1.94304830129426      0.70016580792210     -0.18697641244994
  N   -2.84877362169799      1.42462095080425     -0.00670125377579
  C   -1.24116344800666     -1.59209649403317      0.01675987298254
  N   -1.50134842033539     -2.68047467178111      0.37227058704241
