14
Coordinates from ORCA-job run
  C   0.51808113009218      0.02990668528544      0.42060669436715
  C   -1.00775833445048     -0.12885148396553      0.25279409044482
  Cl  0.94929642659889     -0.14378967888868      2.12383778922840
  H   -1.49478558399861      0.62230905422440      0.88138696033367
  N   1.22872796963663     -0.88132922031214     -0.36322375538325
  H   2.22675652061369     -0.81262657523263     -0.21243217049990
  H   1.02040711014803     -0.77857224091691     -1.35025374366448
  N   0.83149610876494      1.53311725820569      0.07859180671672
  O   1.88595346102469      1.73367315400025     -0.50701819300855
  O   0.01293963048344      2.36883773670318      0.43880386685904
  C   -1.42836562512799     -1.46877178015064      0.66334614700065
  N   -1.79663888840366     -2.53042397638541      1.00232854799154
  C   -1.36111333127124      0.12441338874507     -1.14752164715691
  N   -1.58299659411053      0.33110767868790     -2.28224639322891
