14
Coordinates from ORCA-job run
  C   0.45554192606319      0.08759534971467      0.40614158861819
  C   -0.83179737683456     -0.36448516442634     -0.32307909023269
  Cl  0.11521783006153      0.54242728616900      2.05660546601958
  H   -0.53859619210973     -0.62944070642652     -1.34654507540378
  N   1.41478625236371     -0.94547681432179      0.35396309621746
  H   1.73588504040646     -1.09463724826018     -0.59567093414043
  H   2.19752373314554     -0.76872915018905      0.97072745486621
  N   0.91964950045347      1.35536552424365     -0.39817796386632
  O   0.97598753798265      2.44770638191222      0.13770578720626
  O   1.20649552235157      1.08322982732406     -1.56238566199916
  C   -1.81008521924458      0.72300981071244     -0.39668440308267
  N   -2.58209859929257      1.60444625305516     -0.47101705747316
  C   -1.39358157014511     -1.54531829262024      0.33262909669912
  N   -1.86492838520156     -2.49469305688706      0.83678769657138
