14
Coordinates from ORCA-job run
  C   0.57295417806094      0.06041681180751      0.45505398003294
  C   -0.97016850409868     -0.10591745995258      0.24638481348506
  Cl  0.91077509352338     -0.27762291923639      2.15495317397721
  H   -1.48857456287919      0.52782941048343      0.97320748679595
  N   1.43218542623333     -0.68429118667658     -0.36567923167721
  H   1.34929857081939     -1.67987198426403     -0.21112161724570
  H   1.36638504100416     -0.43442047584897     -1.34360988578018
  N   0.81692698996754      1.56457436987976      0.19261672252082
  O   0.17424305680060      2.33117971123270      0.89702121658182
  O   1.57639876364182      1.85464302888376     -0.71965986339404
  C   -1.32978508570827     -1.50855533763411      0.44739068164132
  N   -1.57644562994436     -2.64668730339481      0.59813111800023
  C   -1.31125536118144      0.32182797085438     -1.11193985095493
  N   -1.52193797623921      0.67689536386594     -2.21174874398330
