14
Coordinates from ORCA-job run
  C   0.48043488998059      0.05322368062383      0.38188442604756
  C   -0.85987390809348     -0.32384210197661     -0.29229878068682
  Cl  0.25123314428668      0.42026140126218      2.07270443358205
  H   -0.63551938619572     -0.53158174827416     -1.34595489983593
  N   1.40546914592623     -0.99838696073156      0.21345004902977
  H   1.66466645604119     -1.10076294798831     -0.76105355270672
  H   2.22830538322084     -0.87683158346952      0.79037682694514
  N   0.93264723371320      1.35346662762446     -0.37671744803062
  O   1.05249723015052      2.41113488738089      0.21528449356986
  O   1.14423423711651      1.14173328650640     -1.56930423434845
  C   -1.81200880122235      0.78775608026594     -0.24055777511944
  N   -2.56460593174577      1.68851339198602     -0.21382520083702
  C   -1.41139322865767     -1.52983904046286      0.32499304894104
  N   -1.87608646452078     -2.49684497274674      0.80101861344957
