14
Coordinates from ORCA-job run
  C   0.51404769768101      0.08909411709527      0.34459256335386
  C   -1.01103654876294     -0.10558528354339      0.22870600356101
  Cl  0.94589393700725     -0.13907804521048      2.09630246632377
  H   -1.49652138358023      0.53262356419040      0.97213748903208
  N   1.21284050525750     -0.69083431678038     -0.57232712281221
  H   2.19375133801776     -0.44539092690293     -0.61224955218962
  H   1.08572503611061     -1.68333992307801     -0.41967886535216
  N   0.83903115161018      1.56047404124604      0.06497039021578
  O   1.96421702610151      1.79189228233214     -0.35178670210968
  O   -0.03687851125546      2.37373608954913      0.32667998126408
  C   -1.33127211732611     -1.50924555852918      0.49929338189863
  N   -1.55612292221136     -2.64299158464175      0.70609375244263
  C   -1.47213575775824      0.27668430133834     -1.10927175803373
  N   -1.85153945089148      0.59196124293479     -2.17446202759443
