15
Coordinates from ORCA-job run
  C   -0.43440114130861     -0.51347658202471      0.09245100113777
  C   0.63427988478046      0.60364885136297      0.07972682139407
  Br  0.39819670433642     -2.21417128062918     -0.39873643056061
  H   0.17344085710573      1.51561465168794      0.47399759329403
  C   -1.00702508746056     -0.65627581317717      1.42831806580396
  N   -1.55078289452472     -0.76938621499375      2.46478219207488
  C   -1.54192590523767     -0.18745967598447     -0.91000625093245
  H   -1.99573353719027      0.77507445055833     -0.65625694317199
  H   -2.30997557115631     -0.95977393301270     -0.86578892846491
  H   -1.13811794820062     -0.14641869021700     -1.92209918182691
  C   1.15609452758877      0.84030268994784     -1.25836231984346
  N   1.52756134693203      1.07336845477593     -2.34810893902210
  N   1.76917120516685      0.29120390268211      1.03736674237619
  O   1.49162709215850      0.44099779866486      2.22168382457590
  O   2.82859046700998     -0.09324860964102      0.56203275316563
