15
Coordinates from ORCA-job run
  C   -0.53207110378211     -0.44678261389613      0.39569493548099
  C   0.72355270340220      0.45678745824757      0.51152124233071
  Br  -0.11056607600459     -2.16968206315824      1.22908701240470
  H   0.98476147306961      0.58565494430172      1.56387285326900
  C   -1.56621029433338      0.19230240095790      1.20653896448433
  N   -2.40022995227752      0.73174037496913      1.83633220516415
  C   -1.03332311260653     -0.67298825498790     -1.02691907792656
  H   -0.28554664989173     -1.19672082319423     -1.61866201845027
  H   -1.94581157342919     -1.26873599746405     -0.98988289124851
  H   -1.25543489432282      0.28828326607259     -1.49655074753487
  C   0.48471211620145      1.74590726009845     -0.12756934482457
  N   0.26884352086086      2.78529331244109     -0.63115323892385
  N   1.93299923490956     -0.18829334532641     -0.13108081329707
  O   1.92069750966223     -0.28507649875389     -1.35315313652598
  O   2.81462709854195     -0.55868942030761      0.63392405559779
