15
Coordinates from ORCA-job run
  C   -0.51715210295200     -0.44761310497896      0.41393104280478
  C   0.73844255587502      0.46111221392181      0.48542769536752
  Br  -0.06052231701627     -2.16863693416835      1.23210075310881
  H   1.03344267986600      0.59456517517262      1.52826533767180
  C   -1.52431894074553      0.18793266606097      1.26064565724076
  N   -2.33438790910610      0.72501616452162      1.92300309007911
  C   -1.06635096484433     -0.67653188087718     -0.99054710230439
  H   -1.30590736964939      0.28362635152719     -1.45433400728699
  H   -0.33796748616478     -1.19987978014926     -1.60668383012195
  H   -1.97585492822193     -1.27395411241519     -0.92145502894493
  C   0.47349305414943      1.74719189133242     -0.14940681980746
  N   0.23791953067153      2.78301457748937     -0.65142583235577
  N   1.92792111880005     -0.18260894930876     -0.19483911169729
  O   1.87536827595747     -0.28330008973589     -1.41539508834159
  O   2.83487480338084     -0.54893418839240      0.54171324458758
