15
Coordinates from ORCA-job run
  C   -0.43173792745658     -0.52324809090900     -0.00191439418899
  C   0.63823761503856      0.57666021304113      0.18574390243349
  Br  0.38045391482101     -2.07662736244759     -0.87032395424031
  H   0.19535086638937      1.37994445612790      0.78422216425353
  C   -0.95860086715493     -0.94863771070273      1.29205609324351
  N   -1.46693026552129     -1.27766274661684      2.30006953621083
  C   -1.57287146908740      0.00116605589990     -0.87424901226250
  H   -2.34107428728852     -0.76671010550901     -0.96683235258853
  H   -2.01486614541935      0.88671697718079     -0.40807758059608
  H   -1.20458418714756      0.25613699979285     -1.86843941397967
  C   1.10853578974129      1.09778203903008     -1.08947521222841
  N   1.43347270413009      1.55305070876003     -2.12241634905367
  N   1.80886276459767      0.07211305146452      1.00942228890495
  O   1.57616433041003     -0.04494307050215      2.20694968023707
  O   2.85158716394762     -0.18374141460987      0.42326460385476
