15
Coordinates from ORCA-job run
  C   -0.45939865271061     -0.54387234459120      0.05896624175114
  C   0.64677988071750      0.52909953617879     -0.01703631685286
  Br  0.15251635502424     -2.28887233106955     -0.56917451880501
  H   0.18743958850974      1.49996842739432      0.19144131577338
  C   -0.88691902657705     -0.66795906049016      1.44968551505282
  N   -1.26129292543076     -0.71718509129126      2.56333805500163
  C   -1.62996999204911     -0.10469004702760     -0.82368806843325
  H   -2.01672998635043      0.85862473576639     -0.47963829774245
  H   -2.42812445801776     -0.84488491809700     -0.76881862143485
  H   -1.30284234683781     -0.02001554800463     -1.86156590799696
  C   1.29959460512823      0.56866121873420     -1.31860111759394
  N   1.80809285680619      0.62886018984982     -2.37602048284740
  N   1.70798724580098      0.39037233917658      1.06441990321307
  O   2.13328929474503     -0.73046410671520      1.30032125527104
  O   2.04957756124158      1.44435700018649      1.58837104564363
