15
Coordinates from ORCA-job run
  C   -0.50679819433366     -0.43241709223642      0.12992654090996
  C   0.72424944767360      0.49793302589543      0.03535737762876
  Br  0.02994246295739     -2.26350160658504     -0.30124201217256
  H   0.42950869322729      1.48690960919464      0.40228255932008
  C   -1.04990121081206     -0.42416002084599      1.48559499538073
  N   -1.56923663578769     -0.40194083827916      2.54036482039690
  C   -1.58215405576320      0.02203447770381     -0.85754535343044
  H   -2.46111599211641     -0.61457053896851     -0.75508332197337
  H   -1.86854793124842      1.05514762040414     -0.63951526049540
  H   -1.21163788477653     -0.04686876211364     -1.88080352273418
  C   1.22679879297488      0.59433286148440     -1.32739911884825
  N   1.58607179359028      0.71521419153148     -2.43920880937008
  N   1.83020397343273      0.04551192814982      0.97071626485279
  O   2.80201627814446     -0.51203116809828      0.47954007882338
  O   1.62160046283744      0.27740631276324      2.15601476171165
