15
Coordinates from ORCA-job run
  C   -0.61072143761289     -0.28343434729906      0.39027426554011
  C   0.82551929246615      0.28003165618521      0.46768971001562
  Br  -1.03352195506354     -0.88512528771884      2.21065813758604
  H   1.48773211220538     -0.49385481171857      0.86031920987761
  C   -1.57015575156597      0.75541520451281      0.03223571275923
  N   -2.37079454450896      1.55825891357295     -0.28004690709724
  C   -0.70122597423164     -1.46737086504127     -0.56738753380141
  H   0.04561554179233     -2.21982450615958     -0.30844870058144
  H   -0.53661377017409     -1.13266606919223     -1.59427312230116
  H   -1.69445773618430     -1.91180144348817     -0.50373400899046
  C   0.91833624491340      1.50092437944024      1.25508264060616
  N   1.00879550012004      2.47930976045772      1.89898595133745
  N   1.30664692370972      0.55352963846184     -0.94443363415018
  O   0.85516081775999      1.54837433666996     -1.49849253010344
  O   2.06868473637441     -0.28276655868296     -1.41842919069701
