15
Coordinates from ORCA-job run
  C   -0.53034599317392     -0.45206796187762      0.39104946826794
  C   0.72757570355261      0.44714965498956      0.51505051351728
  Br  -0.10804351630163     -2.18942662234690      1.19365758574034
  H   0.99432576818373      0.55845506011353      1.56801796653859
  C   -1.55960177391538      0.17537500793262      1.21727087869863
  N   -2.38914476598175      0.70581753224685      1.86046098081462
  C   -1.03964705326840     -0.65409859644458     -1.03254062230502
  H   -1.95381026630685     -1.24740675678049     -0.99974003801406
  H   -1.26134139156392      0.31540433433562     -1.48554662852978
  H   -0.29643737363082     -1.17018276110160     -1.63676400785355
  C   0.48753539996664      1.74714075795966     -0.10109492998081
  N   0.26891310229818      2.79484853839841     -0.58591029529545
  N   1.93197673103660     -0.19017579076848     -0.14492122725304
  O   1.91208059125632     -0.26618057498177     -1.36832015071339
  O   2.81696483784856     -0.57565182167482      0.60833050636774
