15
Coordinates from ORCA-job run
  C   -0.53100335255879     -0.44211431850751      0.40235582712033
  C   0.73326177132709      0.45106247149620      0.50322244810501
  Br  -0.11503966028546     -2.16814232587723      1.23217270855660
  H   1.00784303167655      0.57841338489637      1.55232830395913
  C   -1.55157811296781      0.20611600233988      1.22314830197191
  N   -2.37531776139252      0.75599846525616      1.85741934098223
  C   -1.04988244876802     -0.66529664091331     -1.01464649748695
  H   -1.96921709198258     -1.24951120550617     -0.96629074143262
  H   -1.26507547217849      0.29771932296697     -1.48431194259065
  H   -0.31497001700229     -1.19932970569999     -1.61341134325461
  C   0.49754717303374      1.74192414937329     -0.13342776434355
  N   0.28672866888117      2.78476728286597     -0.63197797942947
  N   1.92915118911581     -0.20532524420579     -0.15318880330291
  O   2.81591692381449     -0.58414088742728      0.60152924135856
  O   1.90163515928712     -0.30214075105758     -1.37492110021296
