15
Coordinates from ORCA-job run
  C   -0.63971338051743     -0.30058634391246      0.32551041277492
  C   0.81633106715108      0.17264006028699      0.53202140574548
  Br  -1.17017952959435     -1.11495462618014      2.03124573900650
  H   1.42377747702708     -0.67920162424993      0.84335979805319
  C   -1.53330671189228      0.82473680799769      0.07432447837703
  N   -2.28149185317121      1.70289533268832     -0.15366898455697
  C   -0.74140232178748     -1.34119774858153     -0.78523208822913
  H   -0.51703649652641     -0.88198522639479     -1.75086893809326
  H   -0.04129806704743     -2.15809779109983     -0.60204383971494
  H   -1.75544493743612     -1.73946440440762     -0.81928677029349
  C   0.93004024895925      1.27344076331080      1.47779901698819
  N   1.02990801148639      2.15576916867611      2.24690743407699
  N   1.37220493785103      0.60315363874335     -0.81155798564423
  O   0.98763911862589      1.68130973963549     -1.24795687860816
  O   2.11997243687199     -0.19945774651248     -1.36055279988215
