15
Coordinates from ORCA-job run
  C   -0.53825931212059     -0.45055260910840      0.38235899929919
  C   0.71541973554815      0.45136619201903      0.52700649592368
  Br  -0.12953089506336     -2.18213233778642      1.20383079173197
  H   0.95944545660811      0.57065949147330      1.58458248119725
  C   -1.58517229828893      0.18049841460470      1.18333728536259
  N   -2.42866467783473      0.71451817944537      1.80506416603359
  C   -1.01806256784997     -0.66181614910290     -1.05009007043251
  H   -1.23251628100179      0.30450544010744     -1.51324640977486
  H   -1.93136772581363     -1.25711555159184     -1.03264814090166
  H   -0.26163180928531     -1.17987257147410     -1.63593054747716
  C   0.48733209504048      1.74672617317525     -0.10342106085143
  N   0.28094721131989      2.79140633612777     -0.59998552813860
  N   1.93510944782471     -0.18843260933997     -0.10138832833260
  O   1.94101666622632     -0.27817138986441     -1.32387910222162
  O   2.80593495469067     -0.56158700868486      0.67440896858218
