15
Coordinates from ORCA-job run
  C   -0.54072266959409     -0.44369156287287      0.38748588689078
  C   0.72222180912969      0.44765780976256      0.52291882013887
  Br  -0.14675512647206     -2.17495652341212      1.21590711047878
  H   0.97152186019922      0.56934416005375      1.57898949537788
  C   -1.57868985956022      0.20188945360663      1.18845057997214
  N   -2.41355958085956      0.74923481613693      1.81022986507746
  C   -1.02662349438069     -0.65745339765856     -1.04255442706803
  H   -1.94559023134637     -1.24382796122771     -1.01940568068406
  H   -1.23266426697348      0.30805094942566     -1.51105766050101
  H   -0.27725782730180     -1.18669111990947     -1.62759454998998
  C   0.50222883420835      1.74162584228181     -0.11280896183407
  N   0.29874240606487      2.78333957082244     -0.61675065423831
  N   1.93246401794090     -0.20707133108538     -0.10798298627396
  O   2.80020427242682     -0.59153463826699      0.66575860887913
  O   1.93447985651842     -0.29691606765668     -1.33058544622560
