14
Coordinates from ORCA-job run
  C   0.43924218225327      0.24186115712149      0.47826519517709
  C   -0.46754248934578     -0.49144914806924     -0.22335618154138
  N   1.09667511016978     -0.27668998121393      1.69753309121236
  O   2.06712877090403      0.36489958071737      2.10669371762681
  O   0.63932842337275     -1.28795029074255      2.21609478417610
  N   0.79451131048268      1.53025355778574      0.19473537615951
  H   0.76307490758501      1.79387242142198     -0.77713706548496
  H   1.61521709239733      1.84469588469357      0.69164956885282
  C   -0.79941540179397     -1.84168470886667      0.06494893853609
  N   -1.15667431775937     -2.96005574821030      0.17297071700785
  C   -1.12134428544127      0.14650407352990     -1.42415940065654
  H   -1.48571259606064      1.14717276650120     -1.17205649301420
  H   -1.96551466186396     -0.45200349358561     -1.76410009080519
  H   -0.41997404489985      0.23857392891703     -2.26208215724635
