14
Coordinates from ORCA-job run
  C   0.26963719329487      0.34785116595035      0.53533851271824
  C   -0.35565472356468     -0.55957120419799     -0.26269053379046
  N   0.59809779835866      0.05703803347497      1.94802429998130
  O   1.39888578499320      0.82317165920446      2.48860096597569
  O   0.05839892415505     -0.90494587206797      2.48107191884547
  N   0.60177650423347      1.62157061654666      0.16880203621257
  H   0.82007984852893      1.75744544805694     -0.80541967849364
  H   1.23670525718056      2.07560079510303      0.80918191021791
  C   -0.65491910219776     -1.89205595745747      0.12736533503261
  N   -0.94228521753457     -3.02147324998493      0.30541948602434
  C   -0.69223116486400     -0.15412259646217     -1.67660511203407
  H   -1.17308473747540      0.82877144940156     -1.68684525790881
  H   -1.37207652583508     -0.87467217027152     -2.12943354161540
  H   0.20567016072675     -0.10460811729593     -2.30381034116574
