14
Coordinates from ORCA-job run
  C   0.47557415145474      0.35568076070900      0.41479573246364
  C   -0.65307330034590     -0.10531263331325     -0.21140935828674
  N   1.80925633925179     -0.16733679056603      0.06508664217148
  O   1.87616375775789     -1.06593419735021     -0.77104241514408
  O   2.76835747345985      0.32208551637515      0.66286351012869
  N   0.54240715986591      1.36352724379554      1.32851588292221
  H   1.36092248626548      1.36666305318927      1.91590999855168
  H   -0.32699674141528      1.63702222187740      1.76094254867060
  C   -1.84748227395565      0.49621631994283      0.27927946151978
  N   -2.81275681494009      1.00105642043239      0.73283962891947
  C   -0.77376289607933     -1.10903499899755     -1.33127437292385
  H   -1.82191686079655     -1.19854228540430     -1.61799301918942
  H   -0.40658184444677     -2.08986609769786     -1.02775856958767
  H   -0.19011063607608     -0.80522453299239     -2.20175567021579
