14
Coordinates from ORCA-job run
  C   0.56738100994124      0.08202833393758      0.38929336628196
  C   -0.55286222319824     -0.39465978804296     -0.21832169578757
  N   1.17545244952047     -0.59233818238444      1.55708002927713
  O   2.00521294684479      0.06275489950447      2.19172208724802
  O   0.82524332703530     -1.73868391464759      1.81008669293692
  N   1.28762952344049      1.16589983928582     -0.02695949640256
  H   1.95715532251330      1.49403354313460      0.65381366187918
  H   0.76387255054832      1.89479324388799     -0.48481796704259
  C   -1.30715275419955     -1.50119075906792      0.25465305998051
  N   -2.03523185925798     -2.38380137829482      0.53884475821331
  C   -1.07136524728658      0.33684534026103     -1.43185750479517
  H   -1.83210883984280     -0.25481080292171     -1.93939356932632
  H   -1.52525550213976      1.29656794011113     -1.15779526381197
  H   -0.25697070391899      0.53156168523684     -2.13634815865085
