14
Coordinates from ORCA-job run
  C   0.48040821067909      0.39305111529589      0.37932070506074
  C   -0.65518927260186     -0.06083540542723     -0.23141341656291
  N   1.78745908536606     -0.20636304450297      0.05638808737873
  O   2.65593873387806     -0.12490130037632      0.92734592665994
  O   1.92293568204532     -0.75151633819762     -1.03597805495747
  N   0.58793233738141      1.38725937982155      1.30452192878017
  H   -0.27379344106557      1.67134573138876      1.74585924099961
  H   1.38306224898038      1.30097646448507      1.91945873403357
  C   -1.84393490107491      0.56819717271299      0.24219937402017
  N   -2.78746732359591      1.11959883148864      0.68366715668062
  C   -0.78596035096430     -1.12101807446985     -1.29493512954450
  H   -0.17162728790782     -1.99321218322759     -1.06874247421700
  H   -1.82881956745264     -1.43652276634051     -1.35559899941583
  H   -0.47194415366730     -0.74705958265082     -2.27109307891583
