14
Coordinates from ORCA-job run
  C   0.42189648264142      0.34262818670849      0.47978908664177
  C   -0.65896989856412     -0.08215953564106     -0.21939162187096
  N   1.75157283098295     -0.14610094480350      0.08098485135747
  O   2.26107854530680      0.39035893978626     -0.90207557513754
  O   2.24121187078342     -1.03687220546610      0.76897507459967
  N   0.47096589643765      1.10492491355006      1.61474417866789
  H   -0.40603311066758      1.53186942295541      1.87901741181479
  H   1.26435861527390      1.72345173618921      1.69750760678760
  C   -1.91725621002670      0.42553332902992      0.21578767707624
  N   -2.93825556130529      0.87258224849985      0.59926143759791
  C   -0.62449667096693     -1.09005259647307     -1.33605340775498
  H   -1.00207692386033     -2.05794211860329     -0.99617474871970
  H   -1.25174774769778     -0.75371971639168     -2.16403571340018
  H   0.38775188166261     -1.22450165934049     -1.71733625765997
