14
Coordinates from ORCA-job run
  C   0.46697516948305      0.30957671459856      0.46489192752399
  C   -0.66003452325595     -0.12260495521021     -0.17264461059939
  N   1.79357014707703     -0.16602750515716      0.03662769799289
  O   1.86832155092769     -1.26781470948425     -0.50146053034119
  O   2.74171759819073      0.58877484513031      0.25881170053167
  N   0.55019491300501      1.14504055096580      1.54121270867200
  H   1.40832176817823      1.67317060268790      1.59355867530416
  H   -0.28895242533918      1.66064621222794      1.76238647195930
  C   -1.86409869586260      0.45498872292503      0.32379417333523
  N   -2.83831959340778      0.96128385570879      0.75494960772305
  C   -0.76909402663018     -1.11824362722819     -1.30031391451374
  H   -0.00221641532463     -0.95955941826756     -2.05828807671779
  H   -1.74827940724354     -1.01721613517213     -1.76968806877520
  H   -0.65910605979789     -2.14101515372483     -0.93483776209498
