14
Coordinates from ORCA-job run
  C   0.44281946288217      0.30748474106412      0.48600018165918
  C   -0.65160848036999     -0.11036952347489     -0.21530675908953
  N   1.78440250482450     -0.19989521516686      0.14875165890472
  O   1.87081305769904     -1.30712432522063     -0.37586723078815
  O   2.73203150157336      0.53627035451108      0.42746234000123
  N   0.47594759491003      1.15330808134473      1.55661427276384
  H   -0.36343720833792      1.69030631686312      1.71763690936073
  H   1.34113840921133      1.66161474810941      1.66137698433609
  C   -1.87123813684808      0.49336480444469      0.20604600697432
  N   -2.85545377657303      1.02319750563028      0.58231997091104
  C   -0.71004995969263     -1.11926872985864     -1.33520324475605
  H   -1.65276485518040     -1.00101201588489     -1.87058243147960
  H   -0.65347795594841     -2.13876780559023     -0.94894926460319
  H   0.11087784185003     -0.99110893677130     -2.04029939419462
