14
Coordinates from ORCA-job run
  C   0.43206714664164      0.28114408870042      0.50936099881065
  C   -0.64423763459192     -0.14256790274032     -0.21711100538842
  N   1.80349307003573      0.00314529669990      0.04733167578293
  O   2.67921100931412      0.77618680193644      0.43879622734603
  O   1.98409627241362     -0.96791248330683     -0.68260525000267
  N   0.42164045599369      0.93136726523765      1.70857259077842
  H   1.22693364313608      1.51541981139528      1.87625266723393
  H   -0.46383917785321      1.32820169746986      1.98523760292454
  C   -1.89859496885760      0.20400777253403      0.36454812711472
  N   -2.90847566471318      0.51126026179954      0.89007605047913
  C   -0.65066973290670     -0.95347362534892     -1.48863676478053
  H   -0.46184208078221     -2.00864216229365     -1.28094291219104
  H   -1.63072516252196     -0.86517647918760     -1.95984655566345
  H   0.10894282469191     -0.61296034289581     -2.19103345244423
