14
Coordinates from ORCA-job run
  C   0.41992297943291      0.33918604371113      0.48429918946339
  C   -0.65878825430782     -0.07555114813928     -0.22308562456126
  N   1.74350379751634     -0.18414225010648      0.11126415847310
  O   2.31359592465703      0.38547221639049     -0.81841962725344
  O   2.16851248569072     -1.13154163111426      0.76567793466585
  N   0.47247120883688      1.12318593915775      1.60458930137042
  H   1.27141097131179      1.73706552910566      1.67289949073754
  H   -0.40027596890383      1.57257789515764      1.84586772154192
  C   -1.91245095998676      0.47053415890685      0.17677906015633
  N   -2.92964315649249      0.94960342567837      0.53075579214855
  C   -0.62429485319806     -1.10125857232536     -1.32334127646590
  H   -1.05216110144507     -2.04790829357675     -0.98286797433879
  H   0.39496825015886     -1.28447916953850     -1.66449804340583
  H   -1.20677132327052     -0.75374414330727     -2.17892010253190
