14
Coordinates from ORCA-job run
  C   0.60883979770386      0.08811209773113      0.34869669280766
  C   -0.64777892344205     -0.19459926608315     -0.08977535867265
  N   0.92456746238771      0.07471660105642      1.79745952332597
  O   0.26611128161123     -0.65245255229271      2.53051660190401
  O   1.85238999054686      0.80494102452554      2.15177904304453
  N   1.71722932392674      0.37514369643088     -0.39593016457610
  H   2.41767869800146      0.89906340157916      0.10846448461386
  H   1.55753825841201      0.69343616422283     -1.33675051336871
  C   -1.71084382696725     -0.52103306593154      0.79839079136370
  N   -2.66443961493163     -0.75575146908371      1.44769021447286
  C   -1.00268032939190     -0.19793304988399     -1.55612128477290
  H   -1.13563017710205     -1.22340247048028     -1.91094005572987
  H   -0.24080521102998      0.27500187277411     -2.17754354256066
  H   -1.94117672972499      0.33575701543531     -1.71693643185169
