14
Coordinates from ORCA-job run
  C   0.54393019641649      0.11592478968426      0.41404540701710
  C   -0.52141167743975     -0.42675526374621     -0.23564223597280
  N   1.12339496639945     -0.50166182915530      1.62635083414287
  O   1.90089994243176      0.20120380563148      2.27593478139422
  O   0.80481047639598     -1.65290121938436      1.89791367729185
  N   1.23179478636855      1.22310818885034      0.00508561042135
  H   1.85165242468811      1.59800869672344      0.70840163695322
  H   0.69705032434823      1.91507798043361     -0.49557782038208
  C   -1.25521264964498     -1.54940990081903      0.23298342561896
  N   -1.96619001796611     -2.44685306806361      0.51358753694061
  C   -1.00858432042072      0.25054991913716     -1.49261291334758
  H   -1.72747148000986     -0.38028131420598     -2.01413132819407
  H   -1.50439926645101      1.20313187983030     -1.26955146307101
  H   -0.16926370511617      0.45085733508390     -2.16578714881263
