14
Coordinates from ORCA-job run
  C   0.54024481650772      0.12075071171627      0.41350157523123
  C   -0.63814190642859     -0.29350627684164     -0.12362032623549
  N   1.10646699943172     -0.49152845310906      1.63239108780221
  O   2.31723676779587     -0.33975603467502      1.80929773327382
  O   0.34211547779897     -1.07864486518781      2.39037537075342
  N   1.30288063222190      1.15219363517136     -0.06754192871842
  H   2.24013605626037      1.15313555677725      0.31581858043813
  H   1.30341859199732      1.24579522380930     -1.07025734158208
  C   -1.37344900469775     -1.40988062775273      0.36206609183624
  N   -2.06187125876881     -2.32505997726128      0.64025915878892
  C   -1.16426954225574      0.42033919589673     -1.34031757318205
  H   -2.22062793170349      0.19102220183073     -1.49488938064058
  H   -0.62861705427469      0.14911540519374     -2.25424486384862
  H   -1.06552264388479      1.50402430443215     -1.21383818391673
