14
Coordinates from ORCA-job run
  C   0.54507942369321      0.21814847518873      0.37564001283261
  C   -0.67337633323085     -0.17211972088044     -0.08090152166685
  N   0.79214202674340      0.45443450232712      1.82059727790750
  O   -0.17311323915956      0.48830675857982      2.57582232393802
  O   1.96994191140412      0.61172664276804      2.14899934342962
  N   1.62236190409288      0.52734829040921     -0.40889807328939
  H   2.46702658873383      0.70885118012668      0.11185751020002
  H   1.75272393059797     -0.07298297216451     -1.20924386159029
  C   -1.74012817917290     -0.58495492460038      0.76435690548066
  N   -2.71327997714839     -0.97867460894356      1.30352132480433
  C   -0.91041673121959     -0.28460732296957     -1.56421595468161
  H   -1.96182099215023     -0.09994198576348     -1.78414521637667
  H   -0.31961626237039      0.46180893115813     -2.10204387875490
  H   -0.65752407081351     -1.27734324523580     -1.94934619223308
