14
Coordinates from ORCA-job run
  C   0.39971532226223      0.22375610674495      0.56391786409157
  C   -0.62833006718331     -0.05213089890690     -0.29167211881686
  N   1.75198676009862     -0.30089675556987      0.30176189900522
  O   1.85742623717793     -1.32576972060622     -0.36669007541138
  O   2.68806828720158      0.33935022456203      0.78277871821706
  N   0.34730374704893      0.92899639895768      1.73111600705258
  H   1.21349376508233      1.37718488358352      1.98905019602505
  H   -0.48568040684090      1.48048286837282      1.87450972697345
  C   -1.86339146109029      0.55574348207107      0.07553145650523
  N   -2.86373237027787      1.08409544182411      0.40918918840144
  C   -0.60384617660749     -0.91314984138643     -1.53015000176744
  H   -0.59596791874938     -1.97385777551634     -1.27292664307552
  H   -1.49315713324000     -0.70426457288012     -2.12573416790334
  H   0.27811141511761     -0.71953984125031     -2.14068204929705
