14
Coordinates from ORCA-job run
  C   0.60711818855008      0.22220004522542      0.32492035066228
  C   -0.34958367493958     -0.10102063840246     -0.59347635587629
  N   0.31585522521580      0.14419977230812      1.76860777425873
  O   -0.84755577708219      0.29398560062049      2.13297582455744
  O   1.27644539061660     -0.06626163829510      2.51043966374543
  N   1.87152928703377      0.68296661379987      0.08948599723562
  H   2.52963019399953      0.48111831443953      0.82754745677817
  H   2.22126683883329      0.55989759437519     -0.84850782768018
  C   0.09239539341861      0.00891818273823     -1.94456262179126
  N   0.49490981046682      0.11616436606835     -3.04776060121218
  C   -1.77927958440794     -0.50945240106868     -0.34635837388782
  H   -2.15981834781375     -1.01863388614563     -1.23303456719716
  H   -1.87037509064222     -1.17881657075726      0.50841622677188
  H   -2.40353785324882      0.36473464509392     -0.14869294636466
