14
Coordinates from ORCA-job run
  C   0.42878715800820      0.32401784887934      0.48867625638976
  C   -0.64466380377805     -0.11420468998270     -0.23283422922230
  N   1.77568398994295     -0.21308291358153      0.22580344857608
  O   2.72191359604117      0.51860465653049      0.52073051259372
  O   1.86759503839147     -1.33671451283381     -0.26147291851919
  N   0.43229012539348      1.21976866398324      1.51828207777339
  H   1.30055484320535      1.72014783590828      1.63458167432497
  H   -0.40472357061569      1.77441735127322      1.62063939087787
  C   -1.87006375019520      0.52594759966358      0.11078759367007
  N   -2.86078009981013      1.08678474967488      0.41936084187306
  C   -0.67582634271988     -1.17419074729795     -1.30575754801361
  H   -1.60685948201368     -1.08428949504362     -1.86643088488208
  H   0.15987277035635     -1.07423999877075     -1.99825199922526
  H   -0.62378047220633     -2.17496634840265     -0.87311421621649
