14
Coordinates from ORCA-job run
  C   0.43466980957838      0.31439250223075      0.49016405507863
  C   -0.64483445827684     -0.09478875743673     -0.23937140723208
  N   1.76803946659747     -0.25901575680112      0.23789257002067
  O   1.83343795215305     -1.38593717722502     -0.24605066957409
  O   2.73129442592766      0.44847922774293      0.53681576706408
  N   0.45399363296342      1.20840184106503      1.52122753753291
  H   1.33304156435832      1.68853901770754      1.64234232364460
  H   -0.36939817842017      1.78409712943547      1.61821030519942
  C   -1.85634179625105      0.57535893284861      0.09618007628401
  N   -2.83606838232674      1.15816834888870      0.39911549481070
  C   -0.69697344287217     -1.15688632572338     -1.30989776907376
  H   0.14511788981684     -1.08057011121663     -1.99760587761663
  H   -0.67347749649284     -2.15692475372103     -0.87294868999566
  H   -1.62150098675534     -1.04431411779513     -1.87707371614279
