14
Coordinates from ORCA-job run
  C   0.44771397085656      0.33242772332798      0.46629771636186
  C   -0.65587779553654     -0.13910031724606     -0.18331918305545
  N   1.79106670562164     -0.13190165534414      0.08049651587816
  O   1.90130377570428     -1.26699586097784     -0.37614513876759
  O   2.71325934202213      0.66664136769359      0.25032100761203
  N   0.49495182626027      1.20336947160952      1.51679346989623
  H   -0.35818557314971      1.71049701102864      1.70398968775528
  H   1.34031963385900      1.75360495914493      1.55797454667200
  C   -1.88136879623677      0.42952704171382      0.26905714009561
  N   -2.87119060843470      0.93589946926069      0.66276281614403
  C   -0.71459220614378     -1.17472267663449     -1.27800046524600
  H   0.08028727601262     -1.03436400754020     -2.01081229542043
  H   -1.67641357450837     -1.10081369977131     -1.78697787447959
  H   -0.61027397632664     -2.18306882626514     -0.87243794344614
