14
Coordinates from ORCA-job run
  C   0.44739315036513      0.37557296796371      0.43165606444893
  C   -0.65377635751725     -0.15155730073185     -0.18020306617716
  N   1.79316874459820     -0.13770794263136      0.12043446691861
  O   1.89434421934615     -1.29335146242374     -0.28265593879871
  O   2.72894969787117      0.64463509994583      0.29307813569640
  N   0.48478119586883      1.34831876158141      1.38836535103769
  H   1.33997356571778      1.88331413741126      1.40689891735051
  H   -0.36286519708006      1.88399746729236      1.50304319378142
  C   -1.87772315252622      0.47134127576988      0.19899967931911
  N   -2.86711512040014      1.01978085346324      0.53284859680673
  C   -0.71538617299094     -1.29257505850044     -1.16505975986674
  H   0.07007062781552     -1.22105063183483     -1.91731875469565
  H   -0.59997884056259     -2.25438404904977     -0.66198453942653
  H   -1.68283636050556     -1.27533411825571     -1.66810234639462
