14
Coordinates from ORCA-job run
  C   0.41552530047895      0.22174094417963      0.51009913317231
  C   -0.51295498018202     -0.42107135281291     -0.24784415227710
  N   0.84439075609783     -0.29745732317879      1.82877873864051
  O   0.15742397377303     -1.16100098582035      2.36082177489796
  O   1.87151260780084      0.19441809120782      2.30106277571044
  N   0.99945442301942      1.42017527219882      0.19796642443026
  H   1.17793787562677      1.56906449014542     -0.78188334436755
  H   1.78587361507076      1.64261712635461      0.79283620569327
  C   -1.04582292909562     -1.70009881048737      0.06391238894939
  N   -1.55131818779730     -2.75961802440918      0.17376500791670
  C   -0.95059726626218      0.20450731851953     -1.54918686118009
  H   -1.02518529820688      1.29062559690276     -1.44632061093333
  H   -1.92304924046169     -0.18724733545426     -1.84500577542305
  H   -0.24419064986192     -0.01665500734573     -2.35800170522970
