14
Coordinates from ORCA-job run
  C   0.45718940305785      0.37868808371542      0.40641629448169
  C   -0.64986104129683     -0.18209546769019     -0.14305139654186
  N   1.80181891682548     -0.04705896947259     -0.02430723247067
  O   2.03486849226681     -1.25369831964656     -0.01076246563054
  O   2.59436943113433      0.84340987957358     -0.33579794310637
  N   0.50766874760453      1.42953880927674      1.27282948972060
  H   1.32239272276174      1.52553277804018      1.85197815139944
  H   -0.36169914959214      1.70951704130201      1.69838342537712
  C   -1.88362856202751      0.26108235106640      0.41429418108839
  N   -2.87702815454356      0.65465384521217      0.91188744344621
  C   -0.71982307981740     -1.15487475367656     -1.29138102150513
  H   -1.12999265044366     -0.63254004852618     -2.15822011422236
  H   -1.36153468744396     -2.00299733071109     -1.04609854665276
  H   0.26525961151432     -1.53015789846333     -1.54817026538377
