14
Coordinates from ORCA-job run
  C   0.44740407811964      0.36136893732724      0.44377315010045
  C   -0.65338400123631     -0.13450861692515     -0.19424134109235
  N   1.78634869213893     -0.18307562913905      0.15661986044853
  O   2.73731682400121      0.57475674962230      0.35390433473496
  O   1.86752082312510     -1.33828452173394     -0.25235734370770
  N   0.48863053594500      1.32616232759912      1.40845760842284
  H   1.35559403476736      1.84079110695640      1.44761825209313
  H   -0.34814290351262      1.88173539073085      1.50906944538219
  C   -1.86947033130792      0.51538197012426      0.16422657902487
  N   -2.85222094786067      1.08509317024477      0.48184865291539
  C   -0.72218123156973     -1.26582954505355     -1.18976304285828
  H   -1.67781089746128     -1.22076879948963     -1.71299248429978
  H   0.08111279379727     -1.20882863281990     -1.92411520607639
  H   -0.64171746894597     -2.23399390744372     -0.69204846508786
