11
Coordinates from ORCA-job run
  C   -0.27694309125736      0.15280289585541      0.04733153627318
  C   1.07438883169656      0.10274394822224     -0.64620220466106
  Cl  -1.38024176239710      1.21217341996909     -0.99525159930188
  H   0.96147814776737     -0.37252136289143     -1.62274208184211
  H   1.76192350564391     -0.48319472251760     -0.03428559216962
  H   1.47006986991363      1.10670663310220     -0.79126204948016
  C   -0.18315783224281      0.84418697017785      1.33828679858509
  N   -0.08335263418899      1.38540690267299      2.37526498676118
  N   -0.79119966048429     -1.15311777334465      0.25260644607316
  H   -1.69911236511693     -1.13836395253582      0.69997590212164
  H   -0.85485300933397     -1.65682295871028     -0.62372214235943
