11
Coordinates from ORCA-job run
  C   -0.31922196827922      0.19741969194287     -0.09955242962252
  C   1.11065018936134      0.12078616262500     -0.60565374646641
  Cl  -1.27154307078198      1.27093667274807     -1.18184985457885
  H   1.09771645595856     -0.31660370837053     -1.60398215053425
  H   1.70377287933555     -0.51131975074515      0.06094944598997
  H   1.56054630250125      1.11243188038778     -0.64165848108551
  C   -0.35399236923047      0.81769781997593      1.24040262858343
  N   -0.34326627950059      1.25194531161309      2.33251203105714
  N   -0.92686160777870     -1.11087786860717     -0.14261390372173
  H   -0.38482964062449     -1.75525366254120      0.42289098797011
  H   -1.87297089096126     -1.07816254902870      0.21955547240863
