16

C	-0.492808	-0.001511	-1.439285
C	0.0	0.0	0.0
Br	0.248419	-1.599827	-2.349763
H	1.093295	0.0	0.0
H	-0.368507	-0.920646	0.470483
C	-2.010235	-0.066942	-1.603801
H	-2.296952	-0.12683	-2.655735
H	-2.462196	0.827275	-1.165535
H	-2.387416	-0.948538	-1.080552
C	0.013018	1.158961	-2.176617
N	0.317694	2.129279	-2.766507
C	-0.458033	1.23319	0.773959
H	-1.543064	1.320334	0.911699
H	0.00869	1.199259	1.761756
H	-0.09233	2.1426	0.288789
F	2.651291	0.0	0.0
