16

C	-0.175169	0.131795	-1.504643
C	0.0	0.0	0.0
Br	-2.056327	0.6378	-2.072937
H	1.09713	0.0	0.0
H	-0.425396	-0.940634	0.356993
C	0.814522	1.149932	-2.065317
H	0.843571	1.127775	-3.157259
H	0.537802	2.151875	-1.737557
H	1.779945	0.87548	-1.610442
C	0.035548	-1.169199	-2.140822
N	0.213396	-2.217813	-2.643911
C	-0.471909	1.191583	0.816658
H	-0.282098	0.991022	1.874174
H	0.10304	2.083289	0.558951
H	-1.537058	1.409269	0.69201
F	2.696892	0.0	0.0
