16

C	-0.176937	0.123211	-1.506261
C	0.0	0.0	0.0
Br	-2.05517	0.626305	-2.071615
H	1.096996	0.0	0.0
H	-0.423327	-0.939713	0.363114
C	0.810475	1.134311	-2.078177
H	0.535323	2.140936	-1.758818
H	0.837893	1.100759	-3.168371
H	1.776474	0.86086	-1.62235
C	0.036803	-1.17969	-2.133875
N	0.231428	-2.222407	-2.641385
C	-0.477761	1.192584	0.810529
H	0.057125	2.097505	0.515958
H	-1.553068	1.374148	0.722284
H	-0.241236	1.017763	1.863652
F	2.700559	0.0	0.0
