15

C	-0.4554	0.001731	-1.456355
C	0.0	0.0	0.0
Br	0.10428	-1.620076	-2.405214
H	1.101933	0.0	0.0
H	0.045042	0.814101	-1.98727
C	-1.902045	0.134056	-1.600583
N	-3.060886	0.284596	-1.717521
N	-0.584578	-1.150285	0.693444
H	-0.075629	-1.978307	0.398782
H	-0.374888	-1.040249	1.679993
C	-0.472664	1.28485	0.667733
H	-0.025812	1.350758	1.663725
H	-1.562126	1.302641	0.764924
H	-0.13953	2.163228	0.109189
Cl	3.475104	0.0	0.0
