15

C	-0.36965	-0.0054	-1.48128
C	0.0	0.0	0.0
Br	-2.320785	0.008429	-1.800143
H	1.103721	0.0	0.0
H	-0.024807	-0.936569	-1.936715
C	0.198403	1.121729	-2.212991
N	0.636713	2.026664	-2.820379
N	-0.515104	-1.231555	0.612071
H	-0.536583	-1.08835	1.615721
H	0.180974	-1.955871	0.457407
C	-0.500809	1.226439	0.734538
H	-0.057422	1.246924	1.733744
H	-1.590542	1.215107	0.825643
H	-0.190391	2.140321	0.223796
Cl	3.368008	0.0	0.0
