15

C	-0.377989	-0.011609	-1.47887
C	0.0	0.0	0.0
Br	-2.330487	-0.199267	-1.732771
H	1.098154	0.0	0.0
H	0.052432	-0.89973	-1.940646
C	0.025148	1.186992	-2.204321
N	0.326962	2.156468	-2.795132
N	-0.410833	-1.275857	0.577288
H	-1.343141	-1.201063	0.968011
H	0.229722	-1.504171	1.326614
C	-0.495765	1.230952	0.74486
H	-0.113835	1.201701	1.768269
H	-1.590423	1.261423	0.779438
H	-0.131803	2.151781	0.282277
Cl	3.4127	0.0	0.0
