15

C	-0.455515	0.001182	-1.456396
C	0.0	0.0	0.0
Br	0.099556	-1.622814	-2.406114
H	1.101951	0.0	0.0
H	0.046183	0.812717	-1.987874
C	-1.902359	0.135965	-1.600032
N	-3.061449	0.288888	-1.71449
N	-0.584609	-1.149796	0.694496
H	-0.373989	-1.039258	1.68086
H	-0.076064	-1.978038	0.399909
C	-0.472673	1.285247	0.666837
H	-1.562249	1.303562	0.76301
H	-0.13849	2.163247	0.108264
H	-0.02679	1.351323	1.663301
Cl	3.471776	0.0	0.0
