15

C	-0.320061	-0.014332	-1.506813
C	0.0	0.0	0.0
Br	-2.247398	-0.326556	-1.885197
H	1.098924	0.0	0.0
H	0.183801	-0.863374	-1.972004
C	0.04873	1.20931	-2.204901
N	0.341581	2.197826	-2.768551
N	-0.40668	-1.213816	0.687046
H	0.196981	-1.981932	0.413242
H	-1.369238	-1.451021	0.463942
C	-0.543168	1.224485	0.707808
H	-1.638292	1.220904	0.725376
H	-0.200488	2.146753	0.234568
H	-0.179424	1.205788	1.735162
Cl	3.399736	0.0	0.0
