15

C	-0.511378	-0.019197	-1.454724
C	0.0	0.0	0.0
Br	0.112634	1.488315	-2.541255
H	1.095186	0.0	0.0
H	-1.603313	0.077369	-1.450795
C	-0.174396	-1.258688	-2.147834
N	0.07648	-2.265939	-2.698244
N	-0.424835	-1.217794	0.685608
H	-1.373639	-1.479606	0.442008
H	0.196136	-1.978631	0.440322
C	-0.521159	1.216801	0.744125
H	-0.188255	2.146973	0.28239
H	-0.136951	1.176451	1.763675
H	-1.618484	1.212134	0.787232
Cl	3.432147	0.0	0.0
