15

C	-0.554169	-0.028979	-1.428989
C	0.0	0.0	0.0
Br	0.020149	1.494282	-2.516806
H	1.100548	0.0	0.0
H	-1.644661	0.031066	-1.379583
C	-0.201586	-1.255914	-2.136048
N	0.038133	-2.260865	-2.695526
N	-0.535523	-1.229669	0.617754
H	0.11852	-1.980329	0.415933
H	-0.507686	-1.106931	1.624061
C	-0.512278	1.208279	0.76086
H	-1.60584	1.182486	0.836826
H	-0.202573	2.13824	0.285044
H	-0.088851	1.200824	1.768932
Cl	3.460752	0.0	0.0
