15

C	-0.518649	-0.006386	-1.4527
C	0.0	0.0	0.0
Br	0.107237	1.50628	-2.530934
H	1.095148	0.0	0.0
H	-1.61	0.095029	-1.441401
C	-0.195198	-1.243029	-2.156892
N	0.010932	-2.257378	-2.712951
N	-0.425783	-1.222055	0.677449
H	-1.379575	-1.474033	0.439886
H	0.185456	-1.986059	0.41508
C	-0.51872	1.211661	0.754664
H	-0.134627	1.162413	1.773911
H	-0.183901	2.14469	0.300028
H	-1.616238	1.209225	0.797516
Cl	3.437476	0.0	0.0
