15

C	-0.507122	-0.051843	-1.425357
C	0.0	0.0	0.0
Br	0.341722	1.301134	-2.538854
H	1.091214	0.0	0.0
H	-0.342567	-0.915368	0.492579
N	-0.213777	-1.415719	-2.092888
O	-0.696604	-1.580646	-3.2075
O	0.451376	-2.217293	-1.456072
C	-1.954347	0.126738	-1.523662
N	-3.120699	0.277338	-1.52885
C	-0.494955	1.231739	0.751735
H	-0.151381	2.147313	0.267418
H	-0.064333	1.215805	1.754632
H	-1.584667	1.265423	0.840938
Cl	3.425428	0.0	0.0
