15

C	-0.529707	0.025703	-1.428949
C	0.0	0.0	0.0
Br	0.291282	1.44939	-2.453656
H	1.092083	0.0	0.0
H	-0.320668	0.942811	0.45508
N	-0.216072	-1.321917	-2.098439
O	0.910552	-1.495744	-2.526175
O	-1.130045	-2.144916	-2.062719
C	-1.977321	0.215403	-1.477267
N	-3.135196	0.418259	-1.452781
C	-0.524473	-1.189198	0.799097
H	-0.183461	-1.08188	1.830757
H	-0.11442	-2.127781	0.422579
H	-1.61601	-1.257195	0.796419
Cl	3.419782	0.0	0.0
