15

C	-0.422139	-0.002561	-1.446102
C	0.0	0.0	0.0
Br	-2.371691	0.274402	-1.656548
H	1.096776	0.0	0.0
H	-0.334068	0.943901	0.435904
N	0.217215	1.182565	-2.189011
O	0.164219	2.257725	-1.614197
O	0.692105	0.957876	-3.294014
C	-0.10181	-1.236783	-2.149307
N	0.141975	-2.267309	-2.659932
C	-0.509753	-1.201913	0.78096
H	-0.127661	-2.132902	0.356688
H	-1.601731	-1.247768	0.812636
H	-0.134245	-1.134603	1.803741
Cl	3.358522	0.0	0.0
