15

C	-0.480058	0.013514	-1.446446
C	0.0	0.0	0.0
Br	0.27148	-1.429639	-2.488449
H	1.092911	0.0	0.0
H	-0.335954	0.944607	0.441332
N	-2.020229	-0.116505	-1.41048
O	-2.598369	0.90352	-1.047803
O	-2.537592	-1.200405	-1.630984
C	-0.188402	1.270993	-2.125824
N	0.033943	2.282877	-2.681993
C	-0.522177	-1.184478	0.800922
H	-1.604739	-1.147028	0.956079
H	-0.035166	-1.174618	1.777973
H	-0.269763	-2.130014	0.318131
Cl	3.385911	0.0	0.0
