15

C	-0.466877	0.00853	-1.450812
C	0.0	0.0	0.0
Br	0.264127	-1.459068	-2.473715
H	1.092999	0.0	0.0
H	-0.33352	0.950408	0.430925
N	-2.009783	-0.087377	-1.428238
O	-2.547094	-1.163479	-1.63805
O	-2.570832	0.95054	-1.090292
C	-0.138369	1.252661	-2.13736
N	0.110865	2.253429	-2.701719
C	-0.532242	-1.173738	0.809136
H	-0.277444	-2.125058	0.339598
H	-0.054889	-1.153559	1.790701
H	-1.616074	-1.132401	0.953126
Cl	3.377556	0.0	0.0
