15

C	-0.536083	-0.004605	-1.427399
C	0.0	0.0	0.0
Br	0.242537	1.431919	-2.466838
H	1.092042	0.0	0.0
H	-0.319759	0.953935	0.431973
N	-0.196027	-1.351119	-2.08692
O	-1.065399	-2.213405	-1.968871
O	0.903423	-1.484168	-2.5914
C	-1.988875	0.146685	-1.470162
N	-3.150159	0.329585	-1.446613
C	-0.52009	-1.165153	0.836676
H	-0.169165	-1.02602	1.861329
H	-0.116574	-2.116046	0.485644
H	-1.611711	-1.230111	0.846122
Cl	3.418617	0.0	0.0
