15

C	-0.474584	-0.008793	-1.439034
C	0.0	0.0	0.0
Br	0.136968	-1.592697	-2.375977
H	1.093165	0.0	0.0
H	-0.342543	-0.934322	0.451286
N	-2.015075	-0.055523	-1.429588
O	-2.51972	-1.019483	-0.871829
O	-2.618135	0.898571	-1.912361
C	-0.069349	1.168827	-2.195236
N	0.267843	2.121346	-2.796371
C	-0.524563	1.211213	0.764704
H	-0.093731	1.195204	1.767302
H	-0.208576	2.143285	0.291092
H	-1.614159	1.214456	0.861508
Cl	3.391505	0.0	0.0
