15

C	-0.500102	-0.006145	-1.428783
C	0.0	0.0	0.0
Br	0.334245	1.399747	-2.4865
H	1.091222	0.0	0.0
H	-0.341799	-0.932678	0.459625
N	-0.184141	-1.341856	-2.143585
O	-0.635546	-1.461844	-3.276829
O	0.460607	-2.1706	-1.520159
C	-1.949136	0.154019	-1.529871
N	-3.11765	0.286397	-1.544683
C	-0.502045	1.203544	0.791056
H	-0.089836	1.146129	1.800585
H	-1.593428	1.238149	0.863186
H	-0.146621	2.135851	0.349019
Cl	3.425259	0.0	0.0
