18

C	-0.618235	0.005474	-1.383815
C	0.0	0.0	0.0
Br	0.349549	-1.416215	-2.521421
H	1.09406	0.0	0.0
N	-1.996362	-0.199681	-1.34766
H	-2.156408	-0.975665	-0.710889
H	-2.391324	-0.346638	-2.264564
N	-0.338846	1.261801	-2.183823
O	-1.094926	1.479105	-3.132363
O	0.616384	1.955694	-1.857068
N	-0.46223	-1.266738	0.622763
H	0.265637	-1.948773	0.427306
H	-0.436009	-1.123971	1.626792
C	-0.493054	1.172926	0.833451
H	-0.280714	2.124691	0.347267
H	0.066395	1.164507	1.775113
H	-1.565375	1.100465	1.040991
H	2.860736	0.0	0.0
