18

C	-0.211972	-0.033665	-1.511516
C	0.0	0.0	0.0
Br	-0.251706	1.886166	-2.336338
H	1.104828	0.0	0.0
N	0.770195	-0.826787	-2.048166
H	0.763308	-0.916151	-3.052448
H	1.692841	-0.61398	-1.627332
N	-1.602209	-0.516553	-1.932633
O	-2.56166	-0.041484	-1.343104
O	-1.660106	-1.345897	-2.836661
N	-0.489688	-1.311515	0.477485
H	-0.488221	-1.275543	1.491877
H	0.221338	-1.991285	0.219177
C	-0.597954	1.120205	0.810981
H	-0.250259	1.010663	1.843993
H	-1.689007	1.086304	0.79298
H	-0.257932	2.090326	0.45282
H	2.878708	0.0	0.0
