18

C	-0.61953	0.002724	-1.383413
C	0.0	0.0	0.0
Br	0.35379	-1.40713	-2.524768
H	1.093993	0.0	0.0
N	-1.99634	-0.213586	-1.34723
H	-2.147747	-0.986931	-0.706277
H	-2.389434	-0.375477	-2.263665
N	-0.353591	1.261936	-2.184031
O	-1.119756	1.479594	-3.12262
O	0.603947	1.956252	-1.867648
N	-0.454345	-1.269445	0.62519
H	0.28159	-1.946314	0.432763
H	-0.428503	-1.125888	1.629477
C	-0.495293	1.168661	0.837399
H	-1.564989	1.093395	1.046078
H	0.06512	1.160777	1.776475
H	-0.287205	2.121214	0.354937
H	2.853028	0.0	0.0
