18

C	-0.284974	0.085167	-1.498997
C	0.0	0.0	0.0
Br	-2.024431	0.932783	-1.951097
H	1.099962	0.0	0.0
N	0.75078	0.746686	-2.235715
H	0.617956	1.746857	-2.165604
H	1.637393	0.516111	-1.753521
N	-0.328572	-1.360696	-2.024599
O	0.764706	-1.912675	-1.975569
O	-1.37051	-1.87046	-2.411292
N	-0.530952	-1.214601	0.598648
H	-1.106899	-0.994834	1.400366
H	0.256166	-1.77366	0.914218
C	-0.379511	1.259576	0.753646
H	-1.458966	1.323989	0.92606
H	-0.064324	2.156206	0.215738
H	0.146863	1.250378	1.712883
H	2.81323	0.0	0.0
