16

C	-0.511988	-0.000957	-1.438989
C	0.0	0.0	0.0
Cl	0.282443	1.177487	-2.489136
H	1.088446	0.0	0.0
N	-0.042637	-1.393489	-2.033303
O	-0.876493	-2.007756	-2.687571
O	1.109978	-1.726918	-1.816707
N	-1.899934	0.174935	-1.504285
H	-2.390148	-0.523169	-0.958119
H	-2.244448	0.186621	-2.454881
C	-0.501054	-1.177695	0.675123
N	-0.890807	-2.164561	1.19257
N	-0.483262	1.223415	0.718931
O	-0.147471	2.304143	0.234012
O	-1.059551	1.081681	1.799132
Br	2.742896	0.0	0.0
