15

C	-0.587203	-0.001056	-1.404615
C	0.0	0.0	0.0
Cl	0.102108	1.374021	-2.297332
H	1.090093	0.0	0.0
H	-0.298431	0.947171	0.462037
N	-0.16262	-1.264067	-2.158661
O	-0.684793	-1.43348	-3.259175
O	0.643685	-2.007704	-1.615264
C	-2.099821	0.067033	-1.444638
H	-2.445276	0.115972	-2.475204
H	-2.5219	-0.817996	-0.962688
H	-2.429899	0.957314	-0.907027
C	-0.54609	-1.092077	0.797503
N	-1.034066	-1.976146	1.396335
Br	3.541918	0.0	0.0
