15

C	-0.530245	-0.005161	-1.430745
C	0.0	0.0	0.0
Cl	0.125676	1.359777	-2.329381
H	1.093429	0.0	0.0
H	-0.332256	-0.916744	0.493267
N	-0.064248	-1.3211	-2.07627
O	-0.392146	-2.324649	-1.450651
O	0.505078	-1.302862	-3.153151
C	-2.044653	-0.007766	-1.532743
H	-2.434262	0.919276	-1.115339
H	-2.349438	-0.080148	-2.57852
H	-2.445517	-0.855019	-0.976579
C	-0.516827	1.149047	0.729767
N	-0.962413	2.065102	1.313494
Br	3.460459	0.0	0.0
