15

C	-0.420276	0.006824	-1.45936
C	0.0	0.0	0.0
Cl	0.038572	-1.555358	-2.185942
H	1.093174	0.0	0.0
H	-0.364217	-0.894507	0.504572
N	-1.950453	0.057525	-1.563098
O	-2.437211	0.623999	-2.537607
O	-2.584472	-0.506464	-0.677659
C	0.208747	1.141315	-2.229159
H	-0.043259	1.077485	-3.285728
H	1.290874	1.074304	-2.085932
H	-0.147765	2.09441	-1.831238
C	-0.500078	1.19065	0.676393
N	-0.900771	2.160878	1.202898
Br	3.477309	0.0	0.0
