16

C	0.010554	-0.029045	0.049952
C	-0.483353	-0.029804	-1.400797
F	1.392561	-0.40665	0.031869
H	-1.594447	-0.099448	-1.341714
C	0.054925	1.366999	0.566258
N	0.074645	2.413887	1.100377
N	-0.756504	-0.898967	0.820082
H	-0.732878	-0.646325	1.799966
H	-1.77144	-0.881649	0.457929
N	-0.022319	-1.339699	-2.031985
O	0.828316	-1.265115	-2.92555
O	-0.537568	-2.379597	-1.641825
N	-0.025623	1.106123	-2.121196
H	-0.503039	1.161631	-3.0109
H	0.966918	1.018152	-2.303131
H	-3.056045	-0.559778	-0.295606
