15

C	0.0	0.0	0.0
C	-0.282226	0.252354	-1.497391
Cl	1.779272	0.0	0.0
H	0.071725	-0.628925	-2.036026
H	0.388444	1.071372	-1.770212
C	-0.557937	1.022709	0.945688
H	-0.194768	0.845785	1.956809
H	-0.250579	2.016197	0.611195
H	-1.650817	0.940556	0.915189
N	-0.416265	-1.408503	0.414399
O	-0.52964	-2.247839	-0.469728
O	-0.528187	-1.606704	1.616806
C	-1.573239	0.63752	-2.075612
N	-2.316324	1.058421	-2.885313
Br	-3.839424	0.0	0.0
