15

C	0.0	0.0	0.0
C	-0.304628	0.229223	-1.501935
Cl	1.779225	0.0	0.0
H	0.452164	-0.322953	-2.060581
H	-0.111828	1.29233	-1.678247
C	-0.577941	1.000802	0.954
H	-0.25343	2.000147	0.655849
H	-1.669854	0.922608	0.889888
H	-0.244305	0.795238	1.969805
N	-0.382664	-1.422942	0.395359
O	-0.537938	-1.642065	1.589684
O	-0.423954	-2.251355	-0.506835
C	-1.557163	-0.131116	-2.172052
N	-2.292028	-0.401645	-3.049393
Br	-3.849716	0.0	0.0
