15

C	0.0	0.0	0.0
C	-0.56832	0.071213	-1.409803
Cl	1.765792	0.0	0.0
H	-1.665852	0.000607	-1.302896
H	-0.209601	-0.770388	-2.002992
C	-0.517348	1.08996	0.904007
H	-0.236692	2.056469	0.481256
H	-0.087728	0.99286	1.89897
H	-1.607273	1.007823	0.94825
N	-0.376286	-1.374886	0.573777
O	-0.515684	-1.450424	1.786546
O	-0.432277	-2.310995	-0.215899
C	-0.204375	1.32247	-2.060842
N	0.100768	2.320208	-2.599046
Br	-3.837226	0.0	0.0
