15

C	0.0	0.0	0.0
C	-0.560287	0.488386	-1.32764
Cl	1.777101	0.0	0.0
H	-0.213843	-0.149222	-2.141009
H	-1.658982	0.41014	-1.244466
C	-0.512409	0.779907	1.183065
H	-1.604698	0.716	1.186461
H	-0.200249	1.820526	1.079085
H	-0.108034	0.371912	2.107289
N	-0.37612	-1.481841	0.144
O	-0.468352	-2.13498	-0.888724
O	-0.480688	-1.919496	1.281296
C	-0.175094	1.869856	-1.586173
N	0.141194	2.978015	-1.810808
Br	-3.845499	0.0	0.0
