15

C	0.0	0.0	0.0
C	-0.281374	-0.263422	-1.497079
Cl	1.77936	0.0	0.0
H	0.384684	-1.073401	-1.796527
H	0.072974	0.635419	-2.010629
C	-0.576602	1.256919	0.580711
H	-1.669538	1.15713	0.572174
H	-0.273971	2.104754	-0.03743
H	-0.220664	1.400383	1.599779
N	-0.396219	-1.214259	0.832045
O	-0.506948	-2.280607	0.23835
O	-0.498416	-1.0426	2.039814
C	-1.573907	-0.625386	-2.081726
N	-2.339121	-1.033649	-2.874855
Br	-3.886005	0.0	0.0
