15

C	0.0	0.0	0.0
C	-0.513881	-0.16341	-1.413201
F	1.369735	0.0	0.0
H	-1.559608	-0.467296	-1.328627
H	-0.527813	0.840038	-1.850297
C	-0.433506	1.241013	0.655317
N	-0.5745	2.314447	1.110771
N	-0.349211	-1.179164	0.914558
O	-0.57289	-2.25776	0.382557
O	-0.249476	-0.966229	2.117852
C	0.328184	-1.095406	-2.278835
H	-0.132958	-1.164973	-3.26674
H	0.370969	-2.097907	-1.856702
H	1.347498	-0.724279	-2.406617
Cl	-3.444006	0.0	0.0
