15

C	0.0	0.0	0.0
C	-0.512292	0.036831	-1.414469
F	1.361827	0.0	0.0
H	-0.003787	-0.774498	-1.941219
H	-1.585045	-0.165198	-1.371136
C	-0.433226	1.125078	0.840126
N	-0.590744	2.108633	1.461837
N	-0.350189	-1.311543	0.704247
O	-0.294422	-2.31999	0.011081
O	-0.525138	-1.26549	1.914411
C	-0.244486	1.390344	-2.063498
H	-0.529473	1.352442	-3.117863
H	-0.846242	2.166461	-1.586387
H	0.810324	1.672777	-2.005788
Cl	-3.490834	0.0	0.0
