15

C	0.0	0.0	0.0
C	-0.550411	0.009712	-1.406544
F	1.349455	0.0	0.0
H	-1.642659	0.031386	-1.31094
H	-0.235067	0.9817	-1.803918
C	-0.429325	1.193637	0.753203
N	-0.574165	2.231199	1.284103
N	-0.377137	-1.23645	0.817374
O	-0.189583	-2.314488	0.264084
O	-0.732692	-1.067647	1.976258
C	-0.065064	-1.102668	-2.330614
H	-0.275207	-0.810039	-3.361837
H	1.01015	-1.272572	-2.238884
H	-0.57975	-2.039054	-2.129953
Cl	-3.578932	0.0	0.0
