16

C	0.0	0.0	0.0
C	-0.123564	0.064288	-1.557938
Br	2.060912	0.0	0.0
H	0.486746	-0.746611	-1.9696
H	0.369828	0.993478	-1.867489
N	-0.708277	0.961058	0.718666
H	-0.598729	1.85995	0.259567
H	-1.775104	0.595562	0.516565
N	-0.379962	-1.281874	0.479823
H	0.304169	-1.987185	0.258286
H	-0.540873	-1.229991	1.476615
C	-1.510216	-0.007336	-2.181548
H	-2.167202	0.7807	-1.830296
H	-1.389391	0.049989	-3.272646
H	-2.015367	-0.928212	-1.904478
F	-2.962231	0.0	0.0
