16

C	0.0	0.0	0.0
C	-0.395622	-0.050435	-1.501046
Br	2.041982	0.0	0.0
H	-1.486791	0.048977	-1.451829
H	-0.156136	-1.06906	-1.839399
N	-0.228902	1.335929	0.591612
H	-1.215183	1.395183	0.857428
H	0.320241	1.381121	1.445581
N	-0.6276	-1.098151	0.631913
H	-1.666995	-0.84336	0.432369
H	-0.494272	-0.996143	1.63963
C	0.2324	0.98274	-2.414935
H	0.091331	1.982726	-1.996702
H	-0.248346	0.950273	-3.399605
H	1.305075	0.818158	-2.551387
F	-2.877827	0.0	0.0
