16

C	0.0	0.0	0.0
C	-0.36922	-0.152974	-1.479632
Br	2.058527	0.0	0.0
H	-1.452901	-0.306625	-1.389247
H	0.106204	-1.053873	-1.88256
N	-0.633342	1.061065	0.67282
H	-1.685489	0.723941	0.513486
H	-0.49916	1.915867	0.1442
N	-0.348569	-1.200835	0.688613
H	-0.431785	-0.991646	1.674099
H	0.326916	-1.933344	0.534318
C	-0.061766	1.04941	-2.359319
H	1.000978	1.305935	-2.347779
H	-0.352319	0.843562	-3.394288
H	-0.63699	1.920954	-2.036524
F	-2.868574	0.0	0.0
