16

C	0.0	0.0	0.0
C	-0.360602	-0.034999	-1.489965
Br	2.064024	0.0	0.0
H	0.035475	-0.960824	-1.927923
H	-1.455372	-0.088766	-1.415666
N	-0.373244	1.263408	0.572238
H	0.402463	1.905068	0.613372
H	-0.748222	1.099087	1.493896
N	-0.617248	-1.026541	0.745487
H	-0.504735	-1.896781	0.233558
H	-1.662754	-0.713565	0.582779
C	0.045761	1.177097	-2.313015
H	-0.34483	1.090451	-3.332126
H	1.130923	1.29532	-2.371865
H	-0.384556	2.073604	-1.86274
F	-2.857443	0.0	0.0
