16

C	-0.504417	0.034247	-1.413444
C	0.0	0.0	0.0
F	0.117125	-0.951186	-2.158708
H	1.090257	0.0	0.0
H	-0.341617	0.901344	0.508762
N	-1.916305	-0.03675	-1.541837
H	-2.152936	-0.111548	-2.525596
H	-2.258832	-0.852922	-1.052209
N	-0.137786	1.335982	-2.132431
O	0.247871	2.287998	-1.469301
O	-0.328086	1.331552	-3.348068
C	-0.476615	-1.256304	0.727633
H	-1.544852	-1.236739	0.967596
H	0.072303	-1.348885	1.664733
H	-0.258813	-2.148746	0.137927
Cl	3.525991	0.0	0.0
