16

C	-0.491295	-0.056755	-1.418625
C	0.0	0.0	0.0
F	0.128204	-1.098203	-2.086335
H	1.093218	0.0	0.0
H	-0.342728	0.933692	0.446011
N	-1.902115	-0.123401	-1.560953
H	-2.256634	-0.902819	-1.024005
H	-2.123873	-0.263141	-2.539837
N	-0.100698	1.187825	-2.220752
O	0.267079	2.185078	-1.616718
O	-0.253811	1.09281	-3.437601
C	-0.480803	-1.205403	0.806745
H	0.056066	-1.23	1.756487
H	-1.552543	-1.173727	1.031869
H	-0.251074	-2.135703	0.282721
Cl	3.519738	0.0	0.0
