16

C	-0.387468	0.1405	-1.460253
C	0.0	0.0	0.0
F	-1.633831	0.698341	-1.578244
H	1.092757	0.0	0.0
H	-0.310188	0.945006	0.461908
N	0.516276	0.878658	-2.28432
H	0.521203	1.831478	-1.934837
H	1.452888	0.511504	-2.116916
N	-0.495457	-1.253506	-2.076658
O	-1.611199	-1.752719	-2.178469
O	0.565954	-1.790343	-2.369123
C	-0.602364	-1.184017	0.739562
H	-0.328321	-1.132172	1.795012
H	-1.69256	-1.20425	0.660758
H	-0.207487	-2.124191	0.349197
Cl	3.464533	0.0	0.0
