12

C	-0.45582	-0.014419	-1.448662
C	0.0	0.0	0.0
Br	-0.037822	1.826923	-2.206788
H	1.091429	0.0	0.0
H	0.201311	-0.649254	-2.042309
H	-0.350183	0.898401	0.516241
N	-1.808752	-0.372693	-1.639048
H	-2.074288	-0.329399	-2.614043
H	-2.42212	0.223397	-1.100674
C	-0.473798	-1.180609	0.710058
N	-0.832359	-2.122833	1.31434
H	2.770117	0.0	0.0
