12

C	-0.410915	0.062739	-1.441248
C	0.0	0.0	0.0
Br	-2.396028	0.912431	-1.556732
H	1.094647	0.0	0.0
H	0.125919	0.851831	-1.962668
H	-0.308406	0.902785	0.529392
N	-0.337969	-1.141188	-2.111021
H	-0.811774	-1.904376	-1.64765
H	-0.563551	-1.089561	-3.09169
C	-0.534894	-1.17314	0.663057
N	-0.950612	-2.15866	1.151739
H	2.70991	0.0	0.0
