16

C	-0.257217	-0.032576	-1.48885
C	0.0	0.0	0.0
Br	-2.201936	-0.176044	-1.907766
H	1.096037	0.0	0.0
H	0.031764	0.926358	-1.913084
N	0.453596	-1.085016	-2.174945
H	0.157348	-1.98102	-1.802378
H	1.43221	-0.957504	-1.890464
C	-0.483786	-1.17272	0.81306
H	-0.136306	-2.098883	0.34912
H	-0.048962	-1.122926	1.811446
H	-1.572062	-1.19741	0.898552
N	-0.41025	1.279084	0.588993
O	-0.818486	1.291074	1.757984
O	-0.24103	2.302506	-0.084791
H	2.625488	0.0	0.0
