16

C	-0.292591	0.103905	-1.494347
C	0.0	0.0	0.0
Br	-0.96232	-1.930603	-2.273045
H	1.092017	0.0	0.0
H	-1.227991	0.559374	-1.798204
N	0.811132	0.536352	-2.127093
H	0.78883	0.699665	-3.119159
H	1.715682	0.322996	-1.676538
C	-0.510113	-1.168877	0.806819
H	-1.595846	-1.276409	0.74138
H	-0.048493	-2.079949	0.43185
H	-0.21186	-1.024137	1.844919
N	-0.406764	1.284047	0.631688
O	-0.800072	2.212456	-0.084952
O	-0.267237	1.378507	1.85292
H	2.726195	0.0	0.0
