16

C	-0.494396	-0.061012	-1.422015
C	0.0	0.0	0.0
Br	0.280363	1.472849	-2.509166
H	1.090195	0.0	0.0
H	0.017317	-0.904905	-1.886775
N	-1.901225	-0.181172	-1.575619
H	-2.144611	-0.256376	-2.555614
H	-2.334314	0.649397	-1.190018
C	-0.354888	-1.269617	0.763319
H	-1.434437	-1.414951	0.851374
H	0.109858	-1.219312	1.74844
H	0.081967	-2.120422	0.233703
N	-0.487447	1.155057	0.752979
O	-1.295648	1.946957	0.231248
O	-0.037093	1.300185	1.894561
H	2.622321	0.0	0.0
