16

C	-0.562478	-0.037324	-1.416028
C	0.0	0.0	0.0
Br	0.050824	-1.689546	-2.306598
H	1.090553	0.0	0.0
H	-1.652057	-0.173622	-1.392479
N	-0.108558	1.069965	-2.228219
H	-0.565799	1.903767	-1.878297
H	-0.377666	0.921661	-3.190255
C	-0.45617	-1.149848	0.885095
H	-0.047388	-2.085946	0.508586
H	-1.551217	-1.216579	0.926062
H	-0.063804	-0.985321	1.887986
N	-0.441668	1.234313	0.666811
O	-1.265799	1.9876	0.107314
O	0.031721	1.469427	1.780465
H	2.673784	0.0	0.0
