16

C	-0.258492	-0.064787	-1.478156
C	0.0	0.0	0.0
Br	-2.218252	-0.402609	-1.911493
H	1.096794	0.0	0.0
H	-0.122825	0.918997	-1.92551
N	0.541586	-1.117847	-2.018375
H	0.647991	-0.995613	-3.017278
H	1.465693	-1.036044	-1.571096
C	-0.475243	-1.179804	0.808662
H	-1.551837	-1.144898	0.983835
H	-0.229696	-2.08682	0.25371
H	0.043823	-1.20037	1.767789
N	-0.419975	1.282068	0.571035
O	-0.795327	1.301283	1.749997
O	-0.289071	2.300192	-0.11917
H	2.612816	0.0	0.0
