17

C	-0.380157	-0.010498	-1.484439
C	0.0	0.0	0.0
F	0.000751	1.217125	-2.030481
H	1.096996	0.0	0.0
C	0.36165	-1.104471	-2.22581
H	0.19053	-1.005507	-3.300161
H	0.025322	-2.088125	-1.893103
H	1.422811	-0.984238	-1.984579
C	-1.845962	-0.098951	-1.679793
N	-3.008766	-0.174361	-1.832178
C	-0.466442	-1.228586	0.620387
N	-0.836272	-2.220488	1.13383
C	-0.497416	1.23406	0.744018
H	-0.13302	1.199226	1.772765
H	-0.077681	2.121602	0.269856
H	-1.589502	1.30659	0.755245
H	2.753176	0.0	0.0
