17

C	-0.482225	0.048255	-1.448687
C	0.0	0.0	0.0
F	-0.020856	-1.085824	-2.109874
H	1.096166	0.0	0.0
C	-1.995883	0.065948	-1.614508
H	-2.246067	0.028895	-2.677206
H	-2.414318	-0.811288	-1.116624
H	-2.427281	0.969854	-1.181028
C	0.07898	1.230441	-2.139258
N	0.398688	2.194353	-2.728667
C	-0.5003	-1.210384	0.626505
N	-0.91295	-2.169043	1.169743
C	-0.391219	1.236957	0.808148
H	-0.02664	2.134075	0.300555
H	0.121665	1.186148	1.771384
H	-1.467106	1.326936	0.983821
H	2.692122	0.0	0.0
