17

C	-0.489977	0.023017	-1.445624
C	0.0	0.0	0.0
F	-0.01732	-1.114969	-2.094822
H	1.096108	0.0	0.0
C	-2.005012	0.020388	-1.607506
H	-2.258712	-0.037332	-2.668718
H	-2.444006	0.926316	-1.18703
H	-2.412216	-0.852724	-1.094083
C	0.069811	1.20072	-2.146159
N	0.479171	2.170333	-2.666434
C	-0.493045	-1.204054	0.646158
N	-0.904706	-2.166973	1.182469
C	-0.393997	1.246995	0.792404
H	0.108721	1.202992	1.760888
H	-0.01968	2.135639	0.278291
H	-1.471356	1.342697	0.955083
H	2.696425	0.0	0.0
