17

C	-0.485058	0.015891	-1.448896
C	0.0	0.0	0.0
F	0.002006	-1.120276	-2.094679
H	1.096169	0.0	0.0
C	-1.999193	-0.00275	-1.616773
H	-2.395524	-0.884659	-1.110579
H	-2.247885	-0.05608	-2.678304
H	-2.450078	0.893976	-1.190858
C	0.063608	1.196652	-2.151675
N	0.456924	2.171136	-2.67625
C	-0.489973	-1.20205	0.650865
N	-0.904668	-2.161698	1.18639
C	-0.393293	1.252338	0.787535
H	-1.471322	1.356139	0.935908
H	0.093692	1.201411	1.763295
H	-0.003866	2.137046	0.280437
H	2.696583	0.0	0.0
