17

C	-0.380398	-0.009613	-1.484447
C	0.0	0.0	0.0
F	0.000829	1.218227	-2.02964
H	1.09698	0.0	0.0
C	0.360887	-1.103313	-2.226494
H	0.024155	-2.086961	-1.894402
H	1.421986	-0.983649	-1.985064
H	0.189897	-1.003623	-3.300806
C	-1.846071	-0.09727	-1.679482
N	-3.008722	-0.172382	-1.831962
C	-0.466447	-1.228868	0.619825
N	-0.836256	-2.220943	1.132942
C	-0.497234	1.233662	0.744835
H	-0.132563	1.198516	1.773475
H	-0.077844	2.121517	0.270987
H	-1.589342	1.305963	0.756434
H	2.753356	0.0	0.0
