17

C	-0.47426	0.035196	-1.451227
C	0.0	0.0	0.0
F	0.010321	-1.094311	-2.105166
H	1.096156	0.0	0.0
C	-1.986018	0.028145	-1.630182
H	-2.226675	-0.013706	-2.694954
H	-2.394164	-0.855434	-1.135543
H	-2.435722	0.92479	-1.201015
C	0.076458	1.223933	-2.14001
N	0.384586	2.193837	-2.726258
C	-0.497911	-1.207754	0.633739
N	-0.901726	-2.174814	1.169005
C	-0.395027	1.244499	0.796115
H	-0.005416	2.13389	0.294579
H	-1.473878	1.349134	0.943132
H	0.091563	1.190061	1.772538
H	2.692215	0.0	0.0
