15

C	-0.278536	-0.025421	-1.498855
C	0.0	0.0	0.0
F	-1.62252	-0.311298	-1.756822
H	1.092605	0.0	0.0
C	-0.032649	1.255001	-2.21083
N	0.13512	2.121439	-2.987466
N	0.532603	-1.084357	-2.00333
H	1.466819	-0.990661	-1.582815
H	0.610111	-1.024386	-3.01069
C	-0.489042	-1.209249	0.624386
N	-0.840696	-2.200338	1.149271
N	-0.441171	1.189429	0.722128
O	-0.884286	1.05085	1.867
O	-0.218828	2.276718	0.17998
H	2.450538	0.0	0.0
