15

C	-0.259834	0.014629	-1.505521
C	0.0	0.0	0.0
F	-1.622206	-0.034147	-1.762025
H	1.092453	0.0	0.0
C	0.281603	1.21917	-2.174314
N	0.716761	2.102601	-2.811526
N	0.355021	-1.126091	-2.134813
H	-0.020607	-1.964904	-1.700749
H	1.349862	-1.080567	-1.899644
C	-0.464701	-1.234645	0.586227
N	-0.755378	-2.295229	1.005075
N	-0.466809	1.148644	0.759135
O	-0.507413	2.236235	0.172758
O	-0.676767	0.989511	1.967563
H	2.415406	0.0	0.0
