15

C	-0.403834	0.029434	-1.465851
C	0.0	0.0	0.0
F	-1.748924	0.469565	-1.574101
H	1.091654	0.0	0.0
C	0.385859	0.987411	-2.269559
N	0.947814	1.670084	-3.041857
N	-0.232056	-1.256311	-2.029045
H	-0.791962	-1.944095	-1.541489
H	-0.453905	-1.249664	-3.015593
C	-0.500984	-1.170972	0.671595
N	-0.849215	-2.189942	1.148592
N	-0.351461	1.210636	0.703377
O	-0.561984	1.138155	1.923143
O	-0.240942	2.267599	0.065735
H	2.350009	0.0	0.0
