15

C	-0.45172	-0.0315	-1.461147
C	0.0	0.0	0.0
F	-0.076555	1.212982	-1.998272
H	1.090983	0.0	0.0
C	0.304297	-1.0588	-2.214184
N	0.778468	-1.892535	-2.890887
N	-1.834427	-0.288448	-1.630928
H	-2.092649	-0.202088	-2.605592
H	-2.369976	0.34874	-1.053567
C	-0.527094	-1.108033	0.762922
N	-0.883652	-2.013028	1.424683
N	-0.483401	1.287351	0.615374
O	-1.701758	1.505919	0.591046
O	0.35107	2.036422	1.102285
H	2.566353	0.0	0.0
