15

C	-0.462328	-0.026571	-1.457068
C	0.0	0.0	0.0
F	-0.077205	1.212792	-1.997743
H	1.091021	0.0	0.0
C	0.278108	-1.063497	-2.211289
N	0.752561	-1.904775	-2.879053
N	-1.849123	-0.267497	-1.615427
H	-2.373125	0.372586	-1.030738
H	-2.115356	-0.174673	-2.587562
C	-0.528532	-1.108426	0.762088
N	-0.889207	-2.013876	1.421133
N	-0.478265	1.284405	0.625805
O	-1.698849	1.488459	0.638729
O	0.360331	2.044049	1.086278
H	2.567567	0.0	0.0
