15

C	0.0	0.0	0.0
C	-0.381253	0.063258	-1.513272
Cl	1.832545	0.0	0.0
H	0.4602	0.533235	-2.029562
C	-0.30601	1.306235	0.631251
N	-0.461375	2.293529	1.250961
N	-0.588546	-1.115659	0.651402
H	-0.411024	-1.050523	1.650042
H	-1.616482	-0.974316	0.508511
N	-1.552025	0.885845	-1.720093
H	-1.847919	0.800935	-2.688052
H	-2.330094	0.534993	-1.089473
C	-0.448503	-1.320163	-2.046297
N	-0.509468	-2.355553	-2.599547
H	-3.170135	0.0	0.0
