15

C	0.0	0.0	0.0
C	-0.37291	0.042605	-1.541033
Cl	1.787283	0.0	0.0
H	0.415326	0.644012	-2.004846
C	-0.34469	1.329414	0.561515
N	-0.55298	2.389489	1.026179
N	-0.60657	-1.10401	0.657175
H	-0.420356	-1.048325	1.655267
H	-1.633074	-0.945988	0.522134
N	-1.644272	0.595851	-1.92499
H	-2.384322	0.282463	-1.237165
H	-1.586752	1.603929	-1.814482
C	-0.208927	-1.321626	-2.077347
N	-0.051738	-2.373915	-2.573856
H	-3.17675	0.0	0.0
