15

C	0.0	0.0	0.0
C	-0.400127	0.037332	-1.512535
Cl	1.787507	0.0	0.0
H	0.437637	0.497899	-2.045382
C	-0.328357	1.313313	0.611364
N	-0.486048	2.314928	1.207291
N	-0.592634	-1.11076	0.668009
H	-0.40476	-1.038584	1.664842
H	-1.618634	-0.966372	0.53442
N	-1.571037	0.856966	-1.72519
H	-1.872736	0.756012	-2.689308
H	-2.346599	0.51617	-1.085729
C	-0.470421	-1.354756	-2.024386
N	-0.529564	-2.386782	-2.584892
H	-3.196104	0.0	0.0
