15

C	0.0	0.0	0.0
C	-0.541535	-0.040552	-1.430851
Cl	1.812693	0.0	0.0
H	-1.649102	0.023412	-1.214489
C	-0.320706	1.332226	0.579566
N	-0.503476	2.37035	1.101552
N	-0.545518	-1.085625	0.735971
H	-0.365752	-0.926866	1.723881
H	-1.58124	-0.954818	0.58868
N	-0.239703	-1.294913	-2.090395
H	0.715986	-1.294516	-2.427212
H	-0.863033	-1.408897	-2.879872
C	-0.115958	1.13811	-2.197511
N	0.216167	2.020907	-2.901035
H	-2.925756	0.0	0.0
