17

C	-0.628465	0.083875	-1.374685
C	0.0	0.0	0.0
Cl	-0.067268	1.585915	-2.286081
H	1.095656	0.0	0.0
H	-1.703443	0.297046	-1.258195
N	-0.39707	-1.053552	-2.221764
H	-1.156202	-1.176908	-2.887935
H	-0.27554	-1.880479	-1.65671
C	-0.425568	-1.295194	0.692961
H	-1.510319	-1.496299	0.672941
H	-0.117478	-1.242909	1.73907
H	0.101092	-2.156987	0.277252
C	-0.428938	1.191711	0.843943
H	0.108951	1.148171	1.788133
H	-1.507636	1.217531	1.06963
H	-0.147085	2.127806	0.360334
F	2.676351	0.0	0.0
