17

C	-0.481841	0.023922	-1.439097
C	0.0	0.0	0.0
Cl	-0.048616	-1.513602	-2.287502
H	1.096095	0.0	0.0
H	0.081878	0.795213	-1.969627
N	-1.902196	0.255696	-1.689579
H	-2.43324	-0.396094	-1.120566
H	-2.11638	1.188408	-1.351096
C	-0.518277	-1.165915	0.824701
H	-0.192925	-2.118865	0.404464
H	-1.61503	-1.182929	0.922806
H	-0.099066	-1.095912	1.832314
C	-0.366446	1.330904	0.657032
H	-1.437996	1.441859	0.879649
H	-0.050081	2.172786	0.030614
H	0.189824	1.415255	1.593956
F	2.687829	0.0	0.0
