15

C	0.0	0.0	0.0
C	-0.514844	0.410328	-1.380546
Br	1.952861	0.0	0.0
H	-1.605892	0.280402	-1.303277
H	-0.270303	0.790908	0.70873
N	-0.487296	-1.309008	0.322469
H	-1.508826	-1.240513	0.25825
H	-0.258378	-1.527588	1.28576
C	-0.019662	-0.481807	-2.427788
N	0.344627	-1.144668	-3.326318
C	-0.230237	1.870849	-1.725131
H	-0.682032	2.123098	-2.686246
H	0.842412	2.067686	-1.778604
H	-0.678868	2.511174	-0.962319
Cl	-3.557168	0.0	0.0
