15

C	0.0	0.0	0.0
C	-0.401654	0.471731	-1.445536
Br	1.957055	0.0	0.0
H	0.52906	0.70812	-1.967713
H	-0.249936	0.782192	0.722178
N	-0.520785	-1.294889	0.308022
H	-0.313957	-1.507611	1.278582
H	-1.540177	-1.174638	0.240772
C	-1.112211	1.755314	-1.414209
N	-1.53711	2.847527	-1.507061
C	-1.1239	-0.572618	-2.300382
H	-0.571641	-1.510695	-2.282469
H	-1.179287	-0.207705	-3.329567
H	-2.132063	-0.729752	-1.927078
Cl	-3.504633	0.0	0.0
