15

C	0.0	0.0	0.0
C	-0.514507	0.401515	-1.383631
Br	1.952936	0.0	0.0
H	-1.605688	0.271374	-1.306425
H	-0.270301	0.794844	0.703418
N	-0.486462	-1.306283	0.330525
H	-1.507953	-1.238474	0.267599
H	-0.25517	-1.519954	1.293996
C	-0.016434	-0.496588	-2.424938
N	0.350198	-1.164202	-3.319073
C	-0.230039	1.86037	-1.73414
H	-0.68054	2.112093	-2.69688
H	0.842362	2.05518	-1.789022
H	-0.677117	2.505316	-0.973502
Cl	-3.558588	0.0	0.0
