15

C	0.0	0.0	0.0
C	-0.321812	-0.120972	-1.516837
Br	1.948751	0.0	0.0
H	0.296841	-0.949364	-1.879145
H	-0.274554	0.993089	0.372733
N	-0.556939	-1.110677	0.715702
H	-1.573872	-1.043641	0.623268
H	-0.345713	-1.015395	1.702887
C	0.138596	1.089882	-2.206435
N	0.466304	2.054227	-2.791331
C	-1.773418	-0.403231	-1.896056
H	-2.090115	-1.369237	-1.505784
H	-2.471695	0.333035	-1.506785
H	-1.84587	-0.433605	-2.986736
Cl	-4.386493	0.0	0.0
