15

C	0.0	0.0	0.0
C	-0.318762	-0.407258	-1.473609
Br	1.963432	0.0	0.0
H	0.237902	-1.334828	-1.659511
H	-0.299012	1.035048	0.171925
N	-0.564869	-0.821308	1.012563
H	-1.548986	-0.575469	1.120466
H	-0.503704	-1.801479	0.762603
C	0.210476	0.594288	-2.404056
N	0.579969	1.3998	-3.175194
C	-1.797627	-0.639232	-1.762524
H	-2.19622	-1.448803	-1.154361
H	-1.923848	-0.898943	-2.817033
H	-2.41203	0.227629	-1.531362
Cl	-4.437763	0.0	0.0
