15

C	0.0	0.0	0.0
C	-0.37272	-0.032085	-1.500609
Br	1.948774	0.0	0.0
H	0.200077	-0.859511	-1.934551
H	-0.272238	0.967839	0.436699
N	-0.532132	-1.154366	0.669068
H	-0.290086	-1.114306	1.652788
H	-1.550221	-1.100797	0.609723
C	0.091335	1.201032	-2.145275
N	0.415585	2.188815	-2.691623
C	-1.857364	-0.242782	-1.793612
H	-2.173954	-1.237012	-1.482171
H	-2.028001	-0.154914	-2.86941
H	-2.506748	0.462676	-1.278572
Cl	-4.603317	0.0	0.0
