15

C	0.0	0.0	0.0
C	-0.539814	-0.178888	-1.419071
Br	2.017637	0.0	0.0
H	-1.636929	-0.161957	-1.25741
H	-0.262675	0.995131	0.356304
N	-0.503505	-0.970657	0.859057
H	-0.459602	-0.749864	1.838295
H	-0.248237	-1.921816	0.642964
C	-0.174576	-1.495971	-1.934423
N	0.128762	-2.552883	-2.348395
C	-0.140113	0.931604	-2.386181
H	0.937833	0.951271	-2.555342
H	-0.647867	0.791944	-3.342501
H	-0.458041	1.892285	-1.976292
Cl	-3.753294	0.0	0.0
