15

C	0.0	0.0	0.0
C	-0.275964	-0.748373	-1.356202
Br	1.962679	0.0	0.0
H	0.374857	-1.630692	-1.347057
H	-0.302544	1.044237	-0.082883
N	-0.573702	-0.561565	1.169831
H	-0.470015	-1.568461	1.181936
H	-1.569871	-0.33345	1.176755
C	0.172988	0.089174	-2.472073
N	0.463745	0.758924	-3.393318
C	-1.703501	-1.218146	-1.614821
H	-2.042376	-1.876083	-0.816129
H	-2.422223	-0.406176	-1.658924
H	-1.709246	-1.777563	-2.554462
Cl	-4.203847	0.0	0.0
