15

C	0.0	0.0	0.0
C	-0.498696	-0.25697	-1.435424
Br	1.957523	0.0	0.0
H	-1.59425	-0.270824	-1.310512
H	-0.302902	1.010911	0.277295
N	-0.480864	-0.909708	0.994207
H	-0.315845	-1.86324	0.686081
H	-1.493998	-0.763247	1.032484
C	-0.080907	-1.579078	-1.896498
N	0.25646	-2.640169	-2.271759
C	-0.126897	0.831733	-2.439654
H	-0.627288	0.650181	-3.393308
H	0.950543	0.874186	-2.606332
H	-0.468436	1.79717	-2.05864
Cl	-3.539191	0.0	0.0
