18

C	-0.417749	0.010536	-1.472827
C	0.0	0.0	0.0
Br	-0.01738	-1.739166	-2.229556
H	1.091202	0.0	0.0
N	-1.920787	0.158738	-1.638416
O	-2.324218	0.693215	-2.6639
O	-2.635035	-0.302484	-0.751539
C	0.328996	1.051451	-2.273383
H	1.393525	0.921266	-2.065329
H	0.135577	0.930596	-3.337043
H	0.012313	2.046021	-1.965873
N	-0.419127	-1.110136	0.778882
H	-1.396902	-1.068004	1.024334
H	0.173823	-1.187007	1.593014
N	-0.410767	1.321407	0.656761
O	0.01365	1.494352	1.79379
O	-1.167002	2.094824	0.061898
Br	3.419973	0.0	0.0
