18

C	-0.536113	0.014773	-1.434669
C	0.0	0.0	0.0
Br	0.278408	1.404944	-2.530963
H	1.093751	0.0	0.0
N	-0.059258	-1.245742	-2.148888
O	-0.699123	-1.657748	-3.142319
O	1.054515	-1.725167	-1.829319
C	-2.039841	0.142364	-1.513889
H	-2.49917	-0.684778	-0.970172
H	-2.323245	1.085225	-1.044767
H	-2.38053	0.143969	-2.547445
N	-0.547845	-1.167961	0.664074
H	-0.105137	-1.247329	1.574415
H	-0.264662	-1.990158	0.143744
N	-0.355392	1.203593	0.792919
O	-0.03842	2.338967	0.355398
O	-0.638636	1.026319	2.006878
Br	2.703755	0.0	0.0
