18

C	-0.45146	0.005138	-1.460398
C	0.0	0.0	0.0
Br	-2.345471	0.445083	-1.592114
H	1.093494	0.0	0.0
N	0.36388	1.003695	-2.299737
O	-0.193447	1.831821	-3.004319
O	1.570487	0.834648	-2.223042
C	-0.211911	-1.349791	-2.109257
H	-0.809812	-2.099938	-1.595943
H	0.847382	-1.604736	-2.023143
H	-0.48964	-1.314156	-3.165673
N	-0.558259	-1.094366	0.717576
H	0.166743	-1.587883	1.224542
H	-1.248915	-0.757434	1.379091
N	-0.369174	1.326006	0.61341
O	0.032785	2.327281	0.01994
O	-0.984668	1.33697	1.68325
Br	2.734802	0.0	0.0
