18

C	-0.473638	-0.001214	-1.458996
C	0.0	0.0	0.0
Br	0.348645	-1.54737	-2.299041
H	1.090252	0.0	0.0
N	-1.993602	-0.182467	-1.480754
O	-2.589309	0.417244	-0.585664
O	-2.524991	-0.80808	-2.388215
C	-0.165255	1.220098	-2.310438
H	-0.721067	2.084793	-1.946186
H	-0.438941	1.008095	-3.34591
H	0.904814	1.427976	-2.242895
N	-0.482833	-1.142256	0.701615
H	0.242192	-1.465451	1.329587
H	-1.302468	-0.89848	1.242688
N	-0.347354	1.302201	0.728021
O	-0.950158	1.221045	1.793473
O	0.056499	2.347884	0.23343
Br	3.398435	0.0	0.0
