13

C	-0.007367	0.015083	0.005955
C	-0.50335	0.087041	-1.451915
Br	2.003666	-0.067229	-0.007365
H	-0.148367	0.987741	-1.95941
H	-1.608384	0.103713	-1.27367
C	-0.331209	1.29409	0.65375
N	-0.526051	2.337098	1.157253
N	-0.534739	-1.060117	0.775658
H	-0.300245	-1.926713	0.297954
H	-1.578806	-0.878891	0.648576
C	-0.128693	-1.095976	-2.208875
N	0.153379	-2.058461	-2.820991
F	-2.784016	-0.153695	-0.031641
