16

C	-0.524019	0.062089	-1.424362
C	0.0	0.0	0.0
F	-1.891095	0.092921	-1.438031
H	1.095185	0.0	0.0
C	-0.027955	1.229224	-2.159886
N	0.328951	2.19831	-2.717488
N	-0.11101	-1.194282	-2.203531
O	0.977214	-1.150292	-2.756579
O	-0.902107	-2.126746	-2.166025
C	-0.496081	-1.208191	0.654303
N	-0.916305	-2.146059	1.223798
C	-0.427212	1.247781	0.784093
H	-0.02502	1.169708	1.795303
H	0.010301	2.135026	0.323739
H	-1.513483	1.349489	0.832801
Br	3.369232	0.0	0.0
