16

C	-0.389158	0.181727	-1.465337
C	0.0	0.0	0.0
F	-0.033476	1.418628	-1.884324
H	1.097264	0.0	0.0
C	0.184369	-0.831323	-2.354826
N	0.641626	-1.635944	-3.077814
N	-1.921079	0.10326	-1.606079
O	-2.534463	1.144908	-1.401565
O	-2.395512	-1.003117	-1.834834
C	-0.468454	-1.29427	0.482773
N	-0.868595	-2.309111	0.918997
C	-0.472694	1.144988	0.896571
H	-0.149668	2.09445	0.47178
H	-1.55545	1.154181	1.033672
H	0.014785	1.025346	1.86552
Br	3.360158	0.0	0.0
