16

C	-0.377353	0.007677	-1.472294
C	0.0	0.0	0.0
F	-0.092894	1.220078	-2.029314
H	1.097474	0.0	0.0
C	0.296094	-1.055826	-2.228273
N	0.819362	-1.909345	-2.844013
N	-1.895557	-0.160586	-1.716878
O	-2.64101	0.358701	-0.895185
O	-2.238378	-0.727319	-2.749184
C	-0.479337	-1.239647	0.596872
N	-0.891914	-2.225521	1.085296
C	-0.404904	1.238337	0.80485
H	-0.090181	2.131604	0.265206
H	0.153557	1.207904	1.742155
H	-1.471977	1.28372	1.009047
Br	3.357313	0.0	0.0
