15

C	-0.554096	0.057525	-1.408291
C	0.0	0.0	0.0
F	-1.969681	0.272749	-1.32621
H	1.093585	0.0	0.0
C	-0.047696	1.248163	-2.120588
N	0.329226	2.160412	-2.754687
N	-0.268347	-1.103011	-2.161288
H	-0.787012	-1.108592	-3.029519
H	-0.461502	-1.936737	-1.624051
C	-0.486889	-1.212125	0.650131
N	-0.875753	-2.19126	1.176038
N	-0.355338	1.225733	0.708201
H	0.424841	1.454039	1.311287
H	-1.200707	1.132631	1.254393
F	2.518423	0.0	0.0
