15

C	-0.546225	0.045943	-1.430642
C	0.0	0.0	0.0
F	0.026233	1.161616	-2.02306
H	1.098836	0.0	0.0
C	-0.130672	-1.144435	-2.202444
N	0.143879	-2.100207	-2.826187
N	-1.97668	0.205608	-1.540374
H	-2.421154	-0.681673	-1.340383
H	-2.218278	0.858994	-0.797215
C	-0.548754	-1.165143	0.666959
N	-1.010695	-2.100006	1.21244
N	-0.479177	1.245457	0.655821
H	-0.542514	1.07047	1.65271
H	0.294177	1.896958	0.539381
F	2.53742	0.0	0.0
