15

C	-0.075251	-0.145852	-1.536004
C	0.0	0.0	0.0
F	-1.336456	-0.562234	-1.969466
H	1.096335	0.0	0.0
C	0.141485	1.1955	-2.133872
N	0.268884	2.26341	-2.604182
N	0.921269	-1.054999	-2.036931
H	0.65505	-1.980804	-1.710525
H	1.781892	-0.796797	-1.515149
C	-0.505555	-1.227133	0.60386
N	-0.910387	-2.224924	1.075876
N	-0.56214	1.184757	0.615278
H	-1.4136	1.477393	0.15089
H	0.120159	1.928027	0.545077
F	2.608521	0.0	0.0
