15

C	-0.158963	-0.326456	-1.499487
C	0.0	0.0	0.0
F	-0.096098	-1.710386	-1.633125
H	1.103094	0.0	0.0
C	-1.480155	0.096409	-2.022846
N	-2.539178	0.435985	-2.399745
N	0.904435	0.247175	-2.263086
H	1.744621	0.193734	-1.656039
H	0.699748	1.225668	-2.423677
C	-0.627185	-0.963536	0.888272
N	-1.165344	-1.691484	1.640147
N	-0.393745	1.388198	0.216319
H	0.243756	1.798271	0.886647
H	-1.339646	1.461524	0.5711
F	2.605987	0.0	0.0
