15

C	-0.551768	0.074121	-1.429285
C	0.0	0.0	0.0
F	0.10945	1.113194	-2.05521
H	1.098845	0.0	0.0
C	-0.26794	-1.169193	-2.181311
N	-0.067896	-2.150838	-2.793259
N	-1.962306	0.368246	-1.53108
H	-2.121202	1.094454	-0.834452
H	-2.492299	-0.453041	-1.260669
C	-0.552597	-1.166411	0.661279
N	-1.037398	-2.08691	1.212686
N	-0.408868	1.249083	0.682059
H	-0.852914	1.040852	1.567345
H	0.462811	1.729797	0.883971
F	2.530044	0.0	0.0
