15

C	-0.414544	0.05207	-1.462024
C	0.0	0.0	0.0
F	-1.778139	0.523035	-1.543354
H	1.094452	0.0	0.0
C	0.35252	1.098144	-2.171539
N	0.890626	1.941916	-2.784168
N	-0.274629	-1.179253	-2.129465
H	-0.715401	-1.924657	-1.605602
H	-0.645691	-1.131066	-3.068652
C	-0.574334	-1.186661	0.617514
N	-1.018794	-2.181565	1.061938
N	-0.350562	1.207435	0.736814
H	0.466185	1.80559	0.718603
H	-1.142335	1.683226	0.325138
F	2.513203	0.0	0.0
