15

C	-0.376712	-0.166212	-1.473852
C	0.0	0.0	0.0
F	-0.009937	0.991079	-2.148357
H	1.103133	0.0	0.0
C	0.38798	-1.268986	-2.111949
N	0.859802	-2.178355	-2.686283
N	-1.800346	-0.306572	-1.660113
H	-2.141003	-1.056007	-1.069476
H	-2.005328	-0.541374	-2.623975
C	-0.515663	-1.146639	0.73507
N	-0.94777	-2.089046	1.292407
N	-0.468823	1.254548	0.564206
H	0.257241	1.934727	0.378092
H	-1.321815	1.55321	0.10334
F	2.523985	0.0	0.0
