13
Coordinates from ORCA-job run
  C   -0.61154959211592      0.30193183513160      0.23796088382647
  C   0.64787316078300     -0.53779166420183      0.49743724761183
  Br  -1.52986225796784      0.42372604881158      2.06913794258162
  H   0.31059492756357     -1.53359578156473      0.80040019779640
  H   1.16482174212483     -0.09352605793573      1.35647057788437
  C   -0.25113455346434      1.68454414797609     -0.07733808795619
  N   0.09391661949925      2.77365239835844     -0.35261882181759
  N   -1.43008026669431     -0.22964268181664     -0.76490945677374
  H   -1.60038867661276     -1.21866554518978     -0.64678511961554
  H   -2.29278656671001      0.27960059640405     -0.89738467955148
  N   1.43732709152690     -0.64882307218183     -0.71630836491855
  H   2.10317196506866     -1.40467414845054     -0.62456339483104
  H   1.95809640699897      0.20426392465933     -0.87949892423656
