13
Coordinates from ORCA-job run
  C   -0.57923821221923      0.31796862785366      0.25430850427757
  C   0.71685788569701     -0.42236103744393      0.58290157033784
  Br  -1.61112673056305      0.45543494565695      1.99814280660485
  H   0.43255633314289     -1.42772158916457      0.93293434011324
  H   1.21186076014149      0.08741524372526      1.41053593164981
  C   -0.32234881255855      1.69753807807136     -0.15515088332838
  N   -0.14504893211049      2.81314310715278     -0.47643886594996
  N   -1.29430573486041     -0.36868433882116     -0.75803289875195
  H   -2.10591542841529      0.14517618010982     -1.07688399316402
  H   -1.58002991720021     -1.28679533866294     -0.43816043559895
  N   1.56842848675852     -0.37480917445869     -0.58872671940821
  H   2.50814840817300     -0.67099352943791     -0.36256525101242
  H   1.19916189401431     -0.96431117458063     -1.32186410576941
