13
Coordinates from ORCA-job run
  C   -0.51885550963471      0.45318450498200      0.12633586719698
  C   0.94405837164672      0.01264061864538      0.00214077642351
  Br  -1.08191782150292     -0.04586523955536      2.05032765044243
  H   1.52425713784690      0.48896636993281      0.79901270540179
  H   1.29211672377159      0.39543950271400     -0.96176614389145
  C   -0.64381606598366      1.90727080803876      0.09742616115516
  N   -0.70720989877259      3.07936535348973      0.04266369761747
  N   -1.29188494825767     -0.15910570757046     -0.86169271859969
  H   -2.28291114245350      0.02074841140066     -0.78303394372562
  H   -1.07489012198130     -1.14924428047858     -0.89620496612357
  N   0.99592181651755     -1.44037063048363     -0.02066855778587
  H   1.81728254328348     -1.75728147404300     -0.51677827822670
  H   1.02884891552011     -1.80574823707229      0.92223775011556
