13
Coordinates from ORCA-job run
  C   -0.51257560805971      0.31040087172821      0.30081563865776
  C   0.97835464786094      0.04995000464552      0.07871317057168
  Br  -1.03586621812198     -0.18042895792982      2.11808298844956
  H   1.54946214555571      0.66931202727125      0.77435362723892
  H   1.18951045945693      0.41801575350009     -0.94204705652829
  C   -0.78298669922899      1.75044975115219      0.16282141361517
  N   -0.99169934294328      2.89197223252663     -0.02785725012401
  N   -1.27764282590101     -0.51099343051233     -0.62036528043272
  H   -2.26662109661057     -0.45941575774170     -0.40488244348698
  H   -1.14206693287111     -0.15893009093345     -1.56417504509035
  N   1.28239497838240     -1.34567311173465      0.30476379472714
  H   2.26730784179506     -1.51695884969883      0.15264093294014
  H   0.74342865068560     -1.91770044227310     -0.33186449053803
