13
Coordinates from ORCA-job run
  C   -0.69165243740640      0.33500312384388      0.34497589968080
  C   0.59795598534489     -0.48068413614280      0.55152812987050
  Br  -1.65468255675719      0.37619954397206      2.05031987265605
  H   0.29512533944266     -1.49282878893570      0.83250855012258
  H   1.17269059240550     -0.05286185224996      1.38211649166350
  C   -0.31357723585067      1.71202342018031      0.00542714168924
  N   0.07510496279006      2.78146979036014     -0.28710617709524
  N   -1.58178031879536     -0.17454868551674     -0.67156607251241
  H   -1.96101264187848     -1.06317050029769     -0.36127577152002
  H   -1.00829586847982     -0.34188131882260     -1.49546233758984
  N   1.29878376576839     -0.51718290182202     -0.72551565265903
  H   1.91955186642597      0.27722680922114     -0.81637417321839
  H   1.85178854699044     -1.35876450379000     -0.81157590108774
