13
Coordinates from ORCA-job run
  C   -0.67157847886303      0.21271213386143      0.40457428831410
  C   0.68003883100197     -0.49133106294514      0.57358582537434
  Br  -1.57102183789521      0.24703560690097      2.15160325817654
  H   0.45530318453407     -1.50890525501284      0.89925632370645
  H   1.24819452978649      0.01335130073543      1.36295110826897
  C   -0.44071887578204      1.61783023292797      0.02672526978615
  N   -0.22206929977986      2.71233992982424     -0.34433107406122
  N   -1.46726538831301     -0.52850050872538     -0.52725776097032
  H   -0.88257052674945     -0.70676129996141     -1.33925821304839
  H   -2.29782729208270     -0.01760727889511     -0.79988090957829
  N   1.33450624392812     -0.52810113972353     -0.72865792867057
  H   1.94627355281681     -1.32934893190840     -0.80068589892092
  H   1.88773535739783      0.30628627292176     -0.87762428837683
