13
Coordinates from ORCA-job run
  C   -0.64617858400251      0.29275685962998      0.24598182785405
  C   0.51577641574614     -0.67129667640159     -0.05868641317094
  Br  -0.89420128666626      0.37333151983207      2.18983239818174
  H   0.26036843126544     -1.63126466884255      0.39851650838775
  H   0.50428783912335     -0.80934808311846     -1.15217399383978
  C   -0.27337096326498      1.63173281886753     -0.21900213630308
  N   0.07489080805120      2.66118798494970     -0.66546380456733
  N   -1.91555285811180     -0.07219142046754     -0.33900772513833
  H   -2.17495600861259     -1.00698898485711     -0.04436464574678
  H   -1.85293427098867     -0.04332977080132     -1.35140804948966
  N   1.77155953791291     -0.18754964456176      0.46986260023936
  H   2.38683028166367     -0.94698599467205      0.72141671777697
  H   2.24548065788410      0.40994606044312     -0.19350328418398
