13
Coordinates from ORCA-job run
  C   -0.62334178725401      0.16727010337185      0.24561851484164
  C   0.59566895275073     -0.72060847696815     -0.02776558542622
  Br  -0.92340884326103      0.30392803744105      2.17067923101202
  H   0.40051172287625     -1.67078562771901      0.47220318855671
  H   0.59949960065890     -0.91110269149909     -1.11335926981747
  C   -0.34684422049562      1.52978957119120     -0.24031699921841
  N   -0.11831044883717      2.57843726900498     -0.72126350605060
  N   -1.79633335334995     -0.44330186292112     -0.33930149034710
  H   -2.62595673583770      0.09433714142315     -0.11600229277767
  H   -1.69438992843397     -0.46695956378562     -1.34944707478613
  N   1.81050184655662     -0.11478956635963      0.47220023934941
  H   2.24998871615295      0.46824433324357     -0.22655123075615
  H   2.47241447847399     -0.81445866642318      0.77330627541998
