13
Coordinates from ORCA-job run
  C   -0.53555007547060      0.44788744025163      0.05974530990026
  C   0.92803478085973      0.00619601962193      0.17333727345233
  Br  -1.43384281102098     -0.16785735986818      1.81490852216434
  H   1.35274247942318      0.42638301866595      1.09071632288374
  H   1.44239534688475      0.44730516405205     -0.68551005146412
  C   -0.66065912180370      1.90167357720966      0.10106639027561
  N   -0.71956264113695      3.07526378911126      0.11005934929112
  N   -1.11425533844244     -0.09532400770363     -1.08854986228948
  H   -2.10383247527314      0.08577873138223     -1.18010675014466
  H   -0.88877875140844     -1.08238720454158     -1.14699763738005
  N   0.98994610996066     -1.44272257273736      0.06742605311416
  H   0.85404147871338     -1.86779321697340      0.97539649858074
  H   1.88832101871455     -1.73340337847055     -0.29249141838399
