13
Coordinates from ORCA-job run
  C   -0.52157506793997      0.45708076770523      0.09613789527462
  C   0.94272126330679      0.00608367137980      0.05761116053684
  Br  -1.20063569283347     -0.03858612943245      1.98383329472953
  H   1.34996850477246      0.38764982905847     -0.88325894931682
  H   1.47855614787917      0.47678788971900      0.88821652926338
  C   -0.63556914852947      1.91185621783144      0.06196585447303
  N   -0.68943664356897      3.08433603593994      0.00515437150304
  N   -1.23964434055650     -0.14911241592827     -0.93601755856459
  H   -2.23206885804595      0.03862740183743     -0.91659500541503
  H   -1.02849039954560     -1.14084542842215     -0.95896065848834
  N   0.98515428470343     -1.44720663557622      0.03589500586555
  H   0.96077944293017     -1.81370704748763      0.97855352903748
  H   1.83124050742791     -1.76996415662459     -0.41253546889870
