13
Coordinates from ORCA-job run
  C   -0.58453243973818      0.20874155293468      0.19342997775616
  C   0.61925034888141     -0.69511009273624     -0.06941921389047
  Br  -0.71413164815605      0.53924276086340      2.12790032178261
  H   0.62561827797431     -0.89759215286038     -1.14713180718212
  H   0.41437619228863     -1.63995124967384      0.44991846275683
  C   -0.39281444344869      1.52088584131614     -0.44291099639874
  N   -0.32621407382595      2.53538582630513     -1.03332638486736
  N   -1.79463017592663     -0.47087918821368     -0.20642210487132
  H   -2.60718202446743      0.09916237945134     -0.00018210348030
  H   -1.76722225415162     -0.63212188484526     -1.20900585531213
  N   1.85569774831987     -0.02678109677920      0.28140814714390
  H   2.03568341821526     -0.10878040436539      1.27312985130178
  H   2.63510107403508     -0.43120229139671     -0.21838829473884
