13
Coordinates from ORCA-job run
  C   -0.50879442616571      0.46108723733946      0.13941794006108
  C   0.94255158184650      0.00598852779595     -0.05074779533607
  Br  -0.96662353188638      0.03348133608634      2.10742446492451
  H   1.23833639707087      0.35271653683767     -1.04524512730964
  H   1.56916448796469      0.50495864537692      0.69552950493893
  C   -0.62719631650395      1.91421455728382      0.06627037312295
  N   -0.68706508889159      3.08414729884296     -0.02608203524192
  N   -1.33873915438626     -0.17940504668712     -0.78257169401391
  H   -2.32289749927424      0.01005613550814     -0.65577555746898
  H   -1.12910638333997     -1.17168426463746     -0.79440403153896
  N   0.98542033814607     -1.44733928381998     -0.02562609239944
  H   1.77600641976056     -1.78725170470385     -0.55539679121418
  H   1.06894317565942     -1.77996997522285      0.92620684147562
