13
Coordinates from ORCA-job run
  C   -0.43810423878570      0.45492959719219      0.11031611042346
  C   1.03188682594173     -0.01716740745898      0.17770736006395
  Br  -1.28691751103606     -0.04492952874789      1.90162522991496
  H   1.48640043848153      0.42219896807352      1.06738551824000
  H   1.52352196681167      0.40921606089153     -0.70204431015922
  C   -0.50822749537634      1.91190950043641      0.06104138363532
  N   -0.54798431611648      3.08407466249790     -0.01447202807789
  N   -1.11047751118019     -0.10928270890260     -0.99253526547562
  H   -2.06288501201052      0.22029226521999     -1.08210510373640
  H   -1.10399544665754     -1.11972882439462     -0.93940518754913
  N   1.24501405809554     -1.44121241954218      0.18065579596201
  H   1.01911041211339     -1.87193850256749     -0.70415182460291
  H   0.75265782971896     -1.89836166269779      0.93598232136148
