13
Coordinates from ORCA-job run
  C   -0.60584485873387      0.19698662112607      0.26236982824402
  C   0.62082017802578     -0.69853768355298      0.05933770878796
  Br  -0.75210305302030      0.70025826598655      2.14446482938730
  H   0.50669692398906     -1.53630873292156      0.74929856600556
  H   0.54389776485891     -1.09926623839888     -0.96446377418296
  C   -0.42606342124083      1.44497709408887     -0.49856869797308
  N   -0.29692410093399      2.38610758444154     -1.19192854066772
  N   -1.79799993550064     -0.54208053813133     -0.08816082788323
  H   -1.77725227624436     -0.76212175888626     -1.07938221764448
  H   -2.62680408111523      0.01092666408996      0.09746838268408
  N   1.84716688873251      0.02267954139012      0.32246576515160
  H   2.20647283790772      0.46278718835434     -0.51326388985046
  H   2.55793713327525     -0.58640800758645      0.69936286794141
