13
Coordinates from ORCA-job run
  C   -0.55265702520628      0.22488282936297      0.03460637429511
  C   0.60387405684834     -0.79824420202572      0.10009146488708
  Br  -0.52007715527605      1.25874732829175      1.79433881207892
  H   0.53282253388099     -1.37143616129258     -0.82957564168247
  H   0.38256059298783     -1.47663144092339      0.93045231941623
  C   -0.28558195315726      1.23359632072939     -0.98774036641473
  N   -0.02471506365041      2.00545165142899     -1.83469893813490
  N   -1.78143029779271     -0.42053860756632     -0.20861418672233
  H   -2.56113346824950      0.22100055812434     -0.27406764367544
  H   -1.97416720766597     -1.12683983389062      0.49093377512761
  N   1.94129446245625     -0.29076060041012      0.24259373833136
  H   2.03734297825913      0.25366105802577      1.08941129619080
  H   2.20186754656563      0.28511110014553     -0.54773100369725
