13
Coordinates from ORCA-job run
  C   -0.64814880920503      0.28278856552327      0.25264414150515
  C   0.52757708816951     -0.66241958748059     -0.05761222172815
  Br  -0.86679564115009      0.38512940545434      2.19965434300639
  H   0.29855954540169     -1.62079357348686      0.41656380500457
  H   0.50127647490896     -0.81571842237072     -1.14887183797256
  C   -0.30906268469380      1.62233990916255     -0.23568317320192
  N   0.01330046692759      2.65212960151917     -0.70062766445924
  N   -1.91891581529330     -0.11478980534719     -0.30668145988588
  H   -1.87537218201015     -0.09298501987775     -1.32002867727574
  H   -2.15337328709776     -1.05197340310327      0.00060410655163
  N   1.78190536552694     -0.14762178841564      0.44450650807275
  H   2.41864029543816     -0.89225783261970      0.68699341763446
  H   2.22940918307729      0.45617195104239     -0.23146128725147
