13
Coordinates from ORCA-job run
  C   -0.51793938567251      0.43746133404368      0.21485190576104
  C   0.96901281403484     -0.00312927017662      0.13589066027230
  Br  -1.19804306794177     -0.08624000978641      1.99608155470970
  H   1.35178975783934      0.39352872197028     -0.81187329908042
  H   1.51854018946219      0.48638988180372      0.94364070913187
  C   -0.58222122354567      1.89669738094144      0.13354510415503
  N   -0.55852506968682      3.06622703817597      0.02048693997195
  N   -1.40704259463124     -0.12850218344999     -0.76665160737120
  H   -1.32835575433059     -1.13834643706329     -0.76858967183138
  H   -1.19299465981181      0.23722377074595     -1.68840973022769
  N   1.22720411921997     -1.41993559373722      0.17848573844680
  H   0.84321409878203     -1.90563637486604     -0.61995798498267
  H   0.87536077628203     -1.83573825860148      1.03049968104466
