13
Coordinates from ORCA-job run
  C   -0.49411492774821      0.45107986688959      0.23989718987253
  C   0.97764514595753     -0.00596365022299      0.04755103252478
  Br  -1.01283827835247      0.01529407136295      2.09747054721913
  H   1.60038423383465      0.51557135180002      0.77847147333292
  H   1.27412324057805      0.34319109034626     -0.94859844944688
  C   -0.55773077944203      1.90582360218858      0.09828158909281
  N   -0.53753765817676      3.06887240363373     -0.06931654023186
  N   -1.47087408057167     -0.15025555011813     -0.63034506304195
  H   -1.34087884007304      0.17152888110483     -1.58352252488307
  H   -1.39984268155359     -1.15987202712624     -0.59255962853554
  N   1.23207123945181     -1.42149073884601      0.13288323930507
  H   0.77190258913674     -1.94019328008545     -0.60201490007147
  H   0.95969079695898     -1.79358602092713      1.03280203486353
