13
Coordinates from ORCA-job run
  C   -0.55906968282452      0.21195027586420      0.02094353245987
  C   0.62186047925767     -0.77893848676632      0.13087209855669
  Br  -0.57944179161251      1.29303895586221      1.75178404037536
  H   0.57942426314331     -1.37909593404570     -0.78341506155198
  H   0.40627472508087     -1.43995951135701      0.97658880314056
  C   -0.30096965790909      1.19899810507664     -1.02483373848598
  N   -0.04435974773608      1.95346270761534     -1.88859067328355
  N   -1.76697265037236     -0.47107670638531     -0.22311854413304
  H   -2.56223420174680      0.14747501196483     -0.31577854030575
  H   -1.95134433812823     -1.16587023689583      0.48988434037673
  N   1.94389238264702     -0.23333603910830      0.27795873194765
  H   2.01366533078028      0.33548039618737      1.11118105649686
  H   2.20027488942042      0.32887146198788     -0.52347604559340
