13
Coordinates from ORCA-job run
  C   -0.59139258021456      0.20526893083444      0.41078637722455
  C   0.75625277176196     -0.50002916175865      0.65996990664252
  Br  -1.58011865894985      0.25963167293965      2.09858485373034
  H   1.29007796181565      0.04460422910789      1.44249199593543
  H   0.51743717656383     -1.49645873865006      1.03802455352263
  C   -0.35091965419015      1.59983510103756      0.00464030012470
  N   -0.12463577197908      2.67876505673522     -0.40599875178820
  N   -1.37953763910503     -0.54611534292621     -0.54187020470116
  H   -2.29756288571607     -0.12938396752258     -0.64925737484109
  H   -0.91727067588618     -0.51225590315601     -1.44476067490512
  N   1.60641241952084     -0.62252509368261     -0.50118350827566
  H   1.23123194019435     -1.25109418057204     -1.19628645128134
  H   1.83902559618429      0.26975739761340     -0.91614102138761
