18

C	0.0	0.0	0.0
C	-0.329414	0.263991	-1.527284
Cl	1.772088	0.0	0.0
H	0.58769	-0.067523	-2.016022
C	-0.474394	0.996648	0.949419
N	-0.618204	1.888377	1.702803
N	-0.372059	-1.397409	0.494734
O	-0.688258	-1.507164	1.669236
O	-0.208736	-2.303931	-0.310356
C	-0.454968	1.773464	-1.725507
H	0.382421	2.328303	-1.293365
H	-0.490075	1.988915	-2.79694
H	-1.386499	2.115288	-1.26999
C	-1.443514	-0.458984	-2.293465
H	-1.634823	-1.461411	-1.923852
H	-2.379487	0.083548	-2.260548
H	-1.08765	-0.533171	-3.330631
Cl	-3.290207	0.0	0.0
