19

C	-0.476263	-0.012831	-1.464226
C	0.0	0.0	0.0
Br	0.229505	1.654018	-2.299023
H	1.089828	0.0	0.0
C	0.175762	-1.162469	-2.220896
H	-0.229069	-2.110978	-1.857165
H	-0.043652	-1.077203	-3.288172
H	1.256081	-1.154637	-2.063446
N	-1.911845	0.059376	-1.550911
H	-2.323752	-0.569912	-0.870916
H	-2.21527	-0.196345	-2.482003
N	-0.421684	-1.320904	0.589836
O	-1.605361	-1.439361	0.941132
O	0.409496	-2.219586	0.668664
C	-0.553723	1.114864	0.863216
H	-0.133642	2.057416	0.518241
H	-0.232683	0.962595	1.896029
H	-1.639968	1.163552	0.82185
Cl	3.398959	0.0	0.0
