19

C	-0.485279	-0.01907	-1.458398
C	0.0	0.0	0.0
Br	0.256821	1.697902	-2.304365
H	1.089356	0.0	0.0
C	0.127194	-1.145397	-2.271973
H	1.208293	-1.16683	-2.121543
H	-0.303316	-2.094251	-1.945286
H	-0.094956	-0.999553	-3.332181
N	-1.902396	-0.039215	-1.542881
H	-2.19828	-0.023701	-2.511202
H	-2.312963	0.753289	-1.064825
N	-0.442196	-1.304735	0.613601
O	-1.49257	-1.319387	1.260736
O	0.268221	-2.29043	0.417923
C	-0.508308	1.138896	0.862377
H	-0.156914	2.084818	0.451096
H	-0.084493	1.029807	1.862887
H	-1.595436	1.145061	0.958388
Cl	3.39866	0.0	0.0
