19

C	-0.292638	-0.058622	-1.502415
C	0.0	0.0	0.0
Br	-2.310917	-0.188157	-1.806216
H	1.094752	0.0	0.0
C	0.131838	1.247374	-2.159111
H	1.194364	1.39409	-1.934285
H	-0.448742	2.101998	-1.812022
H	-0.001323	1.164527	-3.241331
N	0.315513	-1.204111	-2.079481
H	1.122499	-1.50245	-1.540962
H	0.579495	-1.029061	-3.039399
N	-0.44931	-1.258265	0.67057
O	-1.468041	-1.212348	1.363573
O	0.225765	-2.270047	0.489349
C	-0.52832	1.209558	0.73615
H	0.035432	2.088588	0.423482
H	-0.365584	1.079547	1.805998
H	-1.593356	1.362808	0.562705
Cl	3.320819	0.0	0.0
