19

C	-0.41111	0.027897	-1.469796
C	0.0	0.0	0.0
Br	-2.581463	-0.275583	-1.452388
H	1.095345	0.0	0.0
C	-0.281547	1.402509	-2.090944
H	-0.935618	2.130844	-1.618023
H	0.76603	1.706008	-1.991383
H	-0.539323	1.34902	-3.151181
N	0.205887	-0.925494	-2.236763
H	-0.072225	-0.946901	-3.204955
H	0.316223	-1.828341	-1.800885
N	-0.40825	-1.291715	0.646042
O	-0.075678	-2.33986	0.088151
O	-1.026077	-1.251955	1.706763
C	-0.47274	1.174488	0.827683
H	-1.55826	1.282169	0.810993
H	-0.145134	1.037367	1.856953
H	0.003904	2.080653	0.45314
Cl	3.288345	0.0	0.0
