12
Coordinates from ORCA-job run
  C   -0.53561234538482      0.46420611456787      0.42857609945009
  C   0.68985176386413      0.05236509077781     -0.39873205999511
  Br  -0.98009757363458      2.30968938531820      0.14339975600644
  H   0.45550261358787      0.22537043186491     -1.45474059732822
  H   -0.39507758512806      0.29665797130070      1.49527236885515
  N   -1.70845642547170     -0.38802660495793      0.00871691363629
  O   -2.46186338738361     -0.74223779075444      0.90652342442683
  O   -1.80888479125423     -0.63525224782637     -1.18755647465116
  C   0.95024741009017     -1.37869881779595     -0.19986956738003
  N   1.13105713369629     -2.52423411516005     -0.01497737067145
  C   1.86075401799594      0.84456457511896     -0.01657006997969
  N   2.80257916902259      1.47559600754630      0.28895757763087
