12
Coordinates from ORCA-job run
  C   -0.63444129208135      0.48307936306379      0.34305519198626
  C   0.76976129945085     -0.10224779131957      0.10469939473553
  Br  -1.08449794590753      1.85261776011175     -0.90126749128924
  H   0.91731326912403     -0.88288907402098      0.86134417808407
  H   -0.70025038244565      0.88445135165639      1.35468794131068
  N   -1.60630601467772     -0.69399066200625      0.31163867401261
  O   -1.37493915282738     -1.51915797287489      1.19118517315862
  O   -2.48305192041132     -0.74017111371568     -0.53334369150950
  C   1.79413104939085      0.92723544801441      0.28976656695480
  N   2.61190985761939      1.74983157654279      0.47140130446633
  C   0.86418560919010     -0.72000961215407     -1.22132360048797
  N   0.92618562357573     -1.23874927329768     -2.27284364142220
