12
Coordinates from ORCA-job run
  C   -0.67157161338165      0.64512428695656     -0.07549521495820
  C   0.81403964525013      0.31011046306520     -0.25240089588209
  Br  -1.49579615352568      1.06595509238654     -1.75832473798431
  H   1.28500031641052      1.22263609365436     -0.64061666395787
  H   -0.79466153150608      1.50405416963072      0.58430177453960
  N   -1.42510003534284     -0.48924159742451      0.58029023997054
  O   -2.47990816948679     -0.17675898530229      1.11577572411823
  O   -0.92285361058641     -1.60554921032755      0.51817113803866
  C   1.07185209882508     -0.76128427924239     -1.21900589236657
  N   1.33293527272384     -1.57079651134577     -2.02775140218235
  C   1.41224664868288      0.01721790614799      1.05540527125285
  N   1.87481713193700     -0.16146742819884      2.11965065941153
