12
Coordinates from ORCA-job run
  C   -0.54823094552716      0.35548624808073      0.50690914845396
  C   0.68742805907238      0.14763206982437     -0.37949518438156
  Br  -1.05098582054788      2.20688246957572      0.57798020320351
  H   0.44638618912870      0.51277592114068     -1.38373125609593
  H   -0.39879740625412     -0.00709057167822      1.52279247253835
  N   -1.69688492118847     -0.43612467711093     -0.06977668867728
  O   -1.77925016705733     -0.47654036931732     -1.29213563483133
  O   -2.45367985786294     -0.95035807905418      0.74402357780671
  C   0.99395424645986     -1.28582566788766     -0.45807025781872
  N   1.21355570008647     -2.43863293973981     -0.49987525098200
  C   1.83303436802765      0.88935328138044      0.15238049787083
  N   2.75247055566286      1.48244231478618      0.57799837291347
