12
Coordinates from ORCA-job run
  C   -0.61884420100987      0.69339006409391      0.09314685050159
  C   0.80364928687595      0.28601751331171     -0.30764995254703
  Br  -1.58938126287029      1.40199671810454     -1.40481526364681
  H   1.30348762282089      1.20986075616428     -0.62711139386998
  H   -0.59422861410824      1.45732160481696      0.87034770510136
  N   -1.38681211541217     -0.46775211180790      0.68230293654301
  O   -0.98972779552522     -1.59596187489310      0.41418891722943
  O   -2.34569743998295     -0.16216976678536      1.37808726848669
  C   0.86007465778616     -0.65308924845978     -1.43172745156174
  N   0.95776585928254     -1.35707908941085     -2.36577121408288
  C   1.51833466175879     -0.22822530517745      0.86656238022686
  N   2.08237934038441     -0.58530925995697      1.83243921761950
