12
Coordinates from ORCA-job run
  C   -0.56016483315076      0.34682814876238      0.49926071322684
  C   0.69031893806429      0.15969574416185     -0.37098257479543
  Br  -1.08307968253508      2.19216876412300      0.57896273036881
  H   0.46140061804833      0.53257247901108     -1.37517166428194
  H   -0.42104134464706     -0.02323862908249      1.51390716395899
  N   -1.69140001194062     -0.45225198696850     -0.10033557731258
  O   -2.44656845185963     -0.99274202076801      0.69773497427079
  O   -1.76147701503414     -0.47490204718924     -1.32390363235051
  C   1.01373067038363     -1.26980033465515     -0.45754774326604
  N   1.25281452400704     -2.41862744765984     -0.50121827300094
  C   1.81991593186633      0.90468762553862      0.18975680303102
  N   2.72555065679768      1.49460970472629      0.64853708015097
