13
Coordinates from ORCA-job run
  C   0.35322381300366     -0.11566147042627     -0.31400925913395
  C   -1.13533242080992     -0.21546012291255     -0.08309505632779
  F   0.86477377804191     -1.21971356431250     -0.85078433347608
  H   -1.49962236319618      0.72565048327538      0.33003132924381
  H   -1.62589237559452     -0.37966018279806     -1.04541831296976
  N   0.71613486720185      1.04863677028486     -1.22518516810529
  O   -0.20105676047246      1.73656622021972     -1.65535584015334
  O   1.91378720048303      1.16289592253866     -1.44685901681325
  N   1.07232435624274      0.18304238875130      0.99518613405317
  O   0.74364964591033      1.24758582568931      1.50397781586399
  O   1.86664948527142     -0.64642916948761      1.40226540792518
  C   -1.42062422783418     -1.32147283653802      0.82718235834824
  N   -1.64901499824766     -2.20698026428421      1.56206394154506
