13
Coordinates from ORCA-job run
  C   0.50500845651305     -0.15567756619534     -0.37127888791520
  C   -0.79302418572469     -0.90800865057401     -0.18575101530244
  F   1.32535012041267     -0.84887525664574     -1.16573615570503
  H   -1.28221356561874     -0.98028153234505     -1.16008478375516
  H   -0.52142398544091     -1.91739553727149      0.13996998788210
  N   0.33458930699030      1.21808710141624     -0.99163081268970
  O   -0.80554881681843      1.56945795689534     -1.26884825450503
  O   1.38102356871829      1.82089758011331     -1.18410698194444
  N   1.19217553792193      0.06845136862594      0.96672212133883
  O   1.98557159522998     -0.79557240349740      1.30593502599426
  O   0.82970182947871      1.06135812967766      1.58318139425310
  C   -1.69625101169369     -0.29644586230876      0.78167307574614
  N   -2.45495884996848      0.16200467210932      1.54995528660256
