13
Coordinates from ORCA-job run
  C   0.34883293931379     -0.23403665479612     -0.23366680639054
  C   -0.79286613157257     -0.38170973375768      0.74387657786292
  F   0.46680617118865     -1.27238004840737     -1.04886129554995
  H   -0.58375891203229     -1.25617467512954      1.36815962909415
  H   -0.84168774097985      0.50255810585208      1.37814799654111
  N   0.22820337639743      1.02989401816442     -1.08192831633577
  O   -0.47111024460898      1.92687538760006     -0.62993196938989
  O   0.87762413234391      1.02211310346784     -2.11790357480529
  N   1.66034131873205     -0.05498511241421      0.53037809244691
  O   1.65290013210097      0.86446108996346      1.33995697798664
  O   2.56539387910976     -0.82918541079731      0.26673730968254
  C   -2.05107919929306     -0.57562874227542      0.03019595000064
  N   -3.05959972069981     -0.74180132747020     -0.54516057114345
