13
Coordinates from ORCA-job run
  C   0.50337040611950     -0.14571770129466     -0.37781796314545
  C   -0.77359735713703     -0.92729755382800     -0.16861701239794
  F   1.25814610256893     -0.74330683128313     -1.30399385512004
  H   -1.21896752589853     -1.06352345140325     -1.15946815305521
  H   -0.50525122026350     -1.90998807753522      0.22658471101984
  N   0.19672858702986      1.27173387406421     -0.83559129193066
  O   -0.01532969215498      2.07882887888918      0.05934743503974
  O   0.13682036692608      1.43611166767992     -2.04413487717422
  N   1.35064687751583     -0.00955954163536      0.87292756261987
  O   0.92052646882238     -0.52221545886828      1.89879830202523
  O   2.40945104876781      0.57930486498740      0.70666815198919
  C   -1.72679701861443     -0.27276194679679      0.71943474749508
  N   -2.53474704368191      0.22939127702398      1.40586224263457
