13
Coordinates from ORCA-job run
  C   0.50648613657294     -0.16099504353553     -0.36725653740772
  C   -0.79909721889112     -0.90173276766375     -0.18829356374244
  F   1.32915129030140     -0.86734489916334     -1.14757704970085
  H   -0.53901354913518     -1.91025720910689      0.14925173530836
  H   -1.27857408774154     -0.97896416318464     -1.16707578749443
  N   0.35235278118833      1.20874852331439     -1.00037728630481
  O   1.40552622223633      1.79907049520934     -1.19484819448572
  O   -0.78331742643531      1.56979156793167     -1.28345195947837
  N   1.18210490151086      0.06895029290266      0.97567068781921
  O   1.95911854513713     -0.80263236502437      1.33313180202393
  O   0.82700767930003      1.07340185188260      1.57755614468891
  C   -1.70599046889630     -0.27607780983956      0.76655176016741
  N   -2.45575480514757      0.17704152627742      1.54671824860653
