13
Coordinates from ORCA-job run
  C   0.11074203535987      0.46146425107627     -0.10883570414163
  C   -0.98936749367712     -0.56823788468292     -0.20022416515132
  F   -0.34473187098334      1.67606001347038      0.18387776239556
  H   -0.55816708079447     -1.53206587738106     -0.47232441637203
  H   -1.68136133763453     -0.26753543839175     -0.99037485302230
  N   1.13752843833050      0.04706442644813      0.93695626294629
  O   1.69484979707420     -1.01401820020039      0.68428248221232
  O   1.28770587496043      0.77985286933639      1.89886228177369
  N   0.90479882892508      0.56823580272835     -1.40433798250405
  O   0.56824677697653     -0.15358764024246     -2.33441156509435
  O   1.80441577201979      1.39675800802997     -1.37872169306555
  C   -1.68808812754245     -0.66017631413083      1.07892263159391
  N   -2.24557161301450     -0.73681401606007      2.10832895842947
