13
Coordinates from ORCA-job run
  C   0.35463805751881     -0.21124359725656     -0.24613969435910
  C   -0.84894785973530     -0.45558848991420      0.63261648650752
  F   0.48918734213892     -1.12075426713751     -1.20070017730837
  H   -0.70696422133929     -1.42075071844809      1.12905926102288
  H   -0.90858838985809      0.32625907531249      1.38877745138695
  N   0.32648220443278      1.16882741505780     -0.89984586823452
  O   1.03964994641179      1.28903474247143     -1.88581231756160
  O   -0.37120349706576      2.01626539466267     -0.35853253870967
  N   1.62233941862515     -0.20030456279237      0.60742034878250
  O   1.59541296226704      0.58991535529692      1.54311640544251
  O   2.51662487200396     -0.96286583225007      0.28096181408956
  C   -2.06637417065632     -0.49040889727088     -0.17166792257144
  N   -3.04225666474366     -0.52838561773164     -0.82125324848723
