13
Coordinates from ORCA-job run
  C   0.33416291377628     -0.15976077077519     -0.30613807087541
  C   -1.14531253200757     -0.13055697436117     -0.00485928222159
  F   0.73352667392253     -1.31547941831425     -0.81728965683152
  H   -1.67950355559081     -0.26192895033676     -0.95120778248871
  H   -1.40841120143473      0.83786671150083      0.41895549895544
  N   0.68311202196773      0.96010366255936     -1.28566352704880
  O   0.33179883835342      2.07647694860621     -0.92377574349278
  O   1.26428137789808      0.63978634074638     -2.30911634573499
  N   1.18437452030932      0.13767027479186      0.92751886793817
  O   2.34790595424425     -0.23128211509850      0.85524076494128
  O   0.63281434402613      0.73864912943286      1.83995034632037
  C   -1.49802502094884     -1.20903984496560      0.91319264909962
  N   -1.78072433451581     -2.08250499378604      1.64319228143891
