13
Coordinates from ORCA-job run
  C   0.50789651007648     -0.17390184341852     -0.35980142437189
  C   -0.82889163738736     -0.86614238759524     -0.22114873889819
  F   1.31895883470080     -0.89764366632378     -1.13618078599084
  H   -1.28994551193810     -0.90735608966361     -1.21088903467466
  H   -0.61532883293934     -1.88988034901624      0.10295107075474
  N   0.41969236517124      1.21193661340985     -0.97058523720587
  O   -0.69521564581497      1.62228253496741     -1.26842143617226
  O   1.49861927539811      1.76373191448545     -1.13419555338135
  N   1.16331717806153      0.00556763553606      1.00059684684603
  O   0.83281385775814      1.01113816078650      1.61459267076171
  O   1.89924331159209     -0.90120782489374      1.35744654662658
  C   -1.73116746949504     -0.22256443359323      0.72605983324687
  N   -2.47899223518359      0.24503973531908      1.49957524245911
