13
Coordinates from ORCA-job run
  C   0.49984075123043     -0.16000520345213     -0.37690143537233
  C   -0.80024654615619     -0.90396213120056     -0.17301309649836
  F   1.23941460874600     -0.77751293936543     -1.30213404277717
  H   -0.56209228010393     -1.89472003623110      0.22141736220396
  H   -1.24677085865499     -1.02521933432562     -1.16527855997736
  N   0.23667256367922      1.26687152367921     -0.83238926221382
  O   0.04705429428515      2.07827300670689      0.06372907623413
  O   0.18416249483408      1.43531698902027     -2.04075164440293
  N   1.34694492220871     -0.05153636977218      0.87692619810448
  O   0.89796294898625     -0.55200151429921      1.90067678135246
  O   2.42369506537243      0.50495353591591      0.71483092198215
  C   -1.73635128477790     -0.22317275304650      0.71360143160528
  N   -2.53128667964925      0.30171522637046      1.39828626975949
