13
Coordinates from ORCA-job run
  C   0.34274914186774     -0.07473565373823     -0.32887768063466
  C   -1.11586957130344     -0.28841681047216     -0.00100251239508
  F   0.87925122181584     -1.09655336069142     -0.98051569379144
  H   -1.49660226634382      0.57970495219380      0.53566617540944
  H   -1.65756716651279     -0.38716203319248     -0.94709358184002
  N   0.50170596064748      1.18802486788335     -1.17467092713970
  O   0.00850353799668      2.19426127372208     -0.67965594366344
  O   1.09011278164217      1.07279872274466     -2.23698585583505
  N   1.18421117312409      0.19415311250540      0.91714249977823
  O   0.58608139829841      0.60995735041807      1.90063399993736
  O   2.38324444036482     -0.00626567587805      0.78603634640764
  C   -1.28555559230381     -1.50214046330495      0.79148025044475
  N   -1.42026505929337     -2.48462628219006      1.41784292332198
