13
Coordinates from ORCA-job run
  C   0.09570650048276      0.46233776770307     -0.11839824178658
  C   -0.96240756591128     -0.61076311830997     -0.20682317049455
  F   -0.41241540221052      1.66490832526434      0.13570667103073
  H   -1.64858031842006     -0.35615661180777     -1.01801583219498
  H   -0.48955161607171     -1.56370334397911     -0.44611812716507
  N   1.11451045380417      0.11257261648217      0.95858998941412
  O   1.21737452702253      0.87434751497813      1.90407574946320
  O   1.71560242334903     -0.93301647970574      0.74476652798829
  N   0.91226010221880      0.57026938355516     -1.39882991563448
  O   1.77472889399864      1.43762406732150     -1.37699255429592
  O   0.62757134275546     -0.18937341505822     -2.31613335744368
  C   -1.68440724239628     -0.69818503544239      1.05962846536363
  N   -2.26139209862155     -0.76986167100119      2.07854379575530
