13
Coordinates from ORCA-job run
  C   0.39089372571421     -0.24175443146284     -0.14339404520278
  C   -0.89805330695862     -0.34249339679846      0.63700479551795
  F   0.67802626895360     -1.35093876088207     -0.80932248131703
  H   -0.77748357483063     -1.14043103032734      1.37644515896087
  H   -1.07964217792018      0.59714876379052      1.15708495169611
  N   0.37993231762776      0.92254201487186     -1.13235058544794
  O   -0.39105220248702      1.84021646054219     -0.88453309716880
  O   1.17534091750833      0.82739279981543     -2.05599745284565
  N   1.54641013933237      0.07681529924555      0.80519316043060
  O   2.51898578141742     -0.65815761702058      0.75891300978245
  O   1.36235679477202      1.05576376275835      1.51846595520496
  C   -2.00785587220840     -0.66112156034123     -0.25566502538808
  N   -2.89685881092086     -0.92498230419139     -0.97384434422268
