13
Coordinates from ORCA-job run
  C   0.32254007629148     -0.15035323969860     -0.32418973858976
  C   -1.14821281964153     -0.10427939246627      0.01545140564752
  F   0.68090013318843     -1.28403627934232     -0.90947566924367
  H   -1.37834468570004      0.84599494050325      0.49545061777777
  H   -1.70825043470750     -0.17358147482430     -0.92239656414679
  N   0.67652749353635      1.01482296963658     -1.24806874303144
  O   1.25248158206088      0.74117870073092     -2.28810114041780
  O   0.33593285091854      2.11508509557191     -0.83035092628003
  N   1.20766522731025      0.05658561967910      0.90353413629394
  O   0.69929303452888      0.64552204019193      1.84839220024577
  O   2.35133878294360     -0.36217537646536      0.79608176927636
  C   -1.50314736976016     -1.22110256054748      0.88537851175572
  N   -1.78772387096918     -2.12366104296937      1.57829414071240
