13
Coordinates from ORCA-job run
  C   0.08133709397853      0.47341344515032     -0.00885854229620
  C   -0.96274968385896     -0.60078363399742     -0.20023453486312
  F   -0.40462166868596      1.56962669544095      0.55585658022043
  H   -1.72566656712990     -0.20459841313789     -0.87784304181870
  H   -0.50177587375607     -1.47506182166849     -0.65827646962050
  N   1.26690642431993     -0.00916949416723      0.82386802054885
  O   1.43846152599776     -1.21958034850960      0.88177412961826
  O   1.94507096574409      0.87854910026907      1.32115983535399
  N   0.69247685862822      0.84334664848855     -1.35978229013150
  O   0.66093563825038      2.02024031689952     -1.67891331754512
  O   1.15357320076136     -0.10530422622180     -1.98293173984790
  C   -1.57371092722126     -0.94952704524992      1.07852671804675
  N   -2.07123698702811     -1.22015122329607      2.10565465233478
