13
Coordinates from ORCA-job run
  C   0.10165071713070      0.47277963888438     -0.05448197414114
  C   -0.99988818238917     -0.54842341399442     -0.20400111643776
  F   -0.33445897069649      1.63200588043536      0.43012598463034
  H   -1.74681936232956     -0.15462655658681     -0.89733426632135
  H   -0.58705285482145     -1.46327150007356     -0.63030803662441
  N   1.20179663541274     -0.06536012237808      0.85167185137881
  O   1.41808867080234      0.53379502198253      1.89033485540111
  O   1.74329226087283     -1.07534887356051      0.41935314545850
  N   0.80049209558341      0.76133198663478     -1.37571368240708
  O   1.69880968697171      1.58853908447640     -1.30219403169247
  O   0.39876384906285      0.16827842704149     -2.36897554121707
  C   -1.60628701150731     -0.81575836495182      1.09746951389200
  N   -2.08938753409261     -1.03394120790974      2.14405329808051
