13
Coordinates from ORCA-job run
  C   0.31706601198069      0.19792994308893      0.31144836961317
  C   -0.77317365093694     -0.83990093987448      0.19786647497506
  F   0.27648830065944      0.86210769232603      1.46299515935122
  H   -0.64956610284470     -1.56347687261614      1.00709223958448
  H   -0.67020172868924     -1.36768397861355     -0.75079438475130
  N   1.70594067916627     -0.41158273455807      0.18172704041796
  O   2.62198434085368      0.39417464019014      0.27266447427393
  O   1.77861148214957     -1.62333300703844      0.02035600352352
  N   0.22452992354540      1.18999934454903     -0.84105069328880
  O   0.00757064856998      2.35628465752961     -0.56302640194263
  O   0.37003190176499      0.67641216175017     -1.94343908557132
  C   -2.08065591427239     -0.19545423013096      0.28835271291403
  N   -3.13062589194675      0.32352332339774      0.35580809090067
