13
Coordinates from ORCA-job run
  C   0.06214546218050      0.48019540631191     -0.02495911757859
  C   -0.94063474043611     -0.62795819339305     -0.24134406941010
  F   -0.48350371830389      1.57849317085986      0.47470041408973
  H   -0.43474267581959     -1.49398701834869     -0.66547446209249
  H   -1.68807448707434     -0.26954091328364     -0.95574636152217
  N   1.20198055750421      0.04296167712165      0.89620417968725
  O   1.69694160296191      0.92240721653598      1.58489978704828
  O   1.52312220807926     -1.13585684710320      0.81918647647263
  N   0.75237792580551      0.83394645297108     -1.34384750480012
  O   1.11775940504975     -0.12566212751500     -2.01166105935334
  O   0.88370858327668      2.02259285789441     -1.58902168341986
  C   -1.58654199372010     -0.97490763246150      1.02094730724801
  N   -2.10353812950381     -1.25068404958981      2.03711609363076
