13
Coordinates from ORCA-job run
  C   0.36054221499154     -0.20767345121782     -0.24158185596420
  C   -0.86799242640523     -0.46996736800135      0.59644258612263
  F   0.51701144275487     -1.09049148069079     -1.21734240483271
  H   -0.74700019593151     -1.45144241350512      1.06566223689363
  H   -0.94228567161299      0.28764645163009      1.37548488211597
  N   0.35473757926211      1.19114252067276     -0.85645050995476
  O   1.06957573551157      1.32989187885262     -1.83853429974134
  O   -0.33015614593950      2.03221100356522     -0.28960324189527
  N   1.60571688894454     -0.22672033261168      0.64479799014843
  O   2.51699626027509     -0.96203783532927      0.30262431620370
  O   1.54745866566786      0.51550723125030      1.61774186336452
  C   -2.06293091941961     -0.46882935528221     -0.24157460584696
  N   -3.02067342809873     -0.47723684933275     -0.91866695661366
