13
Coordinates from ORCA-job run
  C   0.44533906979409     -0.24063672791778     -0.39435718173666
  C   -0.92294573188859     -0.78322592242566     -0.03117707115753
  F   1.02954428298671     -1.07147276447030     -1.25160876660614
  H   -1.46574630025723     -0.89929534401621     -0.97523913064043
  H   -0.75617280554183     -1.78995254510272      0.36642017396473
  N   0.39535841475735      1.14478210200043     -1.03482512331085
  O   -0.37242375226766      1.93922208555336     -0.50818903933884
  O   1.14023242966647      1.32378432464127     -1.98671863333845
  N   1.36866164729932     -0.07465079891873      0.81073573109515
  O   0.85125931777129      0.41979626919305      1.80360301230642
  O   2.52747679356724     -0.42839399270018      0.65299791167783
  C   -1.74390315145535     -0.02612551257421      0.90567729024771
  N   -2.49668021443181      0.48716882673767      1.64468082683707
