13
Coordinates from ORCA-job run
  C   0.47372000066210     -0.24981181088127     -0.36051813899470
  C   -0.88547973219783     -0.83672712456914     -0.05510926194557
  F   1.13594782654571     -1.04599083553740     -1.20438254455114
  H   -1.36187747517472     -1.03380333794694     -1.02101292190086
  H   -0.73172482088941     -1.79132157573508      0.45380512453750
  N   0.33677835889514      1.12716408981981     -0.99036316507598
  O   0.21412203992415      2.05376271174932     -0.20057705910126
  O   0.30606340932805      1.15315860450236     -2.21075537449546
  N   1.35115041139391     -0.06600652775418      0.86343092593523
  O   2.46300368280065      0.38529059958443      0.62739097079459
  O   0.88803017457242     -0.41633179031158      1.94186253642091
  C   -1.73493685690795      0.02887365957723      0.75418970604741
  N   -2.45479701895223      0.69174333750243      1.40103920232933
