13
Coordinates from ORCA-job run
  C   0.47686889609662     -0.27152366307060     -0.33848332617657
  C   -0.91280847888479     -0.80978664126100     -0.08369854802333
  F   1.13865708431666     -1.08862467419238     -1.16253065898270
  H   -1.35692311097022     -0.99756685467393     -1.06659818293974
  H   -0.81334784027155     -1.76514874284159      0.43713591178471
  N   0.41000959419613      1.11046786799209     -0.97032902025024
  O   0.37264060255303      1.13025966073194     -2.19084013556836
  O   0.34029793068639      2.04705877815737     -0.18612420670776
  N   1.31588364457261     -0.12198743415655      0.91617698824997
  O   2.46188823018685      0.25605248638492      0.71826925210274
  O   0.78882867061124     -0.42088203220553      1.98068406490702
  C   -1.76073450511247      0.09615141257981      0.68159585397774
  N   -2.46026071798050      0.83552983655544      1.26474200762651
