13
Coordinates from ORCA-job run
  C   0.41145744679929     -0.20282949106166     -0.45311698765205
  C   -0.94325806454638     -0.77255994531121     -0.09815658743827
  F   0.99415051450842     -0.95955679011987     -1.38719630580191
  H   -1.57616799794516     -0.71424421956152     -0.98692144173500
  H   -0.78173160357568     -1.82855087710583      0.14138729387870
  N   0.35864619962227      1.21436830414764     -0.99094563986984
  O   -0.74243326052349      1.74673512714243     -1.05803185770393
  O   1.44075197188289      1.66619292849836     -1.33779495298432
  N   1.31266684166266     -0.15768494654577      0.77137566636980
  O   1.22130284522418      0.85114578839877      1.45763113145940
  O   1.98426469462925     -1.15851669620453      0.96815966332952
  C   -1.58606909296706     -0.09952333113712      1.02398270705326
  N   -2.09258049477122      0.41302414886031      1.94962731109464
