13
Coordinates from ORCA-job run
  C   0.47497436895151     -0.26447992162138     -0.34707049980063
  C   -0.90783849854221     -0.81075415366863     -0.07425618677260
  F   1.13599923817482     -1.08457055474830     -1.16885043025070
  H   -0.79302692934417     -1.77058770077098      0.43508895774562
  H   -1.36882674520224     -0.99142922201057     -1.05083946756522
  N   0.39623762955072      1.11231955955293     -0.98669938034358
  O   0.26272603673504      2.04413106620893     -0.20482185874677
  O   0.41768584000396      1.13488700097644     -2.20735710953775
  N   1.32482961258181     -0.09975665551284      0.89913969853502
  O   0.83101092517390     -0.45097148489335      1.96346628305122
  O   2.44903539313198      0.33543138918028      0.69268701660025
  C   -1.74979242378159      0.07797411091250      0.71761174245990
  N   -2.47201444743354      0.76780656639496      1.33290123462523
