13
Coordinates from ORCA-job run
  C   0.41419493775376     -0.20728848607267     -0.45050904779468
  C   -0.93663586254333     -0.77685467278808     -0.08140061976904
  F   0.99618064822445     -0.97422826220994     -1.37638812990630
  H   -0.76916592703527     -1.82730458194055      0.17776867972752
  H   -1.57194682784914     -0.73797765907275     -0.96951652824919
  N   0.35344499951402      1.20236844706650     -1.00779643978427
  O   -0.75113323811166      1.72561755360821     -1.08725980963020
  O   1.43381062294041      1.65680622604411     -1.35675753557062
  N   1.31999527057441     -0.13948619957633      0.76927348305364
  O   1.20936543163200      0.87070521369909      1.45084576211409
  O   2.01417258363622     -1.12424798548858      0.96803343558152
  C   -1.58359807022846     -0.08749578500970      1.02851437645405
  N   -2.12868456850742      0.41938619174069      1.93519237377347
