16

C	0.0	0.0	0.0
C	-0.349554	0.077876	-1.510663
F	1.424021	0.0	0.0
H	0.335042	-0.637351	-1.98037
N	-0.443094	1.160327	0.689802
H	0.090959	1.977289	0.423191
H	-0.423764	1.029066	1.691886
N	-0.501353	-1.222358	0.531941
H	-0.202987	-1.301215	1.499463
H	-1.524719	-1.115005	0.527028
C	0.050528	1.411924	-2.002927
N	0.400408	2.473166	-2.364251
N	-1.705838	-0.219124	-1.90625
H	-1.802532	-1.228114	-1.931037
H	-2.406003	0.077141	-1.178561
H	-3.530611	0.0	0.0
