16

C	0.0	0.0	0.0
C	-0.575613	-0.149443	-1.404547
F	1.40567	0.0	0.0
H	-1.662199	-0.317452	-1.166046
N	-0.500861	1.220973	0.540358
H	-1.532474	1.056838	0.497638
H	-0.260056	1.252802	1.525321
N	-0.366246	-1.159242	0.789018
H	0.336231	-1.2627	1.514338
H	-0.342423	-1.997364	0.219025
C	-0.008144	-1.320411	-2.074346
N	0.411864	-2.283112	-2.602509
N	-0.352486	1.05531	-2.212575
H	-0.327329	1.82006	-1.542317
H	-1.190098	1.193628	-2.772733
H	-3.098539	0.0	0.0
