16

C	0.0	0.0	0.0
C	-0.31	-0.021796	-1.529423
F	1.401061	0.0	0.0
H	0.453087	-0.682207	-1.966553
N	-0.475505	1.190895	0.602698
H	-0.556838	1.063035	1.601654
H	0.128576	1.969948	0.38277
N	-0.534239	-1.111321	0.708154
H	-1.545322	-0.922997	0.773936
H	-0.452389	-1.937258	0.126473
C	-0.028711	1.321227	-2.08721
N	0.205084	2.378134	-2.546576
N	-1.628492	-0.550296	-1.794979
H	-2.351644	-0.218857	-1.088004
H	-1.944064	-0.254066	-2.711558
H	-3.457627	0.0	0.0
