16

C	0.0	0.0	0.0
C	-0.513841	-0.041637	-1.451935
F	1.410899	0.0	0.0
H	-1.608907	-0.157698	-1.313237
N	-0.361767	1.302799	0.543506
H	0.441367	1.921681	0.502595
H	-0.686511	1.218616	1.501042
N	-0.535697	-1.111002	0.689337
H	-1.569732	-0.986421	0.578167
H	-0.310782	-1.027837	1.673771
C	0.061796	-1.162605	-2.195761
N	0.592968	-1.964112	-2.879128
N	-0.286878	1.183404	-2.21855
H	0.688085	1.449589	-2.118935
H	-0.848274	1.888166	-1.752787
H	-3.093457	0.0	0.0
