16

C	0.0	0.0	0.0
C	-0.324721	0.187671	-1.464214
F	1.422926	0.0	0.0
H	0.154705	1.153995	-1.716405
N	-0.505739	0.997664	0.875694
H	-1.53565	0.821286	0.797469
H	-0.324474	1.912183	0.442729
N	-0.426896	-1.262433	0.471994
H	-0.12576	-1.372933	1.435577
H	-0.061788	-1.996444	-0.110875
C	-1.77069	0.302198	-1.792043
N	-2.372417	0.531068	-2.808548
N	0.282696	-0.900464	-2.267148
H	1.299543	-0.802608	-2.172944
H	0.031332	-0.776788	-3.236036
H	-2.736492	0.0	0.0
