15

C	-0.364036	-0.215266	-1.460496
C	0.0	0.0	0.0
Br	0.003683	1.388891	-2.488822
H	1.100728	0.0	0.0
H	-0.329866	-0.907938	0.516601
N	0.336859	-1.310433	-2.074764
H	0.152844	-2.136023	-1.512026
H	1.332515	-1.105242	-1.989397
N	-1.858856	-0.544671	-1.544748
O	-2.662959	0.251411	-2.002589
O	-2.138172	-1.647055	-1.071633
N	-0.666653	1.151694	0.594272
H	-0.147057	1.982656	0.335319
H	-0.586978	1.070458	1.600559
Br	3.590753	0.0	0.0
