15

C	-0.323165	0.075711	-1.481279
C	0.0	0.0	0.0
Br	-0.225584	2.04677	-2.066575
H	1.100987	0.0	0.0
H	-0.404647	0.854588	0.535826
N	0.496734	-0.77097	-2.198215
H	1.474545	-0.65009	-1.938259
H	0.337832	-0.772824	-3.193728
N	-1.785911	-0.237999	-1.761286
O	-2.038533	-0.870381	-2.781435
O	-2.606492	0.184901	-0.959939
N	-0.515821	-1.276622	0.50417
H	0.2603	-1.916936	0.609162
H	-0.934999	-1.137672	1.41341
Br	3.561104	0.0	0.0
