15

C	-0.612765	-0.02949	-1.39944
C	0.0	0.0	0.0
Br	0.040457	-1.580675	-2.363654
H	1.092666	0.0	0.0
H	-0.354646	0.931054	0.453657
N	-2.05331	-0.04697	-1.42722
H	-2.309179	-0.777248	-0.767563
H	-2.356118	0.838281	-1.029227
N	-0.197656	1.251121	-2.125703
O	-0.703291	2.265662	-1.640876
O	0.563468	1.220937	-3.077428
N	-0.556633	-1.135042	0.752542
H	0.086799	-1.91231	0.644668
H	-0.535527	-0.893004	1.735641
Br	3.60552	0.0	0.0
