15

C	-0.467814	-0.01632	-1.433073
C	0.0	0.0	0.0
Br	-2.611376	-0.332657	-1.328209
H	1.093633	0.0	0.0
H	-0.363112	-0.888062	0.517481
N	-0.133108	1.096003	-2.11984
H	-0.419381	1.150623	-3.083172
H	-0.217768	1.924911	-1.546098
N	-0.090752	-1.261444	-2.200412
O	0.114372	-2.276524	-1.550452
O	-0.043348	-1.158449	-3.422194
N	-0.416612	1.276151	0.583499
H	0.296141	1.570025	1.239545
H	-1.297762	1.176022	1.070731
Br	3.544038	0.0	0.0
