15

C	0.0	0.0	0.0
C	-0.479492	0.544925	-1.33849
Cl	1.770142	0.0	0.0
H	0.015984	1.514109	-1.45538
H	-0.072125	-0.12244	-2.101789
C	-0.459627	0.795529	1.132608
N	-0.771435	1.533642	1.992793
N	-0.445648	-1.456652	0.188205
O	-0.830484	-1.781336	1.302159
O	-0.332844	-2.173154	-0.795335
C	-1.988331	0.69569	-1.453835
H	-2.397668	1.412362	-0.74142
H	-2.545649	-0.224234	-1.28725
H	-2.224159	1.050878	-2.460573
Cl	-4.973471	0.0	0.0
