15

C	0.0	0.0	0.0
C	-0.560012	0.271039	-1.383792
Cl	1.770213	0.0	0.0
H	-0.147242	-0.499921	-2.040357
H	-0.153234	1.235753	-1.703492
C	-0.438693	0.981031	0.988961
N	-0.72597	1.84361	1.732875
N	-0.449994	-1.398931	0.450217
O	-0.166788	-2.309186	-0.315077
O	-1.048719	-1.482137	1.512869
C	-2.085369	0.272782	-1.4039
H	-2.535333	1.01185	-0.740271
H	-2.521168	-0.683037	-1.114529
H	-2.426819	0.489175	-2.418735
Cl	-5.180214	0.0	0.0
