15

C	0.0	0.0	0.0
C	-0.521331	-0.164307	-1.414396
Cl	1.766782	0.0	0.0
H	0.005815	-1.014031	-1.852828
H	-1.583409	-0.40379	-1.307726
C	-0.441046	1.220792	0.669185
N	-0.62309	2.273095	1.159372
N	-0.388871	-1.209702	0.867913
O	-0.447685	-2.284759	0.290556
O	-0.512762	-1.009769	2.066665
C	-0.356542	1.103181	-2.240469
H	-0.668451	0.90534	-3.268511
H	-0.999013	1.892197	-1.845933
H	0.676741	1.460233	-2.261741
Cl	-3.453278	0.0	0.0
