15

C	0.0	0.0	0.0
C	-0.512013	-0.210784	-1.412197
Cl	1.770337	0.0	0.0
H	-1.566449	-0.476919	-1.303394
H	0.040921	-1.053304	-1.831709
C	-0.440667	1.24195	0.629197
N	-0.608649	2.31215	1.084755
N	-0.382572	-1.184387	0.904319
O	-0.491403	-0.952526	2.098853
O	-0.446852	-2.274787	0.356877
C	-0.381102	1.044389	-2.26277
H	0.638544	1.438134	-2.277461
H	-0.671305	0.815329	-3.290604
H	-1.057196	1.815753	-1.891708
Cl	-3.422802	0.0	0.0
