15

C	0.0	0.0	0.0
C	-0.535983	0.650325	-1.262091
Cl	1.770297	0.0	0.0
H	-0.068713	1.638702	-1.322648
H	-0.155495	0.053972	-2.096262
C	-0.448141	0.665591	1.218356
N	-0.758594	1.273843	2.17404
N	-0.42709	-1.479724	0.053929
O	-0.290817	-2.102966	-0.98827
O	-0.823678	-1.907972	1.128119
C	-2.055363	0.754717	-1.277079
H	-2.376806	1.140168	-2.247306
H	-2.442335	1.423494	-0.5083
H	-2.570853	-0.192415	-1.123056
Cl	-5.118539	0.0	0.0
