15

C	0.0	0.0	0.0
C	-0.545939	0.677071	-1.242941
Cl	1.770208	0.0	0.0
H	-0.07735	1.665274	-1.290349
H	-0.179145	0.097086	-2.093235
C	-0.463425	0.622229	1.233817
N	-0.77802	1.21934	2.195584
N	-0.409583	-1.486546	0.021639
O	-0.754114	-1.950677	1.099433
O	-0.302256	-2.083635	-1.039688
C	-2.065028	0.784274	-1.232858
H	-2.57863	-0.159678	-1.054221
H	-2.432041	1.468225	-0.468573
H	-2.409401	1.155054	-2.19895
Cl	-5.134683	0.0	0.0
