15

C	0.0	0.0	0.0
C	-0.48678	0.466029	-1.363876
Cl	1.770369	0.0	0.0
H	-0.030672	1.448539	-1.524026
H	-0.046719	-0.220299	-2.091812
C	-0.460531	0.843545	1.096402
N	-0.762573	1.601045	1.942146
N	-0.437919	-1.450693	0.254863
O	-0.870077	-1.717241	1.366819
O	-0.276366	-2.219184	-0.681653
C	-2.000272	0.535463	-1.490622
H	-2.498811	-0.41561	-1.312119
H	-2.457822	1.237464	-0.794455
H	-2.252954	0.855784	-2.504665
Cl	-4.998798	0.0	0.0
