18

C	-0.594535	0.018867	-1.397874
C	0.0	0.0	0.0
Cl	0.335578	1.260035	-2.400078
H	1.094175	0.0	0.0
N	-0.360068	-1.262698	-2.189421
O	-1.093981	-1.435547	-3.162345
O	0.538836	-2.013558	-1.838086
N	-1.978319	0.258218	-1.382974
H	-2.10745	1.046459	-0.753832
H	-2.336644	0.447374	-2.308963
C	-0.547341	-1.143961	0.836546
H	-0.016857	-1.134813	1.793614
H	-1.624485	-1.047185	1.016342
H	-0.347824	-2.109431	0.373634
N	-0.429889	1.296825	0.601699
H	0.385381	1.899777	0.528302
H	-0.564605	1.139538	1.594408
F	2.641115	0.0	0.0
