18

C	-0.112855	-0.110817	-1.535477
C	0.0	0.0	0.0
Cl	-1.630932	-0.932377	-2.141699
H	1.09598	0.0	0.0
N	-0.234007	1.354567	-2.086031
O	-1.332706	1.874296	-2.22644
O	0.842639	1.908578	-2.287306
N	1.023942	-0.772477	-1.994445
H	1.85102	-0.498199	-1.40747
H	1.179491	-0.671277	-2.987599
C	-0.492852	-1.258508	0.690289
H	-0.13026	-1.255222	1.72183
H	-0.10094	-2.145728	0.190612
H	-1.587093	-1.31833	0.69954
N	-0.518713	1.245615	0.522657
H	0.104764	1.568324	1.248664
H	-1.447048	1.126354	0.912366
F	2.720095	0.0	0.0
