18

C	-0.142918	-0.065089	-1.535212
C	0.0	0.0	0.0
Cl	-1.612591	-0.904053	-2.124174
H	1.0994	0.0	0.0
N	-0.216677	1.39914	-2.023059
O	0.808472	2.031982	-1.79393
O	-1.221562	1.843955	-2.562125
N	1.029426	-0.624622	-2.151626
H	0.915347	-1.626467	-2.221135
H	1.827154	-0.420177	-1.505668
C	-0.470962	-1.272661	0.669365
H	-1.564757	-1.331937	0.711424
H	-0.098875	-2.153462	0.14194
H	-0.067813	-1.30218	1.686303
N	-0.618015	1.19251	0.572781
H	-1.060667	0.958319	1.452223
H	0.123992	1.854064	0.769318
F	2.721702	0.0	0.0
