18

C	-0.088388	-0.247513	-1.541922
C	0.0	0.0	0.0
Cl	-1.531752	-1.181038	-2.083651
H	1.096209	0.0	0.0
N	-0.22635	1.155628	-2.17036
O	-1.345593	1.638856	-2.328527
O	0.828853	1.752072	-2.347248
N	1.100393	-0.839591	-2.060919
H	1.885279	-0.570356	-1.4159
H	0.996667	-1.844955	-2.062858
C	-0.48403	-1.206715	0.778098
H	-0.133831	-1.100148	1.806396
H	-1.576668	-1.284944	0.783237
H	-0.071402	-2.131156	0.367131
N	-0.55611	1.223319	0.534413
H	0.037747	1.99978	0.271744
H	-1.489307	1.396995	0.176478
F	2.721312	0.0	0.0
