18

C	-0.083353	-0.128601	-1.522466
C	0.0	0.0	0.0
Cl	-1.681392	-0.726979	-2.142546
H	1.099499	0.0	0.0
N	0.090027	1.254959	-2.238228
O	0.501942	2.207008	-1.582479
O	-0.052394	1.264732	-3.459094
N	0.978058	-0.959571	-1.922139
H	1.829453	-0.689127	-1.365784
H	1.116199	-0.937017	-2.923328
C	-0.473097	-1.28805	0.648702
H	-1.566547	-1.344443	0.657945
H	-0.07078	-2.15202	0.121724
H	-0.10442	-1.31581	1.679461
N	-0.73043	1.132362	0.556287
H	-0.875025	0.937517	1.538944
H	-0.138285	1.949151	0.495838
F	2.742438	0.0	0.0
