18

C	-0.124656	-0.130882	-1.536718
C	0.0	0.0	0.0
Cl	-1.583962	-1.097079	-2.124825
H	1.0978	0.0	0.0
N	-0.419359	1.297238	-2.12204
O	0.562704	1.901777	-2.542941
O	-1.55765	1.741208	-2.078963
N	1.048702	-0.690926	-2.009465
H	1.190545	-0.578799	-3.001978
H	1.871191	-0.42791	-1.408166
C	-0.49272	-1.241181	0.7211
H	-0.099301	-2.142143	0.246328
H	-0.128422	-1.210268	1.75249
H	-1.587149	-1.301925	0.73253
N	-0.49092	1.263643	0.510461
H	-1.444087	1.180018	0.845668
H	0.106063	1.542612	1.277807
F	2.731998	0.0	0.0
