18

C	-0.134717	-0.198451	-1.525274
C	0.0	0.0	0.0
Cl	-1.608233	-1.100382	-2.036287
H	1.098656	0.0	0.0
N	-0.236758	1.214928	-2.129671
O	0.828962	1.812315	-2.175549
O	-1.326931	1.672366	-2.449065
N	1.029218	-0.816444	-2.091853
H	0.913323	-1.820731	-2.052577
H	1.831079	-0.54908	-1.475459
C	-0.438946	-1.229889	0.775236
H	-0.056664	-1.147899	1.797014
H	-0.023224	-2.141525	0.338505
H	-1.5304	-1.33157	0.809533
N	-0.558302	1.249359	0.472498
H	0.091451	1.666818	1.12518
H	-1.447838	1.104825	0.9358
F	2.703268	0.0	0.0
