18

C	-0.129744	0.054488	-1.535398
C	0.0	0.0	0.0
Cl	-0.322061	-1.605857	-2.253714
H	1.096586	0.0	0.0
N	-1.423394	0.778798	-1.91794
O	-2.455488	0.355049	-1.403699
O	-1.363122	1.747827	-2.666168
N	0.982828	0.695002	-2.138096
H	0.825652	1.694989	-2.085974
H	1.799511	0.46521	-1.532015
C	-0.633169	-1.143573	0.759474
H	-0.420837	-1.003304	1.824299
H	-0.211598	-2.103893	0.462393
H	-1.71804	-1.174784	0.615891
N	-0.391368	1.336745	0.459
H	0.281169	1.636817	1.1525
H	-1.312704	1.314017	0.881579
F	2.704209	0.0	0.0
