18

C	-0.498716	-0.030571	-1.424152
C	0.0	0.0	0.0
Cl	0.101245	-1.479226	-2.290724
H	1.094876	0.0	0.0
N	-2.075492	-0.169584	-1.504779
O	-2.575348	-0.315532	-2.619069
O	-2.723799	0.004848	-0.473393
N	-0.151738	1.137961	-2.117048
H	-0.690527	1.26286	-2.963066
H	-0.228036	1.907226	-1.456575
C	-0.3853	-1.187787	0.869022
H	0.253626	-1.149511	1.755787
H	-1.435394	-1.182008	1.177278
H	-0.165821	-2.13099	0.36457
N	-0.341283	1.307911	0.582225
H	0.474129	1.596194	1.110124
H	-1.138419	1.239171	1.202365
F	2.612233	0.0	0.0
