18

C	-0.592005	0.002954	-1.398782
C	0.0	0.0	0.0
Cl	0.31	1.262367	-2.404523
H	1.094247	0.0	0.0
N	-0.321619	-1.274999	-2.18419
O	-1.057697	-1.477967	-3.149842
O	0.60608	-1.992192	-1.836401
N	-1.980578	0.208788	-1.386361
H	-2.343761	0.390497	-2.311358
H	-2.131466	0.989105	-0.752591
C	-0.534373	-1.151058	0.835569
H	-1.615139	-1.080014	1.001828
H	-0.303617	-2.112386	0.377999
H	-0.015611	-1.127151	1.798666
N	-0.453742	1.290132	0.597896
H	0.329483	1.926051	0.471376
H	-0.522536	1.14343	1.599715
F	2.640571	0.0	0.0
