14

C	0.0	0.0	0.0
C	-0.516498	-0.372367	-1.412407
F	1.38006	0.0	0.0
H	-1.407821	-0.986405	-1.310672
H	-0.378489	0.986564	0.266396
C	-0.38142	-0.976895	1.037448
N	-0.497908	-1.752311	1.910384
N	0.55422	-1.257952	-2.011841
O	0.630335	-2.394594	-1.549612
O	1.296598	-0.78752	-2.864455
N	-0.80413	0.71314	-2.286013
H	-0.10095	1.436687	-2.218782
H	-1.713049	1.069653	-2.004972
Br	-3.410976	0.0	0.0
