14

C	0.0	0.0	0.0
C	-0.494902	-0.173465	-1.425532
F	1.382956	0.0	0.0
H	-1.584114	-0.302559	-1.370635
H	-0.368148	0.967348	0.343672
C	-0.40645	-1.046895	0.951948
N	-0.534254	-1.847229	1.800751
N	0.083253	-1.483357	-1.969419
O	0.902253	-1.414753	-2.887563
O	-0.313445	-2.522787	-1.452396
N	-0.124467	0.954513	-2.205557
H	-0.666784	0.980769	-3.057335
H	0.856836	0.907959	-2.445685
Br	-3.551828	0.0	0.0
