18
Coordinates from ORCA-job run
  C   -0.92656697110072      0.26718438164114      0.11579931253109
  C   0.59492365137870      0.43466278063162     -0.07690406067843
  Cl  -1.56621357068741      1.71141172992008      0.99285161435443
  H   0.71433650854129      1.39687717092078     -0.59082940014112
  C   -1.69584593017355      0.16240696031629     -1.19797996111877
  H   -1.43893315007594      1.01074865005311     -1.83620394198722
  H   -1.45043194628724     -0.76745074265073     -1.71258548669878
  H   -2.76913058786905      0.17918143027918     -1.00615650422084
  C   -1.19985138126318     -0.90889834955270      0.94532426154002
  N   -1.38907576414144     -1.88499968938949      1.57174294316480
  C   1.16061814460904     -0.67733708115484     -0.96189782477244
  H   0.77041691031683     -0.64394229804982     -1.97991027574556
  H   0.94836413765100     -1.66351850143897     -0.53779671133230
  H   2.24638609676519     -0.57283206114924     -1.02367713588057
  C   1.34841173262688      0.48369545588041      1.24989736540268
  H   2.40488083492826      0.68970549075380      1.06271551411240
  H   1.28139651401818     -0.47624782507921      1.76924564865999
  H   0.96631477076317      1.26135249806858      1.91136464281063
