18
Coordinates from ORCA-job run
  C   -0.95023089571066     -0.17370773163716      0.10573986168977
  C   0.55053889604688     -0.00087576673982      0.41787551035289
  Cl  -1.73930884871010     -1.02899972941648      1.48764858127841
  H   0.58392324645938      0.51855957855583      1.38395801101800
  C   -1.68598222825146      1.14999015000919     -0.08288292310514
  H   -2.75857353151746      0.97346109757308     -0.16853189946855
  H   -1.50268709325345      1.79240490602805      0.78118216169153
  H   -1.34392334561665      1.65233914071843     -0.98858197369925
  C   -1.12186998881117     -1.00910293902410     -1.08532337947447
  N   -1.22680008894876     -1.64045394714252     -2.07091274929273
  C   1.23303780563352      0.86835153119369     -0.63974466046594
  H   0.86012049886844      1.89344722677990     -0.64544903676976
  H   2.30545665288088      0.91077718510302     -0.43588112334896
  H   1.10469030173242      0.44389802271053     -1.64018492082710
  C   1.27647188018667     -1.33757892036430      0.54723747689835
  H   2.30998960128203     -1.16385310512564      0.85600839982611
  H   1.29732269761244     -1.86153985111284     -0.41234503778508
  H   0.80982444011704     -1.98911684810888      1.28618770148192
