18
Coordinates from ORCA-job run
  C   -0.95405260455722     -0.03336573109025      0.33799484357091
  C   0.58118822466129     -0.13823042613954      0.48131109469315
  Cl  -1.60591220004186      0.91008870954020      1.73566331072445
  H   0.75707742295079     -0.50894619825361      1.49787290857629
  C   -1.42504497224265      0.64407241496938     -0.94441416474975
  H   -2.51488940676205      0.65661869596151     -0.98029415910804
  H   -1.05448859057814      0.10154928767962     -1.81670267329296
  H   -1.06641261479262      1.67268099737380     -0.97774546399707
  C   -1.54826236382874     -1.36934677213676      0.43393899973109
  N   -2.01539524917024     -2.44691893724892      0.47393911736085
  C   1.27210187684982      1.21500804345395      0.33185248228738
  H   1.24869608976901      1.56038695327200     -0.70464848811317
  H   0.82265852030811      1.97968079898837      0.96676049748382
  H   2.32164218441625      1.11721664686769      0.61928800664284
  C   1.16928496146355     -1.15007937005938     -0.50343719885759
  H   2.24395086802725     -1.23929011850489     -0.32673020352576
  H   1.03579247029141     -0.82726816297388     -1.53917421467882
  H   0.73006538323604     -2.14285683169927     -0.38947469474763
