13

C	-0.277331	0.060006	-1.498372
C	0.0	0.0	0.0
F	0.027934	1.335313	-1.935318
H	1.105606	0.0	0.0
H	0.391754	-0.642415	-1.993917
C	-1.677707	-0.220699	-1.866984
N	-2.792718	-0.424195	-2.173615
N	-0.393433	-1.308146	0.535724
O	-0.630701	-1.407379	1.736955
O	-0.380704	-2.252724	-0.261401
C	-0.599425	1.082302	0.738685
N	-1.063896	1.996613	1.313859
F	2.427533	0.0	0.0
