13

C	-0.386063	0.190209	-1.439604
C	0.0	0.0	0.0
F	-1.765524	0.295758	-1.626088
H	1.102597	0.0	0.0
H	0.060009	1.141948	-1.745501
C	0.12159	-0.846703	-2.350858
N	0.497684	-1.586881	-3.181089
N	-0.473381	-1.266384	0.588403
O	-0.764818	-2.18629	-0.175845
O	-0.494012	-1.338997	1.814712
C	-0.449335	1.116681	0.803997
N	-0.778679	2.072644	1.404354
F	2.421804	0.0	0.0
