13

C	-0.453637	-0.017947	-1.450553
C	0.0	0.0	0.0
F	0.329461	-0.870691	-2.197352
H	1.103473	0.0	0.0
H	-1.487023	-0.367836	-1.545154
C	-0.350399	1.327636	-2.043287
N	-0.291268	2.371413	-2.577142
N	-0.430582	-1.234469	0.693351
O	-0.806953	-2.184795	0.002972
O	-0.332775	-1.252116	1.918224
C	-0.507339	1.145688	0.719712
N	-0.91739	2.098233	1.275133
F	2.414962	0.0	0.0
