13

C	-0.497386	0.235775	-1.397245
C	0.0	0.0	0.0
F	-1.891923	0.203906	-1.467582
H	1.103054	0.0	0.0
H	-0.184698	1.245977	-1.677062
C	0.025864	-0.688163	-2.41394
N	0.386195	-1.325072	-3.330976
N	-0.420877	-1.307811	0.543393
O	-0.536586	-1.408986	1.763022
O	-0.558893	-2.232658	-0.256753
C	-0.433973	1.067585	0.879138
N	-0.730092	1.991759	1.542474
F	2.420371	0.0	0.0
