15

C	0.0	0.0	0.0
C	-0.510934	-0.066453	-1.445612
F	1.353444	0.0	0.0
H	-0.166305	-0.983465	-1.914639
H	-1.619083	-0.016977	-1.343909
N	-0.420857	1.117948	0.77046
H	-1.432358	1.029561	0.866607
H	-0.229945	1.952414	0.227774
N	-0.58961	-1.232138	0.578957
O	-1.752892	-0.989344	1.111509
O	-0.254981	-2.313841	0.035699
N	-0.05129	1.058528	-2.260125
O	-0.426709	2.198719	-1.954449
O	0.688649	0.815398	-3.220044
H	-2.870277	0.0	0.0
