15

C	0.0	0.0	0.0
C	-0.520805	-0.117849	-1.415538
F	1.379501	0.0	0.0
H	-1.611021	-0.253896	-1.334059
H	-0.011791	-0.919787	-1.94486
N	-0.613584	1.023241	0.676722
H	-0.392706	0.967477	1.665907
H	-1.663811	0.814361	0.530582
N	-0.240777	-1.414206	0.679403
O	-0.256395	-2.415255	-0.031186
O	-0.300409	-1.412371	1.904355
N	-0.259251	1.136001	-2.175477
O	-1.221499	1.695857	-2.697845
O	0.909623	1.508292	-2.281481
H	-2.942948	0.0	0.0
