15

C	0.0	0.0	0.0
C	-0.563364	-0.133309	-1.404029
F	1.354235	0.0	0.0
H	-1.646689	-0.29866	-1.283664
H	-0.367861	0.812211	-1.910113
N	-0.613008	1.077756	0.612555
H	-0.416231	1.045509	1.608137
H	-1.657773	0.867988	0.479983
N	-0.257145	-1.343498	0.781653
O	-0.341095	-1.254669	2.001899
O	-0.258514	-2.388863	0.140595
N	0.02846	-1.189821	-2.265458
O	1.245784	-1.17694	-2.447576
O	-0.749408	-1.971451	-2.808416
H	-2.973822	0.0	0.0
