15

C	0.0	0.0	0.0
C	-0.381884	0.020246	-1.47666
F	1.384093	0.0	0.0
H	0.027147	-0.889502	-1.917441
H	0.076358	0.912963	-1.94353
N	-0.570642	1.058884	0.756742
H	-0.382879	1.997064	0.379959
H	-0.261727	0.967085	1.729846
N	-0.317654	-1.395004	0.482136
O	-1.594758	-1.774243	0.346698
O	0.351595	-1.745361	1.549816
N	-1.82921	0.032039	-1.756142
O	-2.239383	-0.823941	-2.57938
O	-2.489408	1.071818	-1.396618
H	-1.558584	0.0	0.0
