13
Coordinates from ORCA-job run
  C   -0.39220715026632      0.19296638661004      0.07958250349539
  C   1.07103609736203      0.12090412802733     -0.36940443609309
  H   -0.53320226698143      1.11971296614759      0.65430126154565
  H   1.28618529292804      0.89359578060572     -1.11432216349723
  H   1.23802029113668     -0.84832626753238     -0.84835442400068
  N   -0.65774500732991     -0.90406415528202      0.97965086728724
  H   -0.76020020626622     -1.75518248735198      0.43739311928938
  H   -1.51282723851960     -0.75251924635410      1.49915001128980
  N   -1.21770781317139      0.12518249366829     -1.12878103582777
  H   -2.19617299643254      0.15839440267776     -0.86501423430733
  H   -1.04159729632670      0.92406883407284     -1.72941570882808
  C   1.98782178763025      0.28319246884557      0.75559600003682
  N   2.72859650623711      0.44307469586534      1.65061823960989
