13
Coordinates from ORCA-job run
  C   -0.25572399073764     -0.21809870383130     -0.36924555096078
  C   0.98291165671892      0.59791369760542      0.01202987281673
  H   0.02818245552748     -0.92597643614112     -1.15370600986710
  H   1.29669103759939      1.19165702783821     -0.84873094063934
  H   0.72507162684345      1.30099663459729      0.81376392249135
  N   -1.21459081769348      0.70791586511431     -0.96584714138769
  H   -2.00926707504714      0.19529569722819     -1.33017998672039
  H   -1.56450122532606      1.34410208730063     -0.25653771292177
  N   -0.66416732217527     -1.00635589440994      0.78197837768448
  H   -0.99865859212543     -0.40118242436911      1.52415500753578
  H   -1.41291403670645     -1.64188048409568      0.53430879388997
  C   2.08971185985082     -0.24219662021235      0.46121300047637
  N   2.99825442327138     -0.90319044662456      0.79779836760238
