13
Coordinates from ORCA-job run
  C   -0.30493546015348     -0.23381383732408     -0.39098811512552
  C   0.93132532296937     -0.05495806824534      0.50988481840583
  H   0.02479190947987     -0.66930329084028     -1.33964556287190
  H   0.62457450118898      0.42022803311418      1.44958911354194
  H   1.34543534549799     -1.03403775363899      0.76680821035407
  N   -0.84831549120448      1.07378237412800     -0.67550353169777
  H   -1.13563989423517      1.52711784025336      0.18566717084080
  H   -1.67482742528106      0.96479752026298     -1.25134939366432
  N   -1.29502778249685     -1.15227117808007      0.16627707174682
  H   -0.93177659527208     -2.09818858915245      0.20871854631709
  H   -1.54340655109869     -0.87073812680567      1.10922179646142
  C   1.97647171915822      0.75208516807535     -0.11588993158604
  N   2.83133040144738      1.37529990825302     -0.62279019272243
