15

C	-0.290183	9e-06	-1.510139
C	0.0	0.0	0.0
Cl	-2.058679	-5.7e-05	-1.842877
H	1.1	0.0	0.0
N	0.234822	1.245649	-2.019627
H	0.080328	1.296437	-3.021272
H	1.237446	1.260369	-1.831509
N	0.235024	-1.245605	-2.019525
H	1.237369	-1.259974	-1.832195
H	0.080053	-1.29678	-3.020659
C	-0.493034	-1.201476	0.664733
N	-0.870624	-2.16177	1.224889
C	-0.49305	1.201469	0.66473
N	-0.870651	2.161753	1.224891
Cl	3.191102	0.0	0.0
