15

C	-0.348532	0.062633	-1.50197
C	0.0	0.0	0.0
Cl	0.153974	-1.65809	-2.181958
H	1.09524	0.0	0.0
N	-1.733063	0.262336	-1.732244
H	-1.91429	0.390562	-2.720704
H	-2.255247	-0.54542	-1.414551
N	0.448154	1.069947	-2.071794
H	1.421823	0.942656	-1.793766
H	0.383234	1.072784	-3.081809
C	-0.56505	-1.162297	0.672684
N	-1.062909	-2.084447	1.203138
C	-0.459718	1.224962	0.658376
N	-0.81227	2.194969	1.218225
Cl	3.192379	0.0	0.0
