15

C	-0.346364	0.256275	-1.480667
C	0.0	0.0	0.0
Cl	0.154033	2.086051	-1.775644
H	1.100815	0.0	0.0
N	0.452245	-0.603763	-2.250565
H	0.383512	-0.395088	-3.238369
H	1.426402	-0.536396	-1.953577
N	-1.729771	0.109759	-1.751719
H	-2.253224	0.828965	-1.267116
H	-1.908736	0.201147	-2.744615
C	-0.469066	-1.331161	0.390026
N	-0.852128	-2.380192	0.752673
C	-0.554384	0.997525	0.905734
N	-1.032855	1.769971	1.650778
Cl	3.189174	0.0	0.0
