15

C	-0.29885	-0.006882	-1.511887
C	0.0	0.0	0.0
Cl	-2.09688	0.419848	-1.787957
H	1.101265	0.0	0.0
N	0.462633	1.059136	-2.075085
H	0.339064	1.103315	-3.079491
H	1.445685	0.90152	-1.842312
N	-0.009178	-1.295809	-2.034928
H	-0.063345	-1.288651	-3.045461
H	-0.629595	-2.007856	-1.667971
C	-0.512043	-1.188424	0.668414
N	-0.92901	-2.160956	1.179101
C	-0.47504	1.215037	0.653252
N	-0.860437	2.172005	1.2129
Cl	3.194208	0.0	0.0
