15

C	-0.325244	-0.184646	-1.494092
C	0.0	0.0	0.0
Cl	-2.138857	0.185374	-1.774699
H	1.101043	0.0	0.0
N	0.403291	0.822573	-2.193867
H	1.396949	0.691054	-1.990638
H	0.234917	0.765547	-3.192078
N	-0.02728	-1.518569	-1.876677
H	-0.136468	-1.632498	-2.876414
H	-0.605606	-2.196594	-1.395328
C	-0.501245	-1.104372	0.807886
N	-0.908012	-2.01594	1.426684
C	-0.475946	1.278025	0.517516
N	-0.867122	2.28193	0.983341
Cl	3.183661	0.0	0.0
