15

C	-0.362964	0.232304	-1.479091
C	0.0	0.0	0.0
Cl	0.164566	-1.385249	-2.360196
H	1.095956	0.0	0.0
N	-1.753788	0.429222	-1.669821
H	-2.256417	-0.416765	-1.427985
H	-1.953576	0.652423	-2.638159
N	0.40736	1.315519	-1.93981
H	1.388221	1.165633	-1.701645
H	0.327361	1.422098	-2.943639
C	-0.559963	-1.234797	0.532128
N	-1.055158	-2.20719	0.966228
C	-0.460953	1.134546	0.801698
N	-0.821263	2.021852	1.479621
Cl	3.191113	0.0	0.0
