15

C	-0.341858	-0.218596	-1.489211
C	0.0	0.0	0.0
Cl	0.165396	1.427478	-2.337712
H	1.094255	0.0	0.0
N	0.458305	-1.277168	-1.95198
H	1.432099	-1.115644	-1.687946
H	0.402989	-1.370865	-2.957863
N	-1.723901	-0.440526	-1.707851
H	-2.248906	0.391242	-1.465247
H	-1.900926	-0.658227	-2.680923
C	-0.463845	-1.149727	0.780161
N	-0.847796	-2.043637	1.437995
C	-0.565986	1.225694	0.547442
N	-1.057077	2.188848	1.006876
Cl	3.192607	0.0	0.0
