15

C	-0.201158	-0.021207	-1.539042
C	0.0	0.0	0.0
Cl	-1.966247	-0.036023	-1.929619
H	1.101347	0.0	0.0
N	0.360258	1.146994	-2.174725
H	-0.095315	1.992264	-1.846414
H	1.344185	1.185587	-1.911746
N	0.396502	-1.236095	-2.001678
H	1.349429	-1.277744	-1.637293
H	0.443537	-1.19258	-3.014111
C	-0.52994	-1.172794	0.680975
N	-0.965579	-2.102091	1.253182
C	-0.49452	1.235127	0.590641
N	-0.899613	2.242048	1.039864
Cl	3.183448	0.0	0.0
