16

C	-0.40444	0.062514	-1.490665
C	0.0	0.0	0.0
Br	-0.035997	-1.729491	-2.356075
H	1.091916	0.0	0.0
N	-1.821695	0.245371	-1.65558
H	-2.053353	1.191366	-1.365406
H	-2.079118	0.119894	-2.626158
N	0.407005	1.088317	-2.03291
H	0.280279	1.171119	-3.033966
H	1.394382	0.9458	-1.810437
N	-0.544563	-1.19532	0.71746
O	0.171799	-2.18761	0.763378
O	-1.672167	-1.094065	1.200295
C	-0.495445	1.205229	0.655683
N	-0.897793	2.18843	1.157146
Br	3.380284	0.0	0.0
