16

C	-0.384221	-0.086752	-1.482335
C	0.0	0.0	0.0
Br	-0.112887	2.039282	-2.162647
H	1.091741	0.0	0.0
N	0.506282	-0.863995	-2.181543
H	0.427204	-0.778307	-3.185073
H	1.468906	-0.741409	-1.863046
N	-1.738197	-0.374209	-1.690532
H	-2.32436	0.350529	-1.295567
H	-1.956866	-0.486101	-2.672479
N	-0.397184	-1.30697	0.675797
O	-1.139782	-1.245351	1.653252
O	0.082133	-2.326699	0.206347
C	-0.617947	1.099287	0.716763
N	-1.164961	1.951329	1.311528
Br	3.327284	0.0	0.0
