15
Coordinates from ORCA-job run
  C   -0.60547767532828     -0.01583326470352     -0.53539967733438
  C   0.91943972630780     -0.11795165772395     -0.25999829964950
  Cl  -1.04689436673753     -1.43905158391668     -1.54525922949315
  H   1.42171839807371     -0.08570171320015     -1.23835631409503
  C   -0.86104703043663      1.18518649477034     -1.33002497713262
  N   -1.05602100185984      2.16667300430954     -1.94616718823680
  C   -1.43440899194420     -0.02296061444097      0.73886368716129
  H   -2.49601221099701     -0.01214047841588      0.49046292450354
  H   -1.19514888254157     -0.91636159054331      1.31296263891251
  H   -1.20045467925450      0.86354785527807      1.33309291726569
  N   1.20763742796986     -1.31203937005422      0.52080918980565
  H   2.12672459908493     -1.24173308039652      0.93930185089069
  H   1.19460405386377     -2.12343095104389     -0.08487752041394
  C   1.33866425529049      1.06752625570760      0.49560817621144
  N   1.68767637850899      2.00527069437355      1.10998182160459
