15
Coordinates from ORCA-job run
  C   -0.64963604618697     -0.23377717597463     -0.20294235357755
  C   0.84828660800643      0.06050132314839      0.07715606386498
  Cl  -0.99037828777666     -1.96074051555840      0.08453331898993
  H   0.95579124384132      1.15274889731559     -0.03046403296677
  C   -0.87829492268860      0.06140387554875     -1.61881242026458
  N   -1.03791582956995      0.36230272633948     -2.74347741887912
  C   -1.56305601855325      0.61345718438807      0.67465935180132
  H   -1.36237852623273      1.67568526393118      0.51231243959135
  H   -1.39398802253430      0.36698644414680      1.72415252281883
  H   -2.60605007598110      0.41087846396774      0.43101968873178
  N   1.69925432792984     -0.70355281600609     -0.81627079459491
  H   1.75994667559668     -0.24346931603981     -1.71653284555469
  H   2.63240554181434     -0.79840311446071     -0.43791738855871
  C   1.15627097859383     -0.26153578771999      1.47326369562187
  N   1.42874235374113     -0.50248545302638      2.58932017297627
