10
Coordinates from ORCA-job run
  C   -0.58759425877984     -0.30971218812508      0.16964956135231
  C   0.58919240140107      0.30960634161771     -0.16925819548623
  C   -0.92401626957318     -0.54835910676753      1.53635116504914
  N   -1.20673849918052     -0.74742095416700      2.66304057356177
  C   -1.50992907587170     -0.73230464888350     -0.83476085937273
  N   -2.27592130260897     -1.08354719996995     -1.65881063603855
  C   1.51194359264003      0.73174621229571      0.83496787392418
  N   2.27849150145866      1.08201222093754      1.65876347330255
  C   0.92396913693217      0.54884548548022     -1.53621243098346
  N   1.20260277358228      0.74913383758187     -2.66373052530898
