10
Coordinates from ORCA-job run
  C   -0.59420398111870     -0.29807972616193      0.17155696758595
  C   0.59344237221152      0.29770234889217     -0.17169375109255
  C   -0.93939601576896     -0.50998053143662      1.54052480959523
  N   -1.22841812556724     -0.68712163795846      2.66926868251682
  C   -1.51838594379717     -0.72296354705846     -0.83016021617853
  N   -2.28565726386082     -1.07539380741940     -1.65245084995954
  C   1.51746334929081      0.72252450162673      0.83020327470164
  N   2.28455383094454      1.07544035312553      1.65238950584371
  C   0.93933340402015      0.51015378752413     -1.54036001750866
  N   1.23126837364585      0.68771825886630     -2.66827840550405
