10
Coordinates from ORCA-job run
  C   0.55430155731519      0.33798006211585     -0.22268390598041
  C   -0.55428124514170     -0.33761540708708      0.22204807329624
  C   0.61544829639120      1.76321015241723     -0.16898138254959
  N   0.67204104751490      2.93966198732080     -0.12712800135024
  C   1.67851272101982     -0.36514137897569     -0.75163680868602
  N   2.60976645505593     -0.94001396531818     -1.18899783555226
  C   -0.61536186985212     -1.76297878325909      0.16833099916150
  N   -0.67235274078516     -2.93945165515238      0.12712976263247
  C   -1.67840066989420      0.36514200383993      0.75176230283039
  N   -2.60967355162386      0.93920698409861      1.19015679619791
