10
Coordinates from ORCA-job run
  C   0.57167658578841      0.35384889023497     -0.13174733545392
  C   -0.57403764725998     -0.35466600470071      0.12993356244681
  C   1.78179922781017     -0.31358131856226     -0.49027431435416
  N   2.78588682474691     -0.85543049787208     -0.78587323427394
  C   0.58827368546530      1.77900848700520     -0.05065245500675
  N   0.61115739263524      2.95544200595893      0.01482687982578
  C   -0.58915744141339     -1.77999800976734      0.05032086648990
  N   -0.60772917763542     -2.95666841547754     -0.01377936505137
  C   -1.78335099212105      0.31313997196477      0.49012425853642
  N   -2.78451845801618      0.85890489121607      0.78812113684123
