10
Coordinates from ORCA-job run
  C   0.59370956628741      0.30441538733309     -0.15969361611248
  C   -0.59391676112403     -0.30449175364586      0.15967839822456
  C   1.49343541397938      0.73824080987820      0.86028962121002
  N   2.24063417147717      1.09840546675394      1.69752110534778
  C   0.96368815295388      0.52213992717170     -1.52127013557334
  N   1.27506805246742      0.70489331278339     -2.64316536617590
  C   -1.49368256071921     -0.73815802123462     -0.86034106085584
  N   -2.24089470107427     -1.09834174013672     -1.69757509856416
  C   -0.96387371284344     -0.52190076776349      1.52128161174822
  N   -1.27516762140432     -0.70420262113963      2.64327454075114
