10
Coordinates from ORCA-job run
  C   0.58243816504228      0.33315250072718     -0.14254166682145
  C   -0.58245850621459     -0.33369341149316      0.14289350408874
  C   1.75629340509758     -0.37622973694454     -0.53877938728061
  N   2.72974079269132     -0.95415336349393     -0.86633778488114
  C   0.65411718122277      1.75619542751855     -0.05249576837395
  N   0.71935330389986      2.93073649806293      0.02012917589626
  C   -0.65394418873858     -1.75666018561296      0.05285538153361
  N   -0.71951032417859     -2.93106978759195     -0.02111312740395
  C   -1.75617991735135      0.37604903919061      0.53862428439998
  N   -2.72884991147070      0.95567301963727      0.86576538884251
