10
Coordinates from ORCA-job run
  C   -0.58273416061639     -0.30486923299386      0.19423684832653
  C   0.58246725351506      0.30646571304710     -0.19510411286119
  C   -0.81503852366568     -0.63541828406743      1.56356390209042
  N   -1.01314157086946     -0.91027730752156      2.69241006564944
  C   -1.59493843704499     -0.63188890294312     -0.75794239894946
  N   -2.43397158338528     -0.90640695529643     -1.53876934333951
  C   0.81484001730866      0.63733963631420     -1.56438656804475
  N   1.01346076529287      0.91521419720983     -2.69237936215504
  C   1.59500451770358      0.63034894666277      0.75772547836708
  N   2.43505172176161      0.89849218958851      1.53964549091647
