10
Coordinates from ORCA-job run
  C   -0.57018416467294     -0.33102705133648      0.18774542179367
  C   0.57204512866873      0.33031051090238     -0.18831863173741
  C   -0.81554757611773     -0.65124807713000      1.55726942038283
  N   -1.02326653849445     -0.91913858287053      2.68599105199884
  C   -1.54687805352344     -0.71627288909902     -0.77956032742787
  N   -2.35683771332905     -1.03613732031317     -1.57374322517784
  C   1.54795038145641      0.71672819177817      0.77922167758867
  N   2.35540525603876      1.03747568325371      1.57542727060467
  C   0.81621889418156      0.65104540940198     -1.55786819101704
  N   1.02209438579215      0.91826412541296     -2.68716446700850
