10
Coordinates from ORCA-job run
  C   0.56676173319011      0.34166895715619     -0.17934280634115
  C   -0.56964562821221     -0.33942154187040      0.17810696751915
  C   0.66406930510992      1.75450792383510     -0.00062716718180
  N   0.75283135328528      2.92142051930051      0.13935713888356
  C   1.68573521654480     -0.34475987936803     -0.74064378998507
  N   2.61213788059466     -0.91042388216017     -1.19975722365896
  C   -0.66532288496369     -1.75206889007309     -0.00505816257526
  N   -0.74947375497869     -2.91788572140863     -0.15599519139117
  C   -1.68683810638056      0.34388512595864      0.74598494829673
  N   -2.61025511418964      0.90307738862988      1.21897528643400
