10
Coordinates from ORCA-job run
  C   0.54188787295211      0.34052443033416     -0.24774399784422
  C   -0.54382268610089     -0.34123983711555      0.24176739503737
  C   0.60585274684087      1.76488671624835     -0.17520862736569
  N   0.66308114784192      2.94031731012847     -0.11125764521844
  C   1.63892425966680     -0.35408162580765     -0.84060571716571
  N   2.54783711512558     -0.91978102434434     -1.33354257755816
  C   -0.60542092628383     -1.76589538789445      0.17725678823316
  N   -0.65750565536935     -2.94240081723604      0.13088681308519
  C   -1.64087397786889      0.35472919966477      0.83386266669157
  N   -2.54995989680433      0.92294103602227      1.32358490210493
