10
Coordinates from ORCA-job run
  C   -0.56316459988147     -0.34073772212479      0.19515859909902
  C   0.56169462562089      0.34100989409222     -0.19629807478139
  C   -0.63854624919060     -1.76127335548643      0.07479280033468
  N   -0.70533509413199     -2.93398139404135     -0.02119791717019
  C   -1.68947222120997      0.35071362412622      0.73494820161000
  N   -2.62276969630911      0.91589105906357      1.18047976442644
  C   0.63881378240584      1.76131633910490     -0.07428739023985
  N   0.71031350156683      2.93347262105053      0.02559397350814
  C   1.68770979125070     -0.35062742409072     -0.73652363446426
  N   2.62075615987888     -0.91578364169414     -1.18266632232260
