10
Coordinates from ORCA-job run
  C   0.57989441049606      0.34730185399399     -0.11965916154990
  C   -0.57945869621683     -0.34693514879934      0.11950325673263
  C   1.50667699562990      0.61280502048415      0.93318785697165
  N   2.27690082927303      0.83430779394039      1.79730436218440
  C   0.89242421066124      0.82463771487055     -1.42834030077809
  N   1.15597545610160      1.22173757482111     -2.50623064068055
  C   -0.89244000981076     -0.82384887110597      1.42824150396013
  N   -1.15659418808933     -1.22117246381919      2.50592333590866
  C   -1.50636150187803     -0.61227346473345     -0.93335759544646
  N   -2.27601750616687     -0.83556000965226     -1.79757261730248
