10
Coordinates from ORCA-job run
  C   0.57793739942605      0.34770990625345     -0.12639346881757
  C   -0.57788387782962     -0.34742752503943      0.12670277787462
  C   1.78392236393611     -0.33453385404042     -0.47035491949478
  N   2.78266249168890     -0.89195499796318     -0.75456841402126
  C   0.60820035308540      1.77303400052485     -0.05212660088193
  N   0.63977655623070      2.94972262851763      0.00627126253683
  C   -0.60805766209077     -1.77281486629082      0.05262314929148
  N   -0.64073957167057     -2.94943140417818     -0.00720337991369
  C   -1.78379864040784      0.33455053447173      0.47140658824134
  N   -2.78301941236836      0.89114557774437      0.75564300518495
