10
Coordinates from ORCA-job run
  C   0.57301326395647      0.34954806779150     -0.14400675884524
  C   -0.57186600279497     -0.34990321138931      0.14457494009181
  C   1.77605614005478     -0.32912340029000     -0.50484600477788
  N   2.77223986748282     -0.88354409912223     -0.80352327703964
  C   0.59392393374878      1.77604303845914     -0.09107081897017
  N   0.61710189715603      2.95354672070857     -0.04705260347051
  C   -0.59340290141236     -1.77637042171507      0.09129681516250
  N   -0.61897124844493     -2.95397871276599      0.05078757399739
  C   -1.77549762558919      0.32874861351604      0.50349021037155
  N   -2.77259732415743      0.88303340480736      0.79934992348018
