10
Coordinates from ORCA-job run
  C   -0.58946628682280     -0.33321431978772      0.10932920725809
  C   0.58956274232575      0.33419305608015     -0.10938030487164
  C   -1.48641567639962     -0.60911649783756     -0.96646708112467
  N   -2.23051487016593     -0.83952817057528     -1.85091716193565
  C   -0.95252295941328     -0.77134739016395      1.41863462976586
  N   -1.25770670599329     -1.13533136457368      2.49721507169282
  C   0.95261667329723      0.77173086072402     -1.41886270020612
  N   1.25781341788333      1.13492628159596     -2.49777223595883
  C   1.48656814387019      0.60977571207321      0.96649226801924
  N   2.23006552141842      0.83891183246486      1.85172830736089
