10
Coordinates from ORCA-job run
  C   -0.60513013455141     -0.26899870123860      0.18052983852717
  C   0.60390523059513      0.26981489489731     -0.18183113415994
  C   -0.93664604042551     -0.46699735335621      1.55494772246082
  N   -1.21386821780901     -0.63242793538767      2.68837700016989
  C   -1.56596737702920     -0.64573963255452     -0.80587602972462
  N   -2.36339746571694     -0.95899952136343     -1.61523275357609
  C   1.56447416608833      0.64521187332483      0.80528700826509
  N   2.36087127137597      0.95627363557757      1.61643240475567
  C   0.93702691524427      0.46788634572695     -1.55573816623221
  N   1.21973165222838      0.63297639437378     -2.68789589048579
