10
Coordinates from ORCA-job run
  C   0.59818633544576      0.30349804664260     -0.14328143511809
  C   -0.59889030558092     -0.30347821461114      0.14288344519824
  C   1.47004247348480      0.73455603939861      0.90169478682116
  N   2.19216159011640      1.09232718543603      1.76167467430994
  C   1.00633815062300      0.52076851662296     -1.49388384238526
  N   1.34732237943572      0.70445945013196     -2.60697209877326
  C   -1.46877746330708     -0.73845396555568     -0.90208257766365
  N   -2.18899516607781     -1.10295039483830     -1.76090109586179
  C   -1.00759777614909     -0.51705118598239      1.49380772273256
  N   -1.34879021799077     -0.69367547724466      2.60806042074013
