10
Coordinates from ORCA-job run
  C   0.59304591585761      0.30069220232629     -0.16996070346240
  C   -0.59266944697987     -0.30086885197723      0.16981797655089
  C   0.93092170445648      0.53581673683436     -1.53695371618941
  N   1.21527527972629      0.73296635496385     -2.66355925754698
  C   1.52278231958682      0.70861870874742      0.83372982860012
  N   2.29419215939422      1.04823291500387      1.65747959163617
  C   -1.52211252761135     -0.70921534464257     -0.83392163223362
  N   -2.29346172165347     -1.04900130461858     -1.65766247596904
  C   -0.93091648924147     -0.53579442024783      1.53675743890381
  N   -1.21605719353526     -0.73244699638957      2.66327294971046
