10
Coordinates from ORCA-job run
  C   0.59729523495261      0.28931917326586     -0.17597357131930
  C   -0.59615936786905     -0.28971404981196      0.17569480487663
  C   0.93851280471006      0.49081504331423     -1.54736123219742
  N   1.22475867437968      0.65908450582844     -2.67805717253609
  C   1.53029862543412      0.70954201726105      0.81944021148791
  N   2.30412166698894      1.05958724632967      1.63652550442496
  C   -1.52980721418296     -0.70891737315207     -0.81959870733781
  N   -2.30455981894310     -1.05801765361404     -1.63618088945079
  C   -0.93820985931404     -0.49031941823904      1.54701621125299
  N   -1.22525074615625     -0.65937949118213      2.67749484079894
