10
Coordinates from ORCA-job run
  C   0.56151239393468      0.35519106419850     -0.17159579799921
  C   -0.56120616150230     -0.35455036094885      0.17282384324559
  C   0.54798055181975      1.78240359913844     -0.19872633108819
  N   0.54461584543046      2.96072287811861     -0.22323715396951
  C   1.77526097644165     -0.31342475728561     -0.51472341829714
  N   2.78166200184404     -0.85795088076564     -0.79677164151767
  C   -0.54829155067115     -1.78190162408175      0.19545299813203
  N   -0.54526948673602     -2.96037181526219      0.21312252560593
  C   -1.77492458026778      0.31300798110565      0.51783240869328
  N   -2.78033999029332      0.85687391578284      0.80482256719487
