10
Coordinates from ORCA-job run
  C   0.56680495703692      0.35511670178363     -0.14928040256663
  C   -0.56805578021221     -0.35678815986706      0.14822659099344
  C   0.61015833562274      1.77186461799782      0.02186033836519
  N   0.65499790603582      2.94100794560808      0.16303995685139
  C   1.73769403856299     -0.29949914096792     -0.63766840093346
  N   2.70850607916929     -0.83093592408716     -1.04294431472624
  C   -0.61080764476510     -1.77376229717397     -0.02016843070248
  N   -0.65256373820309     -2.94363317760736     -0.15661038116816
  C   -1.73873707861300      0.29959962126944      0.63514320416378
  N   -2.70799707463436      0.83602981304451      1.03740183972317
