10
Coordinates from ORCA-job run
  C   0.56698754645385      0.34914900418060     -0.16540670249343
  C   -0.56728568676709     -0.34916539570430      0.16469825434901
  C   1.75096374867781     -0.32997334581814     -0.58385145648045
  N   2.73173258287399     -0.88451309342402     -0.92964471891170
  C   0.59588934022498      1.77495975614847     -0.09966126024945
  N   0.62620098339538      2.95194464309431     -0.04697301288379
  C   -1.75120195772468      0.32996153108415      0.58330072170960
  N   -2.73164669138542      0.88469316994597      0.92973297361687
  C   -0.59614177285593     -1.77501732363048      0.09929072458490
  N   -0.62649809289290     -2.95203894587656      0.04751447675843
