10
Coordinates from ORCA-job run
  C   0.54824084928159      0.35431784866457     -0.21105965758674
  C   -0.54736482875943     -0.35446091931877      0.21372354115006
  C   1.71976130784381     -0.31544037021572     -0.67694642783199
  N   2.68881360803034     -0.86175987896883     -1.06621637114674
  C   0.54759621325383      1.78187888170063     -0.20108270808513
  N   0.55367230327939      2.96042090947717     -0.19478504025482
  C   -1.72042899580420      0.31512546896067      0.67581258584116
  N   -2.69159190246042      0.86253806587148      1.05819477064848
  C   -0.54665325442542     -1.78203871292745      0.20348784826808
  N   -0.55304530023948     -2.96058129324375      0.19887145899764
