10
Coordinates from ORCA-job run
  C   -0.56738970046190     -0.34610136054132      0.17061211532059
  C   0.56714709628660      0.34600532674208     -0.17137541995988
  C   -0.59656742938607     -1.77288109696335      0.13072282126797
  N   -0.62769461190990     -2.95060056405010      0.09937346955389
  C   -1.75135989664152      0.34063685685234      0.57652754088780
  N   -2.73196854037867      0.90149169988664      0.91250384779880
  C   0.59660540503336      1.77272050107731     -0.12938971931915
  N   0.62705351318259      2.95036304654249     -0.09439136930650
  C   1.75098739764716     -0.34053775226443     -0.57796931873798
  N   2.73118676662835     -0.90109665728165     -0.91561396750554
