10
Coordinates from ORCA-job run
  C   -0.55546028537229     -0.34991673905198      0.20030048177756
  C   0.55578293683717      0.34979299132872     -0.19821750055120
  C   -0.58737144725973     -1.77561009962428      0.13354788428883
  N   -0.61936809342661     -2.95255043288655      0.08046713167142
  C   -1.71193342383500      0.32770444149961      0.69169661324501
  N   -2.67008987658820      0.88160979172383      1.09676466865061
  C   0.58805995775908      1.77549132254672     -0.13141046752550
  N   0.62099796987863      2.95238357402863     -0.07778422967408
  C   1.71139083854566     -0.32761847206851     -0.69194005474797
  N   2.66799142346128     -0.88028637749618     -1.10242452713468
