10
Coordinates from ORCA-job run
  C   -0.58848872045119     -0.33774191845531      0.10099331210248
  C   0.58317012113913      0.34773796636981     -0.09909941699591
  C   -0.93143454842380     -0.84464609708486      1.39077822911774
  N   -1.21986644234702     -1.27160801979498      2.45073764499721
  C   -1.49628542820891     -0.57005686767381     -0.97606288546440
  N   -2.25045779164515     -0.76935486621127     -1.85953420636223
  C   0.93113867782957      0.84636633672948     -1.39064608097963
  N   1.23024767273584      1.25531686002389     -2.45474162354182
  C   1.49236538827737      0.57679803194897      0.97748354206471
  N   2.24961107109416      0.76818857414807      1.86009148506185
