17
Coordinates from ORCA-job run
  C   -0.81636722621629      0.06547342630648     -0.11638292977318
  C   0.71140154513248      0.05228158996518      0.01637602229276
  Br  -1.39001393687296     -0.83070025182338     -1.76297781147223
  H   0.88326150472468      0.58339522328958      0.97822619901252
  N   -1.39367096763682     -0.69103755262679      0.97495846460326
  H   -1.12514512114092     -0.26023569868350      1.85500780529304
  H   -2.40494445142708     -0.68809298849449      0.90750165143320
  N   -1.23789325324349      1.45698428890019     -0.26468743203805
  H   -2.21262080890037      1.50342405108403     -0.53878620903474
  H   -1.14047573845133      1.91387350560365      0.63830101116807
  N   1.30318715675165      0.74246748801059     -1.11568842701753
  H   0.83425206566329      1.63016333849746     -1.24861165369484
  H   2.28644031943025      0.90738501751461     -0.94019980059641
  C   1.30710500234000     -1.33974920578111      0.13851261896078
  H   0.85420533708827     -1.89953326919216      0.95571856956981
  H   2.38365918591644     -1.26225721458010      0.31778386602898
  H   1.15661938684221     -1.88084174799023     -0.79605194473542
