17
Coordinates from ORCA-job run
  C   -0.81415383290892      0.04231058595281      0.13386292073511
  C   0.69633608057015      0.01136937301017      0.16880454449293
  Br  -0.80542591356048      2.67768659281334      1.08184090521264
  H   0.99302125630380      0.33734001516050      1.17159089502506
  N   -1.35817505043752      0.17700440010277     -1.05965360420687
  H   -2.34178057374667      0.37426199755391     -1.15389166940274
  H   -0.71806066545072      0.59600957752402     -1.72908960197333
  N   -1.49466399147231     -0.44785386326932      1.17835070108882
  H   -1.07367383791142     -0.21487289085499      2.06643263000774
  H   -2.49183796503249     -0.28715875706358      1.18152522024305
  N   1.16864310876970      0.89358511993430     -0.88548786389957
  H   2.15193480289820      0.73284747778637     -1.06260929799143
  H   1.03337910920288      1.85104615410597     -0.56414915704378
  C   1.16877534476113     -1.42107145621986     -0.08451444920254
  H   2.25808341218634     -1.46364146967835     -0.00761047832997
  H   0.74892971528770     -2.11174888331935      0.64815691751049
  H   0.87766900054064     -1.74511397353872     -1.08555861226563
