17
Coordinates from ORCA-job run
  C   -0.83872215907628      0.12312307590326      0.23443506489260
  C   0.68193884700057     -0.01539405714941      0.37911011781953
  Br  -1.60340038063327     -1.43207321355241      1.53072590145283
  H   0.89076036634873     -0.11274504200592      1.44831011036025
  N   -1.31043756382119      1.35860666203278      0.69003282973543
  H   -2.26630583331546      1.32623040447635      1.01411509380511
  H   -0.69653390083287      1.77886561035066      1.37188121302459
  N   -1.29068705110416     -0.14306692882919     -1.07336705765299
  H   -1.25679884985034     -1.12703730376947     -1.30224300452406
  H   -2.22469781509899      0.21573575100817     -1.22420436148256
  N   1.26338552798387      1.25795511290929     -0.05784177736126
  H   2.27433201652468      1.18003336143293     -0.04321862378559
  H   0.98104997314084      1.43332222646055     -1.01679623378213
  C   1.23266993656377     -1.23613024038740     -0.35051357395193
  H   2.30469126618791     -1.32040621374254     -0.15374153104774
  H   0.75871407842879     -2.16205490904586     -0.01835507324517
  H   1.10004154155340     -1.12396429609179     -1.42932909425693
