17
Coordinates from ORCA-job run
  C   -0.81565540423370     -0.01579611317180      0.12996849447132
  C   0.69335451124670      0.05258530252068      0.17386258652383
  Br  -0.98761558873349      2.58517663896158      1.15402062333057
  H   0.96344061549226      0.36790557792954      1.18749964930805
  N   -1.36195026094859      0.11739972734423     -1.06257600366219
  H   -0.74833639839620      0.59711098193777     -1.71586811424708
  H   -2.35612967114182      0.25083821005207     -1.15780632672689
  N   -1.46675836617027     -0.58050706213512      1.15549377315370
  H   -1.06594691459409     -0.34561618144788      2.05240156745597
  H   -2.47232135563697     -0.48519695631930      1.15738886014887
  N   1.11089933163375      0.99462023784200     -0.85136615484606
  H   2.10352572284226      0.90493983080015     -1.02659419229049
  H   0.91056466856221      1.93119535455826     -0.50356236674243
  C   1.26088870349284     -1.33744839152892     -0.11798635489334
  H   0.88418675638071     -2.07580340782150      0.59127492183881
  H   0.99659862241647     -1.64990173041331     -1.13009382801298
  H   2.35025502778794     -1.31050201910841     -0.03505713480966
