17
Coordinates from ORCA-job run
  C   -0.84443360434212      0.12352160248224      0.07950083545542
  C   0.68970885673893      0.14873431730535      0.12138189155376
  Br  -1.35714268291315     -0.82426051423234     -1.69618557369762
  H   0.89167643778460      0.63180941021027      1.08678580058952
  N   -1.39617186040736     -0.70791553380186      1.12524974257007
  H   -2.13947224691865     -1.30224242276581      0.78965131303066
  H   -1.75351545935489     -0.09606049565217      1.84965643687221
  N   -1.32643950306428      1.43988628256744      0.12290749624155
  H   -0.78070800682982      2.02633278603809     -0.49928326766766
  H   -2.31635962203949      1.50123727132913     -0.07510260632937
  N   1.17050452547421      1.06047393436268     -0.91734656582288
  H   1.19437622050166      0.57048542469452     -1.80544303383585
  H   2.11449078532891      1.35745525002189     -0.70315273983126
  C   1.33678560317642     -1.22770475094966      0.12977657849427
  H   2.40613731344360     -1.12315481719372      0.33349792082432
  H   1.21881416368830     -1.71869822089259     -0.83818176047880
  H   0.89174907973313     -1.85989952352341      0.89828753203170
