17
Coordinates from ORCA-job run
  C   -0.77825976622812      0.09582304480915     -0.11427209909586
  C   0.74900121616998      0.10227177696099      0.11330113202963
  Br  -1.20609010998093     -0.71870851967127     -1.85604527620000
  H   0.86103515507381      0.60841345042819      1.08873403017751
  N   -1.41542185909906     -0.72916179302940      0.88651508648007
  H   -2.42435398604612     -0.68380549241237      0.79904602070929
  H   -1.15344597879992     -0.39172288669077      1.80834028265449
  N   -1.21552247773441      1.48182572100782     -0.23014044564130
  H   -1.14608772090361      1.91334537343351      0.68778772062112
  H   -2.18294557422651      1.52787706265556     -0.52973362358327
  N   1.49412207399718      0.88475455157691     -0.85478901909074
  H   0.96850955997573      1.72706088228257     -1.06196804487090
  H   1.55822286052471      0.35588468971436     -1.71785186498104
  C   1.35399859006386     -1.28633455595573      0.23153687097230
  H   1.26442645842687     -1.81892507014741     -0.71849355419276
  H   0.85873861948060     -1.88163943422402      0.99667945322116
  H   2.41407293930591     -1.18695880073813      0.47135333079029
