17
Coordinates from ORCA-job run
  C   -0.85197324197331      0.34673771584769      0.25762451417332
  C   0.66635799645526      0.28828520733134     -0.00703274264719
  Br  -1.08208969875995      0.96981056224956      2.19246246758163
  H   1.06430645391800      1.27271720234586      0.25873314815344
  N   -1.56218730312467      1.32192703125249     -0.53161793702390
  H   -1.18283648740405      1.23669072985028     -1.47225451799620
  H   -1.35092624271612      2.25253448967661     -0.19388969585722
  N   -1.44041324732635     -0.91236893139607      0.01496536986253
  H   -1.14700447949472     -1.62183776930154      0.67237398944992
  H   -2.44845619562316     -0.82237212709624      0.01690652631610
  N   0.80442668381659      0.14408595769573     -1.46010218127319
  H   0.55386947145888     -0.80293633517508     -1.72163655457841
  H   1.76739785298773      0.30321145135612     -1.73079969442015
  C   1.40308826124348     -0.78767243106971      0.78585962074755
  H   1.08756097055298     -1.78456866758199      0.46388323314142
  H   2.47681846409173     -0.71239342221256      0.59458010715618
  H   1.24306074189766     -0.69285066377251      1.86094434721416
