17
Coordinates from ORCA-job run
  C   -0.75742549911610      0.20488652880509      0.19688453637057
  C   0.77623032360068      0.12207850610756      0.27580238429256
  Br  -1.12337889886686      2.31799907567710      0.92204058479154
  H   1.04284843572751      0.37028688584592      1.30830175022795
  N   -1.25558795169937      0.13162979388257     -1.09363245312978
  H   -2.26423248233518      0.18178266674966     -1.14534898565381
  H   -0.84688587499519      0.84160905273491     -1.68388785346027
  N   -1.40270507319605     -0.63161367438782      1.09538311012746
  H   -2.40986787915856     -0.53722810041596      1.08602387131705
  H   -1.06032904703105     -0.49774363342617      2.03696836405164
  N   1.49207193829872      1.03324916135580     -0.58925686570880
  H   1.42833817151925      0.75368641065440     -1.55984549720441
  H   1.16145402801339      1.98309815108869     -0.47276742890758
  C   1.21933800544162     -1.30713850289447     -0.03231396004131
  H   0.91829591976328     -1.58647617000031     -1.04481538960116
  H   2.30695989447294     -1.35690845546373      0.04070549808046
  H   0.77487598956099     -2.02219769631324      0.65875833444792
