17
Coordinates from ORCA-job run
  C   -0.77978973453513      0.09073487741489      0.03168002562013
  C   0.75849756045246      0.06199600322126      0.14986335483382
  Br  -1.30685012463137     -0.89264603481666     -1.66918697593144
  H   0.93184307897836      0.48558240470721      1.14953135237463
  N   -1.37482391194950     -0.67071969883712      1.10165798566198
  H   -2.35572091037501     -0.84636041300594      0.91964267374260
  H   -1.29585197374692     -0.11898252386922      1.95106690768196
  N   -1.24451863662203      1.43673020902949     -0.00932687120396
  H   -2.25689779865524      1.46562116992948     -0.03076973352839
  H   -0.89544827595945      1.92450352184226     -0.82459161734646
  N   1.47144882331031      0.91060859460275     -0.78848863526950
  H   1.26847080598694      1.89055653763719     -0.64470785260322
  H   1.25169143560981      0.65198757309291     -1.74336610953028
  C   1.34106246246885     -1.34137187262169      0.11291814318058
  H   0.76359315710578     -2.02075531813591      0.73827933505143
  H   2.37316704449674     -1.29927420163356      0.46448486349075
  H   1.34812699806538     -1.72821082855732     -0.90768684622461
