17
Coordinates from ORCA-job run
  C   -0.68564907094043      0.40280460322611      0.19962713963474
  C   0.84082374051611      0.19875869083039      0.09287686170640
  Br  -1.05704127299726      0.96839482883297      2.14435368647529
  H   1.28552318687441      1.10220596616678      0.51798223142316
  N   -1.09618130410194      1.52799693271732     -0.61580115309913
  H   -1.58602700756759      1.18217767871211     -1.43196560102280
  H   -1.69046813206895      2.16757080528894     -0.11006336200066
  N   -1.39257118387682     -0.76782631323357     -0.15709554238080
  H   -2.39332466938440     -0.63706175967305     -0.07529457545313
  H   -1.11528999221119     -1.56992915099637      0.39325236037263
  N   1.26197496346085      0.12660978494744     -1.29870896980849
  H   0.79044093381070     -0.64890279088920     -1.75203900926287
  H   0.97360320911868      0.97879367827800     -1.76572612534020
  C   1.35615658205895     -1.02508073498867      0.83428721175502
  H   1.04159361988642     -1.94648204436347      0.33327277375511
  H   1.01902872124718     -1.04935041914694      1.87146901515498
  H   2.44640767617528     -1.01267975570880      0.81857305809074
