17
Coordinates from ORCA-job run
  C   -0.82890348097300      0.19548934728111     -0.13866030274766
  C   0.69780556828039      0.11760009769110      0.09686922261640
  Br  -1.25215000514626     -0.61728003128973     -1.89242802543884
  H   0.82794487711188      0.63672158354950      1.06282086996475
  N   -1.65962873785553     -0.51078712259422      0.81923592576261
  H   -1.42984019535697     -0.18321194472039      1.75377265443914
  H   -1.50107146221310     -1.51049230908451      0.77948559592233
  N   -1.18919655032953      1.58760995233477     -0.22370992371499
  H   -0.90867157215693      2.05248874962936      0.63558270373098
  H   -2.19752138756345      1.65914090645690     -0.30876639994655
  N   1.50115844549492      0.82958852174154     -0.88198698624499
  H   1.03384583478104      1.69918337083553     -1.11498199107077
  H   1.53447339411323      0.28030802933754     -1.73420681623810
  C   1.23125780334590     -1.29577825339685      0.25910603649338
  H   2.30364082186499     -1.24124107775878      0.45197775919582
  H   1.07586628935423     -1.87569902595484     -0.65398890482054
  H   0.76099035724817     -1.82364079405804      1.08987858209703
