17
Coordinates from ORCA-job run
  C   -0.70525484722225      0.35716255654025      0.31343419151429
  C   0.82413439868099      0.16534092879907      0.26764373722433
  Br  -1.00496485525886      2.24689879611333      1.05147742994151
  H   1.17705596412122      0.41814932249285      1.27072283631692
  N   -1.28446476675254      0.21141705502958     -0.96998463782180
  H   -0.87337623594960      0.84834801689126     -1.64040895367932
  H   -2.28597385877118      0.35747383851306     -0.94516313206528
  N   -1.29838979841314     -0.50894847353214      1.30582390624236
  H   -2.16666366150573     -0.12347902601544      1.65423032949772
  H   -1.49289564498855     -1.40108200336005      0.86244910190241
  N   1.53185251416216      1.00177771855226     -0.68502138857929
  H   1.28094416035949      1.97696968537026     -0.58216404281535
  H   1.36800424931075      0.70244279114076     -1.63799837541488
  C   1.16070495015297     -1.29510487780500     -0.01391884406575
  H   0.74577281864784     -1.61245109014690     -0.97403931312278
  H   0.77717625638932     -1.94637156467097      0.77143489939567
  H   2.24633835703711     -1.39854367391218     -0.04951774447078
