17
Coordinates from ORCA-job run
  C   -0.84312303884524      0.34132604996419      0.24474163211760
  C   0.68709300034381      0.18146828546975      0.20331785666578
  Br  -1.09265373108140      2.31738291355485      0.94688074680085
  H   1.05682096217253      0.44644401364852      1.20459171836933
  N   -1.38737432487113      0.14308285695603     -1.01663918986911
  H   -2.37509469963539      0.35195337927807     -1.05203525003170
  H   -0.84923699357098      0.62368056710329     -1.72647871282247
  N   -1.57367893983072     -0.42142934780909      1.20431314633664
  H   -1.58196950866861     -1.39479041702068      0.92508269865586
  H   -1.20079537902019     -0.31294813470067      2.13796601232018
  N   1.21333476125194      1.04117885298263     -0.85329469207817
  H   1.17314221578256      2.00864449427141     -0.55365228047734
  H   2.18137617200222      0.80852004553613     -1.03840430195168
  C   1.06811975787700     -1.26302934365098     -0.10132498278451
  H   0.66713620434774     -1.94711481663927      0.64794786700966
  H   0.69903638026363     -1.55361229560738     -1.08539233155844
  H   2.15686716148223     -1.36875710333686     -0.08761993670246
