17
Coordinates from ORCA-job run
  C   -0.75194673181799      0.44286766560013      0.21005403995810
  C   0.77062327831344      0.20685192405113      0.03575387308213
  Br  -1.04787850897913      0.95138574077397      2.16436650949644
  H   1.26362449587335      1.15138298396186      0.30025391733439
  N   -1.16557201695921      1.48028907113618     -0.66094019815370
  H   -2.16632765152761      1.61552823582549     -0.58557725376405
  H   -0.68456906979102      2.34934316742032     -0.46568131231398
  N   -1.62783048625784     -0.67321769169121     -0.02178050549323
  H   -1.45377780396975     -1.42334208220592      0.63313084683808
  H   -1.49402461148759     -1.00083235778772     -0.97203577676964
  N   1.10010733230331     -0.09299432913876     -1.35396283149884
  H   0.88647467567460     -1.06082036186256     -1.56508651001867
  H   0.55710215297358      0.49776237540325     -1.97230431755410
  C   1.33894434848697     -0.89749209028196      0.90979254359919
  H   2.39687264485311     -1.01876790139196      0.67183845021497
  H   1.23655980646186     -0.67898760867145      1.97069172553395
  H   0.84061814584996     -1.84995674114083      0.70148679950899
