13

C	0.0	0.0	0.0
C	-0.529921	0.273576	-1.400384
Cl	1.768002	0.0	0.0
H	-0.211339	-0.534735	-2.059134
H	-1.654983	0.225734	-1.159515
C	-0.467431	0.974557	0.983624
N	-0.626953	1.831612	1.772104
N	-0.438748	-1.397891	0.445322
O	-0.516591	-2.248377	-0.428494
O	-0.563545	-1.574195	1.646538
C	-0.096601	1.558544	-1.903603
N	0.221662	2.600611	-2.34569
F	-2.558028	0.0	0.0
