13

C	0.0	0.0	0.0
C	-0.498785	0.30304	-1.409796
Cl	1.767739	0.0	0.0
H	-0.153301	-0.48708	-2.077096
H	-1.616864	0.252536	-1.220567
C	-0.477306	0.957279	0.993162
N	-0.623026	1.802358	1.797873
N	-0.438327	-1.407381	0.407632
O	-0.562432	-1.614816	1.6038
O	-0.510044	-2.236454	-0.487399
C	-0.048431	1.598451	-1.876686
N	0.291814	2.643809	-2.293802
F	-2.520677	0.0	0.0
