13

C	0.0	0.0	0.0
C	-0.550542	0.035542	-1.416689
Cl	1.767894	0.0	0.0
H	-1.684229	0.032508	-1.140797
H	-0.242208	-0.8764	-1.932453
C	-0.452671	1.127214	0.816524
N	-0.642033	2.096747	1.453562
N	-0.436079	-1.300201	0.682799
O	-0.51601	-2.288115	-0.032189
O	-0.560963	-1.267898	1.896338
C	-0.111175	1.210818	-2.135
N	0.221961	2.153296	-2.755453
F	-2.585673	0.0	0.0
