11
Coordinates from ORCA-job run
  C   -0.62916822324541     -0.65443930873866      0.27293373740836
  C   0.47130714171376      0.17227304218204     -0.43024713480721
  F   -0.80683851417397     -1.81109359891499     -0.44351326324902
  H   0.12511235110449      0.38899789823851     -1.44797091383941
  H   -0.31314886507232     -0.91641044930040      1.28635942910813
  C   -1.88443896278046      0.10518646993066      0.31515579982278
  N   -2.88649727749606      0.71628037106724      0.34041618346737
  C   1.70725806073780     -0.61314756610892     -0.50517797745602
  N   2.68957357493905     -1.25349380385270     -0.55529899922806
  C   0.68953124237237      1.43176101691054      0.28609998586288
  N   0.83930947190076      2.43308592858667      0.88024315291021
