11
Coordinates from ORCA-job run
  C   -0.68518082195536     -0.61183501821063     -0.25957037675297
  C   0.60569518266268      0.04538747291792      0.27356053498378
  F   -0.84497693420039     -0.26993164549300     -1.57620055351756
  H   0.71078610387962     -0.21552462102816      1.33436587292367
  H   -0.58852030068012     -1.69966836139967     -0.19421584711658
  C   -1.84414591157689     -0.16720213168238      0.52464159085873
  N   -2.76083989042889      0.17030916938444      1.17569379028642
  C   0.52812710180487      1.50490306274920      0.15326753730999
  N   0.45033747866541      2.67299491897603      0.06990890355723
  C   1.76095009925942     -0.48388950396231     -0.45923573500434
  N   2.66876789256966     -0.94554334225145     -1.04221571752837
