11
Coordinates from ORCA-job run
  C   -0.64455669702456     -0.68745152863308      0.10353028387988
  C   0.49269869265162      0.25075897711749     -0.36115208937912
  F   -0.78702082136867     -1.67277141238114     -0.84091481716793
  H   0.19860701066253      0.67531784509592     -1.32839130999145
  H   -0.38211956417394     -1.15314679529199      1.05723555728585
  C   -1.89863025554741      0.06406266428774      0.23435329001255
  N   -2.89744406302910      0.67320657514024      0.33122431364100
  C   1.72728622831465     -0.52085804480683     -0.53553424967754
  N   2.70628512652362     -1.15418285368236     -0.66894493579580
  C   0.67958093360164      1.33389852710238      0.60774413013294
  N   0.80531340938964      2.19116604605162      1.39984982705962
