14

C	0.0	0.0	0.0
C	-0.164231	0.234739	-1.536895
Br	2.036784	0.0	0.0
H	0.260233	-0.660977	-2.010545
H	-0.258413	0.896116	0.564359
H	0.499107	1.058669	-1.817666
N	-0.647572	-1.10703	0.565003
H	-1.676802	-0.767267	0.497746
H	-0.548929	-1.895531	-0.069722
C	-1.539658	0.50704	-2.139246
H	-1.944733	1.453271	-1.780696
H	-1.41801	0.556986	-3.230445
H	-2.27652	-0.230074	-1.838693
F	-2.923371	0.0	0.0
