14

C	0.0	0.0	0.0
C	-0.43952	-0.004687	-1.463687
Br	1.970227	0.0	0.0
H	-0.016609	-0.893375	-1.949755
H	-0.279316	0.949931	0.456951
H	-1.528386	-0.108452	-1.358485
N	-0.54516	-1.054178	0.795092
H	-0.389164	-1.923456	0.304335
H	-1.577657	-0.808366	0.686695
C	-0.097349	1.258318	-2.242148
H	-0.501304	1.208822	-3.258801
H	0.979435	1.4295	-2.312364
H	-0.553236	2.125208	-1.753648
F	-2.825887	0.0	0.0
