14

C	0.0	0.0	0.0
C	-0.203511	-0.191455	-1.545772
Br	1.980436	0.0	0.0
H	0.5691	0.383569	-2.063464
H	-0.269813	1.014632	0.296049
H	0.040664	-1.247947	-1.731117
N	-0.663324	-0.908195	0.853919
H	-1.681895	-0.610708	0.700197
H	-0.569224	-1.840457	0.459505
C	-1.541433	0.149104	-2.195743
H	-2.37952	-0.275614	-1.643427
H	-1.501477	-0.172623	-3.245549
H	-1.700793	1.231319	-2.18095
F	-2.996005	0.0	0.0
