14

C	0.0	0.0	0.0
C	-0.449755	-0.038152	-1.463717
Br	1.968933	0.0	0.0
H	-1.527683	0.149105	-1.3591
H	-0.259886	0.977237	0.406406
H	0.033707	0.775451	-2.01596
N	-0.569018	-0.986428	0.861197
H	-0.404413	-1.903057	0.455572
H	-1.595547	-0.743259	0.718948
C	-0.215902	-1.370083	-2.16437
H	-0.845871	-2.146601	-1.723459
H	0.829192	-1.690554	-2.109716
H	-0.490964	-1.298156	-3.220612
F	-2.841271	0.0	0.0
