15
Coordinates from ORCA-job run
  C   -0.40899820418257     -0.56830095497206      0.09675123268013
  C   0.77439869142546      0.31143028842622     -0.32761816374160
  F   -0.80036392427210     -1.18855794696450     -1.14754073654349
  H   1.54761709483680     -0.37407488708356     -0.70502116522993
  N   0.00664456138971     -1.57639252873354      1.00304406979278
  H   -0.72883889182793     -1.83060031721418      1.64648158411997
  H   0.34552960933208     -2.39127631133702      0.51109327440975
  N   -1.44403578004637      0.22158112823131      0.62371190224309
  H   -1.55320697232399      1.05348029604381      0.05589803264503
  H   -2.31361193717501     -0.29535297426083      0.65512272427790
  C   1.32676432197397      1.00527287901962      0.83837406787943
  N   1.82130927132315      1.58211446557288      1.73216126548295
  N   0.30903856997411      1.28777648858829     -1.30954143684111
  H   0.08480735853265      0.79727690322968     -2.16678266009089
  H   1.03394623104004      1.96662347145389     -1.50513399108399
