15
Coordinates from ORCA-job run
  C   -0.48320379418245     -0.32009909813336      0.28556184131354
  C   0.56901701168179      0.41290690742295     -0.56744364736589
  F   -0.53664608362841      0.36472706172149      1.51591339480911
  H   0.57577418964337     -0.07216934805533     -1.54878405233550
  N   -1.78699737911300     -0.17510765809741     -0.27979669438245
  H   -1.86215971765916     -0.72307713251545     -1.12655537406087
  H   -2.48307277753756     -0.48544832070730      0.38727445846572
  N   -0.08076209549317     -1.67286371554643      0.47365123328503
  H   0.77958791652750     -1.73814829844327      1.00610647460883
  H   -0.80587933210285     -2.18711323149050      0.95839315057769
  C   1.89852170869617      0.19375868749248      0.04384285493210
  N   2.96034706448024      0.06304267210768      0.52930826372696
  N   0.22441886121514      1.81216464534387     -0.72568781445258
  H   0.99900572240054      2.31751359059447     -1.13746512596764
  H   0.03104870507187      2.21091323830610      0.18468103684594
