15
Coordinates from ORCA-job run
  C   -0.40647387435450     -0.59064775022586     -0.06074158380133
  C   0.85935961477835      0.22605013875328     -0.37875942818109
  F   -0.72480674910680     -1.30066749398958     -1.21781317124810
  H   1.66650769203104     -0.47744006565940     -0.61335747577808
  N   -0.15743411459505     -1.45698073444286      1.03722662346218
  H   -0.98174961083702     -2.01002650438415      1.23917850786896
  H   0.61872137009133     -2.07980548080739      0.84668600274624
  N   -1.51167494218964      0.30352665659647      0.16966217390089
  H   -2.36503729895564     -0.10945188881803     -0.18255983876396
  H   -1.60024680523220      0.50203539170648      1.15781943145945
  C   1.23685273002986      0.98069194768326      0.83460090798407
  N   1.54351203867001      1.65208248138550      1.74845913558574
  N   0.61361060153599      1.06085872171297     -1.53694788174935
  H   -0.19936957729519      1.63367986744113     -1.33886316775187
  H   1.40722892542948      1.66609471304819     -1.70559023573374
