15
Coordinates from ORCA-job run
  C   -0.30766367370112     -0.69242589818364     -0.02523782251021
  C   0.65439342097065      0.39809249296353     -0.51750088427009
  F   0.07971454900043     -1.88437847842245     -0.64540693558245
  H   0.54748306238296      0.44252266308439     -1.61293266237210
  N   -0.15650639459282     -0.85416618858712      1.37349109475490
  H   -0.17167691812003      0.05154474028717      1.82393629795878
  H   -0.85151030890507     -1.47409177235643      1.76768253311028
  N   -1.63069337051217     -0.33302183960188     -0.46035571994491
  H   -2.32342254983392     -0.87670936712736      0.03909180918897
  H   -1.73308020716822     -0.52345448496120     -1.45149818960321
  C   2.04473698620085      0.03132050416006     -0.23269202637538
  N   3.17806698790194     -0.20484533047208     -0.04367783195271
  N   0.31485745087794      1.63766234758079      0.17253029582436
  H   -0.61498855090014      1.91225724199253     -0.12161480594513
  H   0.97128951639872      2.37069336964368     -0.06481515228110
