15
Coordinates from ORCA-job run
  C   -0.58580767098559     -0.22977623723350      0.02983269161558
  C   0.57086933488000      0.55452990478228     -0.62591135276416
  F   -1.72046297946130      0.59206247094118     -0.12317074928310
  H   0.37614092916226      0.60659772664162     -1.70408631176703
  N   -0.75981559867720     -1.48471428577692     -0.60200354473453
  H   -1.52089520685963     -2.00270379141550     -0.18050133845017
  H   -0.92936318014929     -1.38615404142160     -1.59552293541250
  N   -0.37263585308793     -0.31812514884245      1.44720469846395
  H   -1.26138338527877     -0.37572014570752      1.92759768564205
  H   0.18863692177816     -1.13236239444243      1.66322887278653
  C   1.81261326311309     -0.20220912510151     -0.42164103665409
  N   2.79795094800996     -0.80689075325379     -0.22132512021913
  N   0.73054241673731      1.90531689269524     -0.12492081065312
  H   0.78031639477144      1.85175318201110      0.88758134171450
  H   -0.10570633395252      2.42839574612380     -0.35636209028479
