15
Coordinates from ORCA-job run
  C   -0.42568247562409     -0.57110809974927     -0.01001793273577
  C   0.66567842217651      0.38558722928770     -0.51459757016288
  F   -0.08623074137561     -1.83036491509934     -0.56825264487416
  H   0.58702255118871      0.36880258323052     -1.61277205283670
  N   -0.47711254941910     -0.63193156313564      1.40342509507689
  H   -0.79684860341405     -1.54663935554912      1.69584149166300
  H   0.41929578090254     -0.43317384810723      1.82585043939041
  N   -1.68800432122485     -0.15186523605057     -0.53255499059282
  H   -2.43316880806827     -0.40455588170497      0.10155699334252
  H   -1.85107235338219     -0.55443679476340     -1.44648275354833
  C   1.99626101187045     -0.12900448451891     -0.16206375144125
  N   3.06465811169007     -0.51617682492316      0.13039891598285
  N   0.46854671687516      1.68992232050786      0.09543956816698
  H   1.05818501937413      2.37851040102162     -0.35569627087711
  H   -0.50252776156941      1.94543446955390     -0.04907453655362
