15
Coordinates from ORCA-job run
  C   -0.35224889063331     -0.40040809703632      0.27373834620689
  C   0.75102858421329      0.40935727683546     -0.43572176594108
  F   -0.51536105359144      0.19712154445231      1.54140897275821
  H   0.98326408162615     -0.13974120311752     -1.35300979890618
  N   -1.55381258715025     -0.35103692955577     -0.48042969462888
  H   -1.86454574402528      0.60502919706285     -0.59520272137826
  H   -2.27967331122747     -0.86936989699007      0.00030349567793
  N   0.09139757362851     -1.74520695018572      0.50079836253457
  H   -0.37912385496900     -2.39448018849766     -0.11304780730872
  H   -0.03549372185847     -2.00444658431205      1.46824396928466
  C   1.95273065840479      0.39018231566356      0.41243145776166
  N   2.90695731742191      0.40587990157087      1.09402983328771
  N   0.43478990365617      1.78198468235766     -0.78485367342657
  H   0.08506172117441      2.28849497782878      0.01833315006116
  H   -0.22697067667001      1.82663995392363     -1.54702212598309
