15
Coordinates from ORCA-job run
  C   -0.68582896151436     -0.35382052585948      0.02552469995570
  C   0.46423527439323      0.55145578600678     -0.47005211254090
  F   -1.81861877800490      0.48516181414520     -0.12093965071660
  H   0.30585314959236      0.74266585875098     -1.54340428953127
  N   -0.77426539920589     -1.52038848909264     -0.76086013004138
  H   -0.93491541579106     -1.30169792294765     -1.73498802986343
  H   -1.52536938186865     -2.10386162429179     -0.41322947233461
  N   -0.62979842228143     -0.71703451646427      1.39839567106092
  H   0.09274932192385     -1.41264225177343      1.53436271336773
  H   -0.41230617392710      0.10451659433034      1.95009438932385
  C   1.73724653246965     -0.15572971111820     -0.31580799847174
  N   2.76920246489747     -0.69730627081498     -0.17828623504979
  N   0.47487755720371      1.75806019888027      0.35030250843595
  H   -0.35325822848233      2.29970169146660      0.13602632910839
  H   1.29119646059545      2.31991936878226      0.14486160729717
