15
Coordinates from ORCA-job run
  C   -0.47470316745779     -0.61676784746112      0.00718918680961
  C   0.72628201178002      0.29577282064828     -0.32277339760985
  F   -0.74037941849165     -1.22703455387672     -1.25047112741082
  H   1.51721755152268     -0.36678017638812     -0.70636474206584
  N   -0.22750248540405     -1.69525259099271      0.90407700684165
  H   -0.06785640855161     -1.34702089061263      1.83937690778782
  H   0.54778794866700     -2.26755201577329      0.59802417245244
  N   -1.53903197116474      0.15436656143155      0.49043961893862
  H   -2.37251570799527     -0.40828457930115      0.59133597010872
  H   -1.69254054176724      0.96648378094982     -0.09198333262204
  C   1.22338438639962      0.91912977287294      0.90582014627436
  N   1.65317131941111      1.40435373014678      1.88404981443176
  N   0.30171284332257      1.32013429546233     -1.27313147826705
  H   0.10778882178531      0.86636309320923     -2.15800710528062
  H   1.03718481794403      2.00108859968481     -1.41658164038877
