15
Coordinates from ORCA-job run
  C   -0.41689878827577     -0.57355750023535     -0.02804897714839
  C   0.67246735798219      0.40533674989613     -0.49394440972742
  F   -0.05134038695498     -1.81812154676987     -0.60518649121564
  H   0.61196174866313      0.40963651839308     -1.59325848998192
  N   -0.49327440409520     -0.66165104688547      1.38215394867839
  H   0.40018930024525     -0.49013783920463      1.82240051805602
  H   -0.83423685541832     -1.57605773795274      1.65091918747207
  N   -1.67413423658501     -0.15976376464672     -0.56551391316894
  H   -2.42988230580442     -0.43609344513779      0.04553715192389
  H   -1.81239001526994     -0.54184514057894     -1.49220619361726
  C   2.00213809874096     -0.10348054008123     -0.12938690375842
  N   3.06948816369725     -0.48615587264101      0.17289223011482
  N   0.45126753755749      1.69513494121460      0.13795029140707
  H   1.02861935642643      2.40218975029585     -0.30014524014174
  H   -0.52397457090906      1.93556647433409     -0.00316270889252
