15
Coordinates from ORCA-job run
  C   -0.37453878223072     -0.53853243315973     -0.04984979356229
  C   0.69216356546549      0.42700257082703     -0.61007380224624
  F   -0.06380448217195     -1.80626304311522     -0.61887512017067
  H   0.63184389995631      0.35829099066744     -1.70180977300117
  N   -0.31711731214146     -0.58106874564306      1.36341684632213
  H   0.59732405360746     -0.89746818541542      1.66462011680296
  H   -1.00915584942479     -1.22228277045800      1.73288412933524
  N   -1.65998831317242     -0.11416889922702     -0.49527233496426
  H   -2.39690397542148     -0.46326222418225      0.10352032325506
  H   -1.81820692084563     -0.45011369849416     -1.43692204848147
  C   2.02415538217512     -0.04188129747298     -0.20691034187105
  N   3.06264664848523     -0.42726556346112      0.18056093316847
  N   0.51564215318739      1.81277373686185     -0.21859631807023
  H   -0.42217784359186      2.08017538226459     -0.49806239739697
  H   0.53911777612330      1.86306418000805      0.79436958088050
