15
Coordinates from ORCA-job run
  C   -0.42908824616272     -0.67888350547073      0.10784444317655
  C   0.53309333063507      0.24802885509908     -0.66742115127501
  F   -0.08537956974599     -1.98051627252543     -0.28058003290968
  H   0.42056526887215      0.01014053664052     -1.72904199942861
  N   -0.27024226363592     -0.45680975561300      1.49611713252810
  H   0.63605268808407     -0.77064705331736      1.82164672169822
  H   -1.00855922004169     -0.93518108482148      1.99570015548547
  N   -1.80817211745022     -0.50660411258902     -0.23435255182999
  H   -2.00810635896306      0.48685088323503     -0.26005751614429
  H   -1.96886379798871     -0.89447050909140     -1.15574557079715
  C   1.92800471106574     -0.03561880926901     -0.27697186453201
  N   3.03240297587696     -0.21582929765892      0.08124812930195
  N   0.11566670146248      1.62200431206870     -0.44109279382255
  H   0.24280265932122      1.84436628703518      0.53958329672846
  H   0.66982323867061      2.26216952627782     -0.99587639817944
