15
Coordinates from ORCA-job run
  C   -0.50771748499668     -0.46840279006613      0.26341998702640
  C   0.58247579875526      0.40178419606599     -0.39968718608488
  F   -0.86282729441267      0.26763221909280      1.42036770681824
  H   0.86466750921020     -0.09964247454400     -1.32972810755266
  N   -1.57004594559341     -0.62302042900926     -0.64581043228484
  H   -2.34465809058102     -1.08856034586529     -0.19104983944944
  H   -1.84588272206508      0.27717555840139     -1.01652376569295
  N   -0.11079897088436     -1.75002817732569      0.74179098500562
  H   0.13268811405705     -2.35754103990080     -0.02754329594879
  H   0.65096711355586     -1.68366574494785      1.40386897155204
  C   1.76773259249038      0.44912758902072      0.47810022104044
  N   2.70599399115755      0.51582035571481      1.18148959579707
  N   0.02254307415916      1.70483341982948     -0.72603379176828
  H   0.67173659232264      2.24388936896822     -1.28507661744230
  H   -0.15787427717488      2.21159829456561      0.13241556898433
