15
Coordinates from ORCA-job run
  C   -0.37012858655316     -0.67927718605368     -0.13529776223847
  C   0.58139686346656      0.41523896892951     -0.63797127911064
  F   0.07869413580929     -1.88436725134174     -0.68711664351289
  H   0.53851729449499      0.38336228521136     -1.72925656085096
  N   -0.30292528407988     -0.73585959195620      1.29482631523913
  H   0.57521791852743     -1.14738217816315      1.59383899688970
  H   -1.06078212751672     -1.29765133437039      1.66253062792635
  N   -1.66387825469120     -0.42148004478816     -0.66679506734052
  H   -2.35110176279490     -1.06327227298674     -0.29191955801901
  H   -1.91925274198746      0.53595570132905     -0.46084293172597
  C   1.95849098194235      0.10060379176485     -0.21003141773885
  N   3.04622743485810     -0.10437215128901      0.18274143648311
  N   0.08866432977957      1.70116843770722     -0.17211357889718
  H   0.17858613467403      1.73956247797850      0.83663834464283
  H   0.62227366407100      2.45877034802859     -0.57923092174662
