15
Coordinates from ORCA-job run
  C   -0.58406957621746     -0.39989881503561      0.02621604163411
  C   0.49342500580435      0.55923689229526     -0.49657509006077
  F   -1.79385256949635      0.37422722490723     -0.12838682673691
  H   0.25331464155762      0.74332099633254     -1.55426668499067
  N   -0.67121127124681     -1.55764546218074     -0.78775073457184
  H   -1.28850185290134     -1.40530138621056     -1.57298625390126
  H   -0.96135979472450     -2.36812722092455     -0.26012394997547
  N   -0.34694587190331     -0.71759042689457      1.37339073494761
  H   -1.17100468997862     -1.11915364269630      1.80231099158412
  H   -0.06649309726132      0.11919819699212      1.87101858427188
  C   1.80786829616257     -0.08482221275674     -0.44335163684464
  N   2.89107905134381     -0.53452404683212     -0.41770743188235
  N   0.49960007597258      1.76153415558255      0.33347113459177
  H   1.29037548837235      2.34870104362006      0.10025997319294
  H   -0.35222383548354      2.27884470380144      0.15348114874145
