15
Coordinates from ORCA-job run
  C   -0.37049100288311     -0.68537153913003     -0.10534937616428
  C   0.58137859299114      0.38596242414733     -0.65567649728440
  F   0.07755444339034     -1.91380488059864     -0.60322485003751
  H   0.53942937675588      0.30660547450087     -1.74459259487367
  N   -0.30116589721627     -0.67844890712072      1.32604502782028
  H   -1.06011073052353     -1.22053715160822      1.72065668164983
  H   0.57651142637890     -1.07952289298227      1.64026633494595
  N   -1.66398503231480     -0.45009825634945     -0.64699886651997
  H   -2.35269463989274     -1.07181123263994     -0.24230470841555
  H   -1.91656559198180      0.51668269788816     -0.48802564861985
  C   1.95833550805888      0.09138082961443     -0.21344629645077
  N   3.04667519172813     -0.09465990217647      0.18733349519362
  N   0.08757965471217      1.69094614054707     -0.24710856305130
  H   0.62117049718674      2.43019384046554     -0.68672226327397
  H   0.17637820361006      1.77348335544235      0.75914812508159
