15
Coordinates from ORCA-job run
  C   -0.43525708660593     -0.65246463454993     -0.18639286398694
  C   0.82402811240831      0.22782831598577     -0.37102095320025
  F   -0.60975190392287     -1.33281382674890     -1.36637960001498
  H   1.66164253859478     -0.45280293146200     -0.55837871317208
  N   -0.32525180551874     -1.66368347977793      0.83135016002051
  H   -0.20943662590243     -1.25337395749445      1.74905066784503
  H   0.45243946760120     -2.28568997711404      0.64259319406327
  N   -1.57176097495415      0.20556784067176     -0.01097342000256
  H   -2.40165038508483     -0.37697140258473      0.00411403446351
  H   -1.51487816088693      0.70054806735498      0.87230045511551
  C   1.06770407625897      0.90784855536220      0.92130117308013
  N   1.21474394924768      1.47544106150111      1.94001882095069
  N   0.66501244780454      1.11474903654684     -1.50332954970661
  H   1.41046406202994      1.79803468244174     -1.53855131966712
  H   -0.22704771106954      1.58778264986757     -1.42470208578813
