15
Coordinates from ORCA-job run
  C   -0.41412628356027     -0.61011382097852      0.04317230034671
  C   0.77626275560041      0.24700456177373     -0.42030701080168
  F   -0.66801664616709     -1.48057428541022     -1.05298950495019
  H   1.48822904817796     -0.42799793065843     -0.90556939223038
  N   -0.09516333822769     -1.35196315169685      1.20628993580278
  H   0.78191990989023     -1.84413537711494      1.09270971427687
  H   -0.82034161340160     -2.03543905039803      1.38963203459053
  N   -1.54765438823871      0.21949108641095      0.26538979062318
  H   -2.01749381812663      0.38792668238298     -0.61413068120965
  H   -2.18789797052642     -0.18937928694891      0.93178523272635
  C   1.44734194412316      0.87763108571224      0.73204110292860
  N   2.01568507827441      1.44469173285572      1.58933022014732
  N   0.30708108681069      1.20529520997396     -1.40957252772077
  H   -0.15998139413731      1.96591341985514     -0.92960354142776
  H   1.09215562950884      1.59064912424119     -1.91917767310191
