15
Coordinates from ORCA-job run
  C   -0.40535448618099     -0.70143151244578      0.02416339924414
  C   0.52110284749847      0.34566390869662     -0.63292719852902
  F   -0.02073002206695     -1.93320594742852     -0.52089233095620
  H   0.41198341914173      0.23545501972577     -1.71561632231121
  N   -0.24619967178298     -0.64520161068125      1.42914256406168
  H   0.67180876403115     -0.96617691013977      1.71228846090115
  H   -0.96502942719730     -1.20662492519392      1.86722604807769
  N   -1.79116008281554     -0.53499303565820     -0.29190453806101
  H   -1.94472017619548     -0.81170257241154     -1.25367990186045
  H   -2.02434119369350      0.44675984040397     -0.19518392440016
  C   1.92658594183779      0.06524282340481     -0.28037148869197
  N   3.03863468533696     -0.11860536090356      0.05127999555116
  N   0.05754168810345      1.66674770153581     -0.24033473735540
  H   0.18108771718960      1.77086062107074      0.76031711273176
  H   0.58878999679361      2.38821196002482     -0.71150713840215
