15
Coordinates from ORCA-job run
  C   -0.39401840870636     -0.70814943232458     -0.00029906106061
  C   0.51043548381757      0.37796163949388     -0.62414258829631
  F   0.00719600226420     -1.91200828544031     -0.59352965054763
  H   0.39360382408421      0.30724188662746     -1.70926778044298
  N   -0.22542258181858     -0.70168747964119      1.40501923560543
  H   0.69918835283206     -1.02059906050073      1.66861624994234
  H   -0.93225904928601     -1.29048631930654      1.82625752493481
  N   -1.78488778891940     -0.55397866234526     -0.29973303339175
  H   -2.03613319489436      0.41667031962822     -0.15225436552557
  H   -1.93994590434291     -0.78487888546680     -1.27328558798535
  C   1.92302629492745      0.10506234954903     -0.29408649488600
  N   3.03953112922932     -0.07584398970123      0.02376399997832
  N   0.03107117130873      1.67550879724294     -0.17732634194958
  H   0.16133991330522      1.74348685135245      0.82546035688792
  H   0.54627475619885      2.42270027083264     -0.62519246326304
