15
Coordinates from ORCA-job run
  C   -0.42363803694496     -0.64540551442387      0.02274990779367
  C   0.71703511310254      0.33148415004919     -0.34118678130722
  F   -0.75178865423680     -1.21221272169908     -1.23404668101886
  H   1.57483614964196     -0.26488062617999     -0.69093836064421
  N   0.02406785568794     -1.60981626632454      0.94822868097879
  H   -0.73982404753522     -2.23259990672196      1.18039679835501
  H   0.80100481456470     -2.14409596191226      0.58288491328517
  N   -1.61274397948532     -0.04120359022131      0.51352367531153
  H   -1.84792133519093      0.75136803525730     -0.07218097628839
  H   -1.46311931282708      0.27640407581909      1.46277175493508
  C   1.12922538972618      1.06248574525064      0.85888694935889
  N   1.45718497226745      1.67537322612269      1.80430043152293
  N   0.20678883628465      1.27213248481366     -1.33319551503754
  H   0.88015206504968      2.00836652330280     -1.50319173891854
  H   0.04874016989519      0.77160034686762     -2.19900305832632
