15
Coordinates from ORCA-job run
  C   -0.44623718495749     -0.55064376767235     -0.14468040197725
  C   0.82135560101826      0.30800394718779     -0.39018310498154
  F   -0.77919961190370     -1.04968451381975     -1.39476854930195
  H   1.59652357517068     -0.37788053822134     -0.75008770559946
  N   -0.26784711737867     -1.70431053225254      0.69325762869857
  H   0.47279986568539     -2.30252438933388      0.34584159758947
  H   -0.05862196591900     -1.43185574083994      1.64509225683951
  N   -1.51474116709162      0.29694996280148      0.28113275236383
  H   -1.28613717874452      0.76348523138099      1.15117753426656
  H   -2.34068026168570     -0.27270654854569      0.42512347464747
  C   1.25745652628593      0.84297015102794      0.90753447240277
  N   1.52339173560613      1.24488886659294      1.97821019586027
  N   0.67342665458231      1.37971357774884     -1.35733687276268
  H   -0.16757154095838      1.89840867087809     -1.12666998920981
  H   0.51508207029039      0.95718562306742     -2.26464328883577
