15
Coordinates from ORCA-job run
  C   -0.35425985777166     -0.61690347165444      0.02848816827975
  C   0.74459190119317      0.36877477482030     -0.39381050016286
  F   -0.74503060958892     -1.22684304890560     -1.19394122141696
  H   1.51529785434068     -0.24759980219680     -0.87456848612070
  N   0.19790955408016     -1.67742385101739      0.82367346304044
  H   -0.19340467577275     -2.56359305180818      0.53479206645883
  H   0.00064044122782     -1.51034549920153      1.80109182968554
  N   -1.41077150933806      0.07709384627004      0.64463146339076
  H   -2.21808490998175     -0.51714688816139      0.77909613698609
  H   -1.64583361696566      0.90753883493121      0.11431239880276
  C   1.33751578805166      0.97902771467728      0.79782423558341
  N   1.83432669765056      1.48632129050273      1.73176045509313
  N   0.16239313538258      1.40050403408623     -1.24982708782108
  H   0.81963421014960      2.15663241860207     -1.39333755233667
  H   -0.04592440265742      0.98596269905547     -2.15018536946246
