15
Coordinates from ORCA-job run
  C   -0.45382572490856     -0.40194269062484      0.27380136087056
  C   0.68627530261177      0.42038193779520     -0.37698861068516
  F   -0.75213382997791      0.29240382867773      1.46347773866109
  H   0.95151029831315     -0.09236028105398     -1.30705586509083
  N   -1.55909870298653     -0.46312708385391     -0.60766155904733
  H   -2.28293437282603     -1.02724235276763     -0.17919414163365
  H   -1.92362525381548      0.46120574592497     -0.79402010298998
  N   -0.12642973282497     -1.73334351316175      0.67310151836069
  H   0.11104785852488     -2.29705530256002     -0.13237489520799
  H   0.63737592619983     -1.73485552870166      1.33713585365860
  C   1.85638402675832      0.36816965467833      0.51456417281414
  N   2.76920033219243      0.29344157510995      1.24829489637936
  N   0.37638153086073      1.80339692676573     -0.69209921160175
  H   -0.20615161106293      1.86484559112912     -1.51582742310921
  H   -0.08497604705871      2.24608149264275      0.09284626862146
