15
Coordinates from ORCA-job run
  C   -0.39735015348561     -0.69883913886750     -0.08921652799974
  C   0.73614385226156      0.31484509646220     -0.38338471472562
  F   -0.68719450692263     -1.22688953116934     -1.34835826278596
  H   1.59761930764846     -0.26628132743424     -0.74101221488631
  N   0.08942645902913     -1.74993990363803      0.73390260375501
  H   -0.68836411091406     -2.29796432535963      1.08000370345000
  H   0.64167995763604     -1.40964459997303      1.50943135141331
  N   -1.62089534733748     -0.12578077902117      0.37789612438159
  H   -1.86187867691787      0.67771674600660     -0.19215403740250
  H   -1.51991031651700      0.17307232591536      1.33942171784717
  C   1.11066533715434      0.98161193801179      0.86576917258892
  N   1.39384133301754      1.48214840570308      1.88927757424919
  N   0.22786371796754      1.29610860523918     -1.33570510280270
  H   0.91174942618782      2.02688081486964     -1.48783125795180
  H   0.06760372119221      0.82295567325510     -2.21704012913055
