15
Coordinates from ORCA-job run
  C   -0.38071651747627     -0.68062069307649     -0.10170502701092
  C   0.58667005035293      0.37386443899389     -0.65743184801985
  F   0.04967355186721     -1.91792256220455     -0.59376517425665
  H   0.54370193701531      0.28955932103063     -1.74598473702469
  N   -0.31144837463648     -0.66806915142057      1.32960808891497
  H   -1.07719053725751     -1.19873852923672      1.72601845443796
  H   0.56090660150241     -1.07915225173837      1.64565044512166
  N   -1.67079763573522     -0.42902971300664     -0.64443560537031
  H   -1.90728940054123      0.54305730532455     -0.49206700882633
  H   -2.36922015567651     -1.03613835190346     -0.23419592714005
  C   1.95910747230958      0.06157842890337     -0.21329894876622
  N   3.04472175072978     -0.13850263685548      0.18801528702652
  N   0.11211998892355      1.68826369894603     -0.25595390637830
  H   0.65517463512593      2.41692272754096     -0.70110770186078
  H   0.20358663349654      1.77592796870286      0.74965360915300
