15
Coordinates from ORCA-job run
  C   -0.40428208934721     -0.28495230729828      0.28353725199195
  C   0.70256138794380      0.35990641980927     -0.57972608008454
  F   -0.45656035725061      0.47188614259009      1.47230216237123
  H   0.67577476790020     -0.15842633419857     -1.54361227179419
  N   -1.67670365658341     -0.07707607724301     -0.36062925649177
  H   -2.37026407783070      0.18138198824352      0.32788403773970
  H   -1.96228508033354     -0.92018915493918     -0.84029360785604
  N   -0.13413908745536     -1.65154843998001      0.52772284699078
  H   0.77345672007232     -1.78711600281447      0.95702786028903
  H   -0.84819740895543     -2.05462118457614      1.12218894784155
  C   2.01541945629754      0.11026880050472      0.02931034708989
  N   3.03762642476580     -0.12649258857218      0.55508077077128
  N   0.52292377504342      1.77934201716596     -0.81321319478859
  H   -0.40037957182487      1.89677431903041     -1.21696994207693
  H   0.52604879755806      2.25986240227786      0.07939012800667
