15
Coordinates from ORCA-job run
  C   -0.45014247645156     -0.48186513440463      0.23517077135084
  C   0.63214001173960      0.41131180970211     -0.39549387627503
  F   -0.59529105884459     -0.02745864233301      1.57679365535451
  H   0.87057411397066     -0.04451827203736     -1.36211930269899
  N   -1.65338101354480     -0.28436900251920     -0.48463714388927
  H   -2.35929497024819     -0.95461060079486     -0.20720102460830
  H   -1.98085239476469      0.65395356798874     -0.29140458310524
  N   -0.04693337168273     -1.84319760951581      0.21630099864304
  H   0.82741448568940     -1.94499978526776      0.71807976290930
  H   -0.73526916833212     -2.41359859773646      0.69372538567614
  C   1.84331027224274      0.37333115854734      0.43076500393546
  N   2.81267338558722      0.34711558251515      1.09258736467796
  N   0.11973096353949      1.77349793625032     -0.53807785317392
  H   -0.04739526942392      1.97635544499606     -1.51328974876242
  H   0.76171649052347      2.46005214460937     -0.17019941003407
