16

C	-0.542467	-0.01458	-1.443922
C	0.0	0.0	0.0
Br	0.262964	1.456573	-2.419926
H	1.094149	0.0	0.0
N	-0.086627	-1.299652	-2.137821
O	-0.561526	-1.504025	-3.251092
O	0.695678	-2.025251	-1.537393
C	-2.051952	0.056681	-1.538769
H	-2.488572	-0.811288	-1.034961
H	-2.358109	0.056202	-2.583123
H	-2.404744	0.968634	-1.055301
C	-0.515397	-1.147535	0.750648
N	-0.953848	-2.071586	1.329116
C	-0.446614	1.228544	0.66196
N	-0.825279	2.205534	1.193379
Br	3.327775	0.0	0.0
