15

C	0.0	0.0	0.0
C	-0.565713	0.066193	-1.41958
Br	1.921517	0.0	0.0
H	-1.446226	-0.565168	-1.514749
H	-0.367921	0.82743	0.595505
N	-0.404398	-1.272893	0.705073
O	-0.431816	-1.201155	1.925951
O	-0.579134	-2.271303	0.021992
N	0.424915	-0.329755	-2.490104
O	0.562097	-1.534741	-2.662595
O	1.019166	0.561767	-3.088375
N	-0.983098	1.461206	-1.774007
O	-0.585549	2.38858	-1.078011
O	-1.644503	1.551324	-2.799216
Cl	-3.141553	0.0	0.0
