15

C	0.0	0.0	0.0
C	-0.339537	-0.051195	-1.519598
Br	1.899283	0.0	0.0
H	-1.423945	0.066226	-1.577199
H	-0.081875	-1.057397	-1.846776
N	-0.668092	1.17638	0.63163
O	-0.660741	1.288907	1.868413
O	-0.723241	2.175851	-0.138304
N	-0.40273	-1.298048	0.690804
O	-0.558358	-2.284184	-0.032575
O	-0.401283	-1.328784	1.914339
N	0.409319	0.91049	-2.330647
H	0.081319	1.827996	-2.051208
H	0.134059	0.754109	-3.293037
H	-2.11286	0.0	0.0
