15

C	0.0	0.0	0.0
C	-0.326095	0.064438	-1.522149
Br	1.909567	0.0	0.0
H	-1.413118	-0.007341	-1.593719
H	-0.024311	1.059793	-1.845342
N	-0.397829	1.299166	0.690727
O	-0.37494	1.336787	1.913558
O	-0.583267	2.277257	-0.035701
N	-0.674074	-1.172576	0.629646
O	-0.724072	-2.173	-0.137612
O	-0.676156	-1.279141	1.866605
N	0.393299	-0.921657	-2.327478
H	0.197248	-0.708039	-3.298755
H	-0.009373	-1.82442	-2.104232
H	-2.098155	0.0	0.0
