15

C	0.0	0.0	0.0
C	-0.344446	0.082216	-1.516912
Br	1.899556	0.0	0.0
H	-0.133638	1.108544	-1.813737
H	-1.421702	-0.084508	-1.576697
N	-0.402525	1.272181	0.733905
O	-0.49724	2.291547	0.046088
O	-0.440868	1.254304	1.956804
N	-0.638345	-1.208764	0.600346
O	-0.618614	-1.361326	1.831706
O	-0.703007	-2.177618	-0.204043
N	0.44309	-0.819673	-2.362499
H	0.18384	-1.759437	-2.081368
H	0.113116	-0.679105	-3.31073
H	-2.106458	0.0	0.0
