15

C	0.0	0.0	0.0
C	-0.219237	0.005857	-1.565731
Br	1.920326	0.0	0.0
H	0.320263	-0.872747	-1.911622
H	0.31712	0.890312	-1.903609
N	-0.436403	1.252015	0.671546
O	-0.4557	1.318001	1.899984
O	-0.536547	2.23422	-0.084434
N	-0.43024	-1.264716	0.653757
O	-0.522782	-2.239165	-0.112826
O	-0.462308	-1.345657	1.880419
N	-1.519965	0.004748	-2.193113
H	-2.029478	0.81036	-1.85023
H	-2.026313	-0.805659	-1.856843
H	-1.891117	0.0	0.0
