13

C	-0.545531	0.016255	-1.420048
C	0.0	0.0	0.0
F	-0.300577	-1.183824	-2.066779
H	1.099684	0.0	0.0
H	-1.632038	0.163869	-1.40396
C	0.037519	1.116122	-2.209929
N	0.434829	1.962168	-2.919617
C	-0.504383	-1.164239	0.711322
N	-0.922142	-2.07853	1.323696
N	-0.363645	1.272907	0.628486
H	0.489561	1.637161	1.046938
H	-1.055758	1.15001	1.355309
H	2.647155	0.0	0.0
