18

C	0.0	0.0	0.0
C	-0.433618	0.0675	-1.483249
F	1.419689	0.0	0.0
H	-1.52725	0.192734	-1.441339
N	-0.499051	1.064736	0.805088
H	-1.523671	0.901608	0.807091
H	-0.363066	1.946818	0.321619
C	-0.447618	-1.314106	0.598717
H	-0.16858	-1.306336	1.653785
H	0.03943	-2.156097	0.103963
H	-1.539454	-1.366123	0.50657
N	-0.062037	-1.033561	-2.329217
H	0.874046	-1.343349	-2.099113
H	-0.715202	-1.788279	-2.166068
N	0.154815	1.314697	-2.077246
O	-0.432821	2.379603	-1.865251
O	1.2119	1.21658	-2.697233
H	-3.109172	0.0	0.0
