18

C	0.0	0.0	0.0
C	-0.536047	-0.034417	-1.426171
F	1.3928	0.0	0.0
H	-0.284776	0.909416	-1.915124
N	-0.40072	1.262992	0.60313
H	-0.199978	1.207406	1.599059
H	-1.410952	1.31517	0.519367
C	-0.366631	-1.230773	0.820824
H	0.150022	-1.15221	1.785128
H	-1.442727	-1.277134	0.995756
H	-0.055823	-2.122815	0.275625
N	-2.012517	-0.240533	-1.334537
H	-2.471232	0.233466	-2.105617
H	-2.030273	-1.267457	-1.513444
N	-0.070533	-1.103239	-2.296192
O	-0.496356	-2.321034	-1.889821
O	1.078286	-0.902962	-2.88105
H	-2.800538	0.0	0.0
