18

C	0.0	0.0	0.0
C	-0.346363	0.041616	-1.528548
F	1.3829	0.0	0.0
H	0.480529	0.559912	-2.027349
N	-0.488219	1.150772	0.697228
H	-1.499005	1.007596	0.806356
H	-0.392562	1.962556	0.094269
C	-0.49002	-1.252318	0.690797
H	-0.003763	-2.135578	0.273797
H	-0.231369	-1.168586	1.748756
H	-1.576859	-1.317611	0.581644
N	-1.597036	0.611589	-1.789576
H	-1.893742	0.458544	-2.744935
H	-2.358285	0.317002	-1.114445
N	-0.156664	-1.39094	-2.092212
O	1.003096	-1.770991	-2.264484
O	-1.154453	-2.062063	-2.33821
H	-3.379674	0.0	0.0
