18

C	0.0	0.0	0.0
C	-0.478131	-0.104926	-1.452821
F	1.379212	0.0	0.0
H	-1.574519	-0.190993	-1.39404
N	-0.505106	1.161496	0.66899
H	-1.532551	1.032479	0.65859
H	-0.286866	1.991951	0.128696
C	-0.468906	-1.232509	0.742892
H	-0.125424	-1.146422	1.775942
H	-1.564601	-1.243145	0.711716
H	-0.058424	-2.12953	0.278868
N	0.135346	-1.185742	-2.163343
H	-0.264978	-1.283031	-3.087334
H	1.133909	-1.031347	-2.228054
N	-0.231613	1.200477	-2.204331
O	-1.127439	1.598193	-2.950991
O	0.873791	1.740769	-2.101859
H	-3.141127	0.0	0.0
