17

C	0.0	0.0	0.0
C	-0.451802	-0.107954	-1.47864
Cl	1.751131	0.0	0.0
H	-1.454995	-0.54842	-1.423403
C	-0.681402	1.113623	0.661299
N	-0.631613	2.152778	1.243963
N	-0.397198	-1.260999	0.823425
O	-0.898023	-2.219959	0.262423
O	-0.118049	-1.183286	2.014187
N	0.380126	-1.04226	-2.309634
O	0.800731	-2.078975	-1.801567
O	0.507701	-0.765314	-3.507135
C	-0.512707	1.266368	-2.111605
H	-0.805894	1.186404	-3.156099
H	-1.256809	1.849443	-1.570408
H	0.454284	1.771655	-2.052794
H	-2.313458	0.0	0.0
