13

C	-0.452934	-0.103795	-1.445682
C	0.0	0.0	0.0
Br	-0.213372	1.542925	-2.465819
H	1.095211	0.0	0.0
H	0.169252	-0.852268	-1.940361
H	-1.510154	-0.359881	-1.543958
C	-0.373341	-1.293306	0.733622
H	0.117977	-2.133894	0.235217
H	0.013967	-1.252798	1.754146
H	-1.454298	-1.468152	0.766714
C	-0.554776	1.151349	0.687408
N	-1.025584	2.060464	1.266993
H	2.748222	0.0	0.0
