13

C	-0.314583	-0.020407	-1.473206
C	0.0	0.0	0.0
Br	-2.234177	-0.170046	-1.913038
H	1.098643	0.0	0.0
H	0.165972	-0.88351	-1.934508
H	0.029828	0.889531	-1.962375
C	-0.431019	-1.253459	0.751928
H	-1.517305	-1.363637	0.79829
H	-0.002274	-2.127074	0.252583
H	-0.026969	-1.223864	1.7664
C	-0.488108	1.208428	0.642495
N	-0.872564	2.18261	1.177488
H	2.730666	0.0	0.0
