13

C	-0.475686	0.092274	-1.447607
C	0.0	0.0	0.0
Br	-0.164546	-1.545821	-2.468992
H	1.095631	0.0	0.0
H	-1.547817	0.282079	-1.526964
H	0.085703	0.871518	-1.964352
C	-0.491178	-1.220209	0.772404
H	-1.579635	-1.332823	0.730095
H	-0.022164	-2.114597	0.362251
H	-0.184628	-1.134108	1.817009
C	-0.450921	1.227638	0.645867
N	-0.833687	2.213107	1.162354
H	2.779112	0.0	0.0
