13

C	-0.455579	-0.133227	-1.442116
C	0.0	0.0	0.0
Br	-0.195003	1.488118	-2.497472
H	1.095135	0.0	0.0
H	-1.516426	-0.375975	-1.532424
H	0.155758	-0.901962	-1.921037
C	-0.368272	-1.277429	0.762103
H	0.001579	-1.205824	1.787384
H	-1.446191	-1.469244	0.783409
H	0.145106	-2.121129	0.292925
C	-0.557584	1.16447	0.66134
N	-1.031337	2.08587	1.219186
H	2.745207	0.0	0.0
