15
Coordinates from ORCA-job run
  C   0.64651350701469      0.06659345786901      0.51954174543438
  C   -0.52219355222620      0.05582342757211     -0.47841374905280
  F   0.25447855257485      0.52995500740916      1.72168862851617
  H   -0.20743794093467     -0.46511189953424     -1.38238018472465
  C   1.84956473263186      0.74388818333219      0.04591925638243
  N   2.82408800353807      1.26034597669713     -0.35982067825053
  N   1.00137938674391     -1.42541325175624      0.70204791531143
  O   0.79546821039730     -1.91242309362355      1.80012106836623
  O   1.42473111539737     -1.97581594387004     -0.30518238563721
  N   -0.80450654386975      1.48366886758127     -0.93276298913278
  O   -1.44242832701335      1.57982712615406     -1.97148434986289
  O   -0.41431064793759      2.40193074161782     -0.21583071869825
  N   -1.70473241203233     -0.50585989909004      0.05377428170977
  H   -1.81032115287866     -0.38867988618747      1.05062266263035
  H   -1.89129293140550     -1.44772881417117     -0.24784050299166
