15
Coordinates from ORCA-job run
  C   0.89810339879115     -0.13413972988383      0.12905596607815
  C   -0.39282680422471      0.57043675820694     -0.31382167976610
  F   1.92127101150979      0.51541601627642     -0.49609431020441
  H   -0.40292381482554      1.55643477885928      0.16587749896806
  C   0.90521465854400     -1.55229832290853     -0.21363944638119
  N   0.87228540434081     -2.68169595052603     -0.53481481947606
  N   1.16761851084127      0.06150771032782      1.62077978112991
  O   1.04576682039907      1.21744267675849      2.00525110779775
  O   1.53092010115663     -0.90812654521087      2.26873178327904
  N   -1.57004397903275     -0.17404082103506      0.27108566271618
  O   -2.59895979843190     -0.22482035535435     -0.39004459738737
  O   -1.40139712037880     -0.63278442342156      1.39630775098573
  N   -0.45715552360954      0.55656295025088     -1.74051738381873
  H   -0.10728442987440      1.42087530228234     -2.12825880617243
  H   -1.41258843520508      0.40822995537805     -2.04089850774853
