15
Coordinates from ORCA-job run
  C   0.90422013655249     -0.08635649042062      0.27367532957343
  C   -0.28950466632912      0.66190141922065     -0.32264292158365
  F   2.01094620660128      0.68022803414002      0.07741146750342
  H   -0.31604370710994      1.65638829675860      0.12317169825375
  C   1.09894201071116     -1.40633927794939     -0.32221096425397
  N   1.24520556559141     -2.41695934855954     -0.90325544250165
  N   0.77103577838099     -0.19951780049601      1.79078193321462
  O   0.28842897745962      0.78473514707064      2.33677215650461
  O   1.22813027159562     -1.20137696414912      2.31971446699962
  N   -1.58577344564274     -0.01010175810957      0.13041106610011
  O   -2.61287816518510      0.56469122275734     -0.20805588164661
  O   -1.50576363441217     -1.07405282852625      0.74221865536336
  N   -0.16226432067299      0.74459942344889     -1.72711548245455
  H   -0.29936067162408     -0.14351749202552     -2.19354275072951
  H   -0.77632033591644      1.44467841683988     -2.11833333034296
