15
Coordinates from ORCA-job run
  C   0.93453440389110      0.05582689674748      0.14924725937833
  C   -0.39696849678623      0.52312791705363     -0.44110062201522
  F   1.92013964333829      0.80926772552334     -0.40877863199107
  H   -0.47468515109405      1.59821405834764     -0.27778253774316
  C   1.19278656298051     -1.36221336298780     -0.09116810059210
  N   1.37495677381789     -2.48235447047463     -0.39510871582884
  N   1.00538989877012      0.36490223927802      1.64344938475754
  O   1.63588994835351     -0.41109312579736      2.34529797478405
  O   0.48619365361062      1.42382113046276      1.97284669814871
  N   -1.54845688926109     -0.08357325362378      0.36135924312097
  O   -2.66472416983180      0.29791338633766      0.03271738936274
  O   -1.28099418533384     -0.92026304664261      1.22222659884187
  N   -0.45352949535218      0.21958431108126     -1.81952981068155
  H   -0.54908660287740     -0.77075722218514     -2.00719440374560
  H   -1.18344589422544      0.73759681687953     -2.28748172579667
