18

C	0.0	0.0	0.0
C	-0.61784	0.051487	-1.390001
Cl	1.790933	0.0	0.0
H	-1.69102	0.290968	-1.09989
N	-0.363969	1.301244	0.7404
O	-0.300846	1.283423	1.963876
O	-0.628035	2.284398	0.062118
C	-0.493074	-1.163701	0.827168
H	-0.127399	-2.096098	0.394733
H	-1.589478	-1.081289	0.785793
H	-0.113287	-1.071015	1.842823
C	-0.638608	-1.320848	-2.06683
H	0.344366	-1.802632	-2.071123
H	-0.967968	-1.207321	-3.102205
H	-1.364875	-1.945895	-1.548241
C	-0.001094	1.031498	-2.270068
N	0.478792	1.750587	-3.067025
F	-2.849197	0.0	0.0
