18

C	0.0	0.0	0.0
C	-0.467748	-0.04	-1.473919
Cl	1.76867	0.0	0.0
H	0.308948	-0.643175	-1.962314
N	-0.407905	1.223548	0.808078
O	-0.736156	1.054913	1.973643
O	-0.271832	2.319845	0.273211
C	-0.387013	-1.267067	0.745846
H	0.113902	-1.300722	1.712775
H	-1.471182	-1.248898	0.840546
H	-0.055387	-2.121343	0.149653
C	-0.53354	1.288094	-2.229582
H	0.395942	1.84926	-2.131286
H	-0.709677	1.063942	-3.284753
H	-1.357361	1.884374	-1.847466
C	-1.717638	-0.792754	-1.716676
N	-2.3899	-1.481229	-2.402795
F	-2.54254	0.0	0.0
