18

C	0.0	0.0	0.0
C	-0.496392	0.015501	-1.484662
Cl	1.783219	0.0	0.0
H	0.40665	-0.089927	-2.099366
N	-0.372425	1.258173	0.778118
O	-0.758793	1.126074	1.929769
O	-0.154389	2.334728	0.229116
C	-0.419264	-1.224811	0.789196
H	0.024717	-1.189516	1.783598
H	-0.058441	-2.113504	0.268533
H	-1.513047	-1.179724	0.81497
C	-1.275782	1.230753	-2.006231
H	-2.139795	1.333903	-1.35073
H	-0.65321	2.122418	-2.032847
H	-1.605728	0.996662	-3.022785
C	-1.279387	-1.194093	-1.768988
N	-1.751899	-2.186463	-2.18402
F	-2.62938	0.0	0.0
