16
Coordinates from ORCA-job run
  C   0.87909146613925      0.28280293600606      0.38965006676209
  C   -0.62540453195428     -0.00676347529122      0.35461006044108
  Br  1.34626847003231      1.40703361075259      1.89616157950649
  H   -0.89118087965088     -0.47955171795168      1.29907121198185
  N   1.57252481778495     -1.08592238056022      0.62229993231335
  O   1.10522446430645     -1.76399794168118      1.52412480078801
  O   2.51420157128648     -1.36111104699103     -0.10549378006336
  C   1.40139399828058      0.86217760352397     -0.83432252125769
  N   1.82272543896240      1.31758630916790     -1.83382706575967
  C   -1.02458368718820     -0.84052208685294     -0.84898308979091
  H   -2.10360585944377     -1.00608374742629     -0.82992257496367
  H   -0.53625221092714     -1.81619061565859     -0.81573683802887
  H   -0.76264375149390     -0.33332600734915     -1.77793531129612
  N   -1.37614439509889      1.29228264155136      0.32983253246045
  O   -1.21359435804521      2.00666296323379     -0.65573327517445
  O   -2.10902055299018      1.52292295552663      1.28720427208141
