16
Coordinates from ORCA-job run
  C   0.92679943822864      0.07425020654871      0.00360405307537
  C   -0.59745906099628     -0.12030400440019      0.07326444309441
  Br  1.40721490433197      1.67144687275197     -0.95316605267255
  H   -0.77178708662549     -0.89429040351047      0.82649276766467
  N   1.51297506716496      0.09679861961612      1.45873843716870
  O   1.21521140667575     -0.90051649539957      2.09771460503366
  O   2.20036672179003      1.03488792615189      1.80148969960188
  C   1.54220076341783     -1.07903690224616     -0.63551471171137
  N   2.02129769067192     -2.02106614282724     -1.15256822669817
  C   -1.23537601539408     -0.47511233498845     -1.25075352593898
  H   -1.06460734891259      0.30212806827858     -1.99450268133112
  H   -0.83029427742096     -1.42139850448365     -1.61256883771137
  H   -2.31054145239866     -0.58862482840703     -1.11630458378750
  N   -1.19641341926950      1.13528165045081      0.66373834739180
  O   -2.08021537973634      1.70779479381518      0.03828316204219
  O   -0.73837195152722      1.47676147864952      1.75105310477838
