16
Coordinates from ORCA-job run
  C   0.88771889456612      0.26167412229107     -0.08467527178846
  C   -0.54991615700229     -0.24199493203197      0.12676921703081
  Br  0.93298016908684      1.94922673005958     -1.00575901269615
  H   -0.48397690140668     -1.05561819090446      0.85514423597515
  N   1.61018127566459      0.36387059717305      1.30433248992738
  O   1.58619182842953     -0.68953080191315      1.92180204368583
  O   2.13254827451859      1.41176528136997      1.61957198418163
  C   1.65011215199528     -0.72222210604607     -0.83827950865357
  N   2.25273494584158     -1.52714307277112     -1.44902455842357
  C   -1.24272114586949     -0.68422115480728     -1.14250568255204
  H   -1.30934596407150      0.13072149241319     -1.86208041477158
  H   -2.25334942778674     -1.01549243054986     -0.90615598519355
  H   -0.69896666391008     -1.51970391401584     -1.58610075459374
  N   -1.32139311378284      0.84811876535764      0.83437643998121
  O   -2.36444304771129      1.24399329895622      0.32874455801208
  O   -0.82735511856160      1.24655631541905      1.88584021987859
