16
Coordinates from ORCA-job run
  C   0.80767896204069      0.36590747404654      0.27673342027609
  C   -0.47921868635825     -0.33108975731765     -0.19598248497545
  Br  0.44222205329632      2.03419607030784      1.15989455210878
  H   -0.19459070581893     -1.35599788999182     -0.45157359078369
  N   1.60483715253597     -0.60268655573450      1.21989828518457
  O   1.93229101777667     -0.21460835233845      2.32086450587237
  O   1.84142703789680     -1.67819519733532      0.69158366580636
  C   1.68871398424447      0.60014613245973     -0.85735792824726
  N   2.39178638831119      0.78453252320190     -1.78250188153722
  C   -1.16838526882215      0.36282386113254     -1.34899501953072
  H   -2.06850489964535     -0.18842581677061     -1.61837939266640
  H   -1.45738621364201      1.37903470832727     -1.08470121220746
  H   -0.50521353708246      0.38535671969046     -2.21491685812054
  N   -1.39375006826910     -0.47151530310492      0.99878174528817
  O   -2.53404284772534     -0.03231938508601      0.91323762650304
  O   -0.90486436873853     -1.03715923148702      1.97341456702933
