16
Coordinates from ORCA-job run
  C   0.89366919113488      0.25264092789403      0.02950239819814
  C   -0.56172520457937     -0.24462655727525      0.04551378644596
  Br  1.03735906302865      2.04258858192921     -0.65851135717405
  H   -0.56895173684594     -1.14488084865269      0.66699355677188
  N   1.48804969501169      0.16188418382524      1.47888513144411
  O   1.98729856887952      1.15006518508133      1.97328481322130
  O   1.40041590121889     -0.96183863439741      1.94973320185085
  C   1.71249053791370     -0.64311576269634     -0.77350337840319
  N   2.36074420009207     -1.37554696620551     -1.42705356164147
  C   -1.13865606885465     -0.50859222595419     -1.32686713551732
  H   -1.13091493453829      0.39134939868536     -1.94051991193754
  H   -2.17003355512084     -0.84559338837900     -1.22839237511464
  H   -0.56431609479900     -1.29277538311378     -1.82245384779109
  N   -1.38475723689471      0.76290433207028      0.81391091902827
  O   -2.37520168187685      1.23861308691263      0.27278616455057
  O   -0.98347064376977      1.01692407027610      1.94669159606821
