12

C	0.0	0.0	0.0
C	-0.537141	-0.151826	-1.417704
Br	1.934574	0.0	0.0
H	0.286541	-0.144809	-2.14859
H	-0.335345	0.942132	0.408967
H	-0.341032	-0.80828	0.631286
N	-1.355603	1.04154	-1.846105
O	-2.165484	0.859016	-2.744342
O	-1.018777	2.133348	-1.405336
C	-1.293694	-1.383486	-1.60177
N	-1.696172	-2.461603	-1.840268
F	-2.376516	0.0	0.0
