12

C	0.0	0.0	0.0
C	-0.539705	-0.228545	-1.406533
Br	1.931253	0.0	0.0
H	0.281642	-0.264701	-2.13914
H	-0.344403	-0.770863	0.674738
H	-0.33624	0.963002	0.356241
N	-1.359675	0.940337	-1.897143
O	-2.165077	0.711031	-2.788633
O	-1.028593	2.054145	-1.510631
C	-1.300424	-1.468062	-1.519791
N	-1.691476	-2.557606	-1.721228
F	-2.382263	0.0	0.0
