12

C	0.0	0.0	0.0
C	-0.541271	-0.322208	-1.387149
Br	1.93454	0.0	0.0
H	0.279599	-0.412834	-2.114972
H	-0.340674	-0.727462	0.723767
H	-0.336182	0.983925	0.294716
N	-1.356887	0.812306	-1.957793
O	-2.159245	0.523172	-2.83483
O	-1.026443	1.948744	-1.643479
C	-1.306045	-1.563955	-1.413697
N	-1.697153	-2.665383	-1.536619
F	-2.387293	0.0	0.0
