12

C	0.0	0.0	0.0
C	-0.536515	-0.543971	-1.317079
Br	1.935913	0.0	0.0
H	0.285337	-0.751864	-2.019442
H	-0.341596	-0.595329	0.834418
H	-0.333828	1.01971	0.127012
N	-1.3517	0.483397	-2.066093
O	-2.150198	0.056251	-2.888514
O	-1.022207	1.656221	-1.940782
C	-1.303958	-1.772617	-1.144858
N	-1.697369	-2.878955	-1.102538
F	-2.377414	0.0	0.0
