12

C	0.0	0.0	0.0
C	-0.571712	-0.020792	-1.409319
Br	1.938305	0.0	0.0
H	0.202595	-0.247347	-2.153582
H	-0.312662	-0.88732	0.536569
H	-0.341456	0.87669	0.530469
N	-1.034949	1.361434	-1.821377
O	-1.752189	1.423173	-2.812409
O	-0.578943	2.328734	-1.220529
C	-1.669874	-0.986148	-1.563089
N	-2.175093	-1.940563	-2.040948
F	-2.449182	0.0	0.0
