12

C	0.0	0.0	0.0
C	-0.513988	-0.42577	-1.359485
Br	1.934595	0.0	0.0
H	0.149725	-1.150312	-1.832469
H	-0.321199	-0.710987	0.754599
H	-0.355874	0.990242	0.252501
N	-0.488482	0.742397	-2.315735
O	-0.62182	1.880156	-1.873732
O	-0.347499	0.460488	-3.504197
C	-1.893192	-1.010162	-1.354611
N	-2.540031	-1.832261	-1.916205
F	-2.472253	0.0	0.0
