12

C	0.0	0.0	0.0
C	-0.536693	-0.595573	-1.295634
Br	1.936491	0.0	0.0
H	0.287052	-0.842858	-1.982841
H	-0.335832	1.023142	0.088747
H	-0.34191	-0.566894	0.854865
N	-1.335944	0.40335	-2.096527
O	-0.992938	1.576814	-2.024149
O	-2.13787	-0.05283	-2.899808
C	-1.310989	-1.813072	-1.077881
N	-1.706948	-2.917111	-1.004215
F	-2.376886	0.0	0.0
