11

C	-0.510625	-0.069004	-1.427582
C	0.0	0.0	0.0
F	-0.112398	1.045613	-2.1414
H	1.094113	0.0	0.0
H	-1.605408	-0.087873	-1.47011
H	-0.303056	-0.907067	0.534684
C	-0.028584	-1.280186	-2.120736
N	0.260092	-2.240657	-2.731173
C	-0.549014	1.162474	0.676652
N	-0.995206	2.103212	1.222535
H	2.722728	0.0	0.0
