11

C	-0.403204	0.008475	-1.466215
C	0.0	0.0	0.0
F	-0.116895	-1.232305	-2.013721
H	1.093084	0.0	0.0
H	0.196969	0.753358	-1.999354
H	-0.374199	-0.911329	0.47324
C	-1.837661	0.268807	-1.695945
N	-2.980765	0.459311	-1.887905
C	-0.49879	1.175212	0.691422
N	-0.899266	2.135486	1.238267
H	2.722817	0.0	0.0
