15

C	0.0	0.0	0.0
C	-0.277709	-0.114774	-1.53428
Cl	1.759679	0.0	0.0
H	0.511024	0.454657	-2.028482
H	-0.279834	-0.875476	0.569874
N	-0.787417	1.114959	0.540751
O	-0.81367	2.153381	-0.220698
O	-0.784028	1.219569	1.795545
N	-1.583167	0.212176	-2.069684
H	-1.448212	0.351406	-3.069902
H	-1.793248	1.120467	-1.654093
N	-0.021442	-1.536202	-1.993919
O	0.017457	-2.460285	-1.191482
O	0.086004	-1.667349	-3.213167
H	-1.931493	0.0	0.0
