16
Coordinates from ORCA-job run
  C   -0.73875586380636     -0.17064622478924     -0.01297768016521
  C   0.80093457915425     -0.08899370317189      0.06135864850552
  Cl  -1.42056633020059      1.25497053108109      0.92456980988954
  H   1.14374438546515     -0.89510116104700     -0.59943156831729
  N   -1.17593154061123     -1.42151488999090      0.50681631757379
  H   -0.87407088161331     -1.56707534960859      1.46361853250759
  H   -2.18631115152312     -1.48670215039717      0.46958068081431
  N   -1.14903670719445      0.01654785259610     -1.38566014100073
  H   -2.07109887421914      0.42868690230644     -1.43609999551263
  H   -1.16462069673015     -0.89234296210200     -1.83529533751306
  C   1.26287428840715     -0.41216597743741      1.41169171796713
  N   1.61898948746811     -0.67204675365296      2.50016021585395
  C   1.38131971602614      1.23759909376941     -0.42439073624923
  H   0.93079644537484      1.48638343555756     -1.38435286570374
  H   1.17856118020236      2.03761141602632      0.28624488486513
  H   2.46217196380035      1.14478994086023     -0.54483248351507
