16
Coordinates from ORCA-job run
  C   -0.74107266122668     -0.23548087325446     -0.21201448536781
  C   0.72851565453305      0.19150566421010     -0.37196973565956
  Cl  -1.72355962240111      1.24792832945391     -0.97141176793245
  H   0.87789700134436      0.46272071253398     -1.42291798512290
  N   -1.09038595838841     -0.40411748146875      1.14320118579373
  H   -1.18844890557996      0.48022525127726      1.62155307180970
  H   -1.93924072815427     -0.94278444133108      1.25502201535737
  N   -1.00703886842821     -1.40404596639687     -0.94915349991843
  H   -0.69078140740744     -1.32127645615076     -1.90610204909540
  H   -1.99382542999972     -1.63130440586085     -0.95147707490838
  C   1.59003090309143     -0.95859767672073     -0.07676035607243
  N   2.33217488088956     -1.84149658956346      0.14146656510936
  C   1.12920363392811      1.37305652931818      0.51325624759352
  H   1.07095261997308      1.09463681377525      1.56641169948391
  H   2.16052651468351      1.65760214841657      0.29977415924751
  H   0.48605237314269      2.23142844176171      0.32012200968225
