14

C	0.003974	0.016106	0.002644
C	-0.511556	-0.139986	-1.435566
F	1.40546	-0.059888	-0.032908
H	-1.613893	-0.255014	-1.278474
H	-0.245903	0.711653	-2.058917
C	-0.332013	1.401725	0.415152
N	-0.503351	2.520137	0.725314
N	-0.506969	-0.887788	0.973042
H	-0.298696	-1.819308	0.627742
H	-1.541061	-0.747592	0.843638
N	0.066049	-1.323673	-2.102601
O	0.487247	-1.182046	-3.25267
O	0.073956	-2.398184	-1.498834
F	-2.783506	-0.188464	-0.062002
