14

C	0.030614	0.033745	0.036518
C	-0.549317	0.111059	-1.365044
F	1.426392	-0.207084	-0.099235
H	-0.389991	-0.856422	-1.833858
H	-1.633282	0.283099	-1.279311
C	-0.021897	1.317061	0.789983
N	-0.082054	2.244064	1.509649
N	-0.613303	-1.023132	0.695699
H	-0.558098	-0.90616	1.699006
H	-1.641382	-1.03634	0.350655
N	0.132158	1.116011	-2.208593
O	0.630651	0.732642	-3.268754
O	0.133373	2.285097	-1.823324
F	-2.882061	-0.735718	-0.390621
