14

C	0.006171	0.031988	0.010794
C	-0.660387	0.398161	-1.303748
F	1.391669	-0.151272	-0.258504
H	-0.530147	-0.444544	-1.977544
H	-1.736685	0.53371	-1.117932
C	-0.001863	1.122961	1.024056
N	-0.016179	1.874005	1.927704
N	-0.592064	-1.151604	0.465812
H	-0.475022	-1.250791	1.46568
H	-1.639726	-1.108563	0.186888
N	-0.032898	1.56927	-1.952899
O	0.397377	1.428063	-3.09928
O	-0.006746	2.628744	-1.326793
F	-2.923959	-0.678767	-0.396281
