14

C	-0.575933	0.007103	-1.35044
C	-0.056645	0.156066	0.07285
Br	-2.609299	-0.033892	-1.24874
H	1.030588	0.254748	0.045221
H	-0.323422	-0.734697	0.63567
C	-0.307554	1.160478	-2.221384
N	-0.065947	1.986176	-3.023664
N	-0.103161	-1.22292	-1.852457
H	-0.14753	-1.255076	-2.862491
H	0.866656	-1.397931	-1.531584
N	-0.623131	1.325023	0.788294
O	-0.514396	2.424458	0.249747
O	-1.131801	1.120789	1.889386
Cl	2.838546	-1.359282	-0.70688
