14

C	-0.626118	-0.030258	-1.438381
C	0.072411	-0.058745	-0.087393
Br	0.023337	1.683521	-2.309942
H	1.157708	-0.12143	-0.138684
H	-0.194927	0.829985	0.482511
C	-0.220364	-1.087756	-2.365381
N	0.024329	-1.914131	-3.163829
N	-2.033705	-0.068992	-1.27521
H	-2.34543	0.654163	-0.638502
H	-2.524286	0.006006	-2.156922
N	-0.445877	-1.226452	0.676141
O	-0.199803	-2.3412	0.224455
O	-1.094229	-0.997604	1.697529
Cl	3.253444	0.345759	0.499164
