14

C	-0.291208	-0.163812	-1.460499
C	-0.057105	0.024926	0.037943
Br	-2.213594	-0.800566	-1.727864
H	1.018157	0.133245	0.188437
H	-0.612802	0.880588	0.412279
C	-0.32573	1.170659	-2.084305
N	-0.3053	2.217446	-2.621011
N	0.605927	-1.070578	-2.042063
H	0.66646	-0.953908	-3.044723
H	1.537121	-0.984595	-1.605835
N	-0.50072	-1.139007	0.8509
O	-1.266533	-0.89571	1.785716
O	-0.060356	-2.244811	0.561881
Cl	3.261221	-0.211595	-0.473954
