14

C	-0.632709	-0.02651	-1.410029
C	0.030858	-0.013286	-0.033544
Br	-0.138079	1.71144	-2.208725
H	1.119935	-0.058528	-0.065381
H	-0.257678	0.883033	0.515585
C	-0.101318	-1.063523	-2.298611
N	0.262026	-1.885737	-3.054614
N	-2.078312	-0.110249	-1.431314
H	-2.458895	0.578833	-0.791316
H	-2.342679	-1.038213	-1.116808
N	-0.439677	-1.161392	0.785713
O	-0.780421	-2.193325	0.200339
O	-0.443059	-1.013157	2.003442
Cl	3.265706	0.064452	0.198383
