14

C	-0.570628	0.278176	-1.395991
C	0.060119	0.094546	-0.020004
Br	0.077664	1.902185	-2.29672
H	1.151237	0.236011	-0.013632
H	-0.156024	-0.915404	0.332165
C	-0.160563	-0.842887	-2.257889
N	0.026555	-1.778437	-2.945786
N	-2.004953	0.396788	-1.275084
H	-2.363688	-0.353169	-0.692634
H	-2.444087	0.362778	-2.186918
N	-0.593266	1.013948	0.945314
O	-0.236741	2.187467	0.949651
O	-1.463406	0.532049	1.67662
Cl	3.272247	-0.407652	0.150951
