19

C	-0.487609	0.048985	-1.455182
C	0.0	0.0	0.0
F	-0.188468	-1.185378	-2.041092
H	1.10135	0.0	0.0
N	-1.927744	0.211081	-1.5943
H	-2.181892	0.910979	-0.900891
H	-2.354293	-0.661357	-1.297892
C	0.243875	1.113981	-2.240144
H	-0.033777	1.02357	-3.29199
H	-0.050111	2.106585	-1.889742
H	1.321575	0.988262	-2.112481
C	-0.522219	-1.213381	0.744709
H	-1.60861	-1.159433	0.878695
H	-0.055438	-1.267036	1.732175
H	-0.271298	-2.127489	0.207444
N	-0.490518	1.238175	0.655622
H	0.225939	1.947348	0.529267
H	-0.517663	1.067105	1.655524
Cl	3.558632	0.0	0.0
