19

C	-0.474644	0.016093	-1.459635
C	0.0	0.0	0.0
F	-0.3019	-1.277557	-1.971991
H	1.09602	0.0	0.0
N	-1.886543	0.312082	-1.63528
H	-2.423418	-0.344711	-1.076574
H	-2.03728	1.237624	-1.245024
C	0.363301	0.96129	-2.287877
H	0.251941	1.979305	-1.910684
H	0.032429	0.913199	-3.327288
H	1.413822	0.676902	-2.201525
C	-0.490542	-1.217692	0.770504
H	-0.086538	-1.188363	1.785469
H	-1.586787	-1.236393	0.841216
H	-0.158585	-2.141155	0.296415
N	-0.425247	1.276079	0.607928
H	-1.223088	1.113798	1.21452
H	0.331833	1.616986	1.19009
Cl	3.587944	0.0	0.0
