19

C	-0.31496	0.011062	-1.50127
C	0.0	0.0	0.0
F	-1.7099	0.216808	-1.642983
H	1.097323	0.0	0.0
N	0.323959	1.099487	-2.202882
H	0.244824	1.932857	-1.628695
H	1.319599	0.884706	-2.242844
C	0.033305	-1.28766	-2.1944
H	-0.629805	-2.085987	-1.861734
H	1.066494	-1.5589	-1.96555
H	-0.08238	-1.15382	-3.27127
C	-0.549677	-1.210877	0.73627
H	-1.636939	-1.272063	0.621885
H	-0.320378	-1.101371	1.796387
H	-0.102608	-2.142252	0.383395
N	-0.458977	1.221078	0.670896
H	-1.319951	1.545234	0.246456
H	0.243237	1.946152	0.602564
Cl	3.514539	0.0	0.0
