19

C	-0.402111	0.067328	-1.477045
C	0.0	0.0	0.0
F	-0.024149	-1.167276	-2.074763
H	1.096347	0.0	0.0
N	-1.81955	0.241134	-1.625215
H	-2.049547	0.291596	-2.611394
H	-2.290243	-0.567698	-1.237702
C	0.361169	1.137284	-2.226883
H	0.076879	2.128834	-1.873317
H	1.430168	0.985749	-2.063128
H	0.144026	1.065235	-3.297446
C	-0.532622	-1.243532	0.696801
H	-1.619289	-1.186446	0.833184
H	-0.082952	-1.296287	1.688433
H	-0.280614	-2.150035	0.145214
N	-0.428789	1.20069	0.728431
H	0.301307	1.897521	0.665675
H	-1.267427	1.571161	0.295619
Cl	3.569399	0.0	0.0
