12
Coordinates from ORCA-job run
  C   1.03629719485759     -0.02465372519652     -0.29928467012400
  C   -0.48717684933217      0.11509767956254     -0.37272799737277
  H   1.46459867552278      0.19149906444255     -1.28163595953177
  H   -0.93764749600699     -0.65210214522762     -1.00459712380818
  H   1.42583096980556      0.70599025153844      0.41284931318051
  C   1.41037834189889     -1.37479888230550      0.11493794584661
  N   1.69032551147686     -2.46533059919832      0.44566700298378
  C   -0.86439988208652      1.44836276827655     -0.83042745704612
  N   -1.13850588107316      2.52221322944939     -1.21858926877152
  N   -1.06526354465320     -0.10318943729086      1.01407041494444
  O   -1.92588656156685     -0.96817063794126      1.11644547272369
  O   -0.60855047884278      0.60408243389061      1.90329232697533
