12
Coordinates from ORCA-job run
  C   0.56264801784322     -0.76694680491206     -0.62615786937372
  C   -0.62121804026593      0.16548566789752     -0.34534934877225
  H   0.85821864830688     -0.66176970388428     -1.67347071212169
  H   -1.47329850997184     -0.13467310148224     -0.96135663249705
  H   0.23866860230448     -1.79680349807898     -0.46115627222738
  C   1.69970998057178     -0.46122427706877      0.23913579006230
  N   2.60581968623148     -0.21455081770572      0.94291117687814
  C   -0.30016597688321      1.56811086722155     -0.57342638893554
  N   -0.02786726901062      2.68258607896864     -0.82370386523933
  N   -1.07397304986934     -0.05902182871998      1.08885140973083
  O   -1.45782966868558     -1.19933750698377      1.32088137557049
  O   -1.01171242057131      0.87714492474810      1.87284133692519
