12
Coordinates from ORCA-job run
  C   1.01961996291128     -0.18382900791946     -0.30083736114003
  C   -0.44371562038473      0.26508797478520     -0.34619493456677
  H   1.52500096097932      0.33363124891633      0.51761287676382
  H   -1.01906289360685     -0.29046337841115     -1.08846069069806
  H   1.50974664327664      0.09506198264871     -1.23746437897361
  C   1.10923430793880     -1.62958176310966     -0.10941633220147
  N   1.15786975865103     -2.79243972263268      0.04009562906459
  C   -0.53788750882561      1.70048829572256     -0.59072924794785
  N   -0.58363873952418      2.85279208440561     -0.81227491281025
  N   -1.09317833615995     -0.04362710394380      0.99058513504714
  O   -2.11075617570257     -0.72388980337916      0.95907852625737
  O   -0.53323235955316      0.41576919291752      1.97800569120514
