15

C	0.0	0.0	0.0
C	-0.626484	0.07966	-1.379772
Cl	1.805854	0.0	0.0
H	-0.513852	1.119575	-1.701238
H	-1.700208	-0.090964	-1.20059
N	-0.513832	0.958119	0.843453
H	-1.132003	1.681813	0.48019
H	-0.433794	0.835744	1.834708
N	-0.286344	-1.389912	0.632539
O	-0.670945	-2.298988	-0.092998
O	-0.080773	-1.477517	1.838046
N	-0.023206	-0.804417	-2.368922
H	-0.528592	-1.678247	-2.352951
H	-0.139113	-0.396053	-3.287562
Cl	-3.925093	0.0	0.0
