15

C	0.0	0.0	0.0
C	-0.522519	-0.150546	-1.442281
Cl	1.779757	0.0	0.0
H	0.261078	-0.625979	-2.042702
H	-0.67832	0.87119	-1.804537
N	-0.513612	1.177651	0.5979
H	-1.535351	1.104515	0.528732
H	-0.273321	1.146193	1.58446
N	-0.338231	-1.202957	0.837104
O	-0.178808	-2.416167	0.113697
O	0.081548	-1.206331	2.02819
N	-1.695821	-1.035015	-1.5756
H	-2.412312	-0.585544	-2.145626
H	-0.933114	-2.331539	-0.530367
Cl	-3.63905	0.0	0.0
