15

C	0.0	0.0	0.0
C	-0.492316	-0.056282	-1.431022
Cl	1.872698	0.0	0.0
H	-0.011742	-0.90373	-1.924349
H	-1.564264	-0.257447	-1.346563
N	-0.512317	1.035686	0.75217
H	-1.511139	1.1153	0.536296
H	-0.391457	0.848548	1.739563
N	-0.241572	-1.398127	0.66497
O	-0.352802	-1.404061	1.885098
O	-0.260921	-2.387708	-0.055696
N	-0.294742	1.225878	-2.089555
H	-1.005947	1.344891	-2.799566
H	0.618649	1.261509	-2.527583
Cl	-3.611486	0.0	0.0
