15

C	0.0	0.0	0.0
C	-0.508211	-0.107196	-1.419996
Cl	1.846928	0.0	0.0
H	-1.56544	-0.380075	-1.329672
H	0.031318	-0.907142	-1.924864
N	-0.542963	1.078521	0.69101
H	-1.567292	0.9906	0.605836
H	-0.288478	1.036467	1.670216
N	-0.263593	-1.363158	0.723234
O	-0.390168	-1.310783	1.941154
O	-0.276671	-2.381631	0.043846
N	-0.2763	1.158832	-2.118068
H	-0.747297	1.092005	-3.013648
H	-0.757094	1.883787	-1.596763
Cl	-3.604658	0.0	0.0
