15

C	0.0	0.0	0.0
C	-0.512588	0.153545	-1.422463
Cl	1.768239	0.0	0.0
H	0.047088	-0.52625	-2.063947
H	-1.565436	-0.143155	-1.410721
N	-0.554681	0.945008	0.867592
H	-1.576986	0.838278	0.799992
H	-0.260637	0.766633	1.820187
N	-0.306911	-1.468491	0.467152
O	-0.385486	-1.641568	1.677796
O	-0.390503	-2.340348	-0.388086
N	-0.2787	1.52943	-1.861131
H	-0.8793	2.130781	-1.307893
H	-0.597115	1.6015	-2.820318
Cl	-3.608233	0.0	0.0
