15

C	0.0	0.0	0.0
C	-0.498169	-0.030195	-1.430612
Cl	1.860491	0.0	0.0
H	-1.573064	-0.223111	-1.345102
H	-0.024012	-0.873272	-1.939454
N	-0.514599	1.022201	0.771902
H	-0.380503	0.81943	1.755398
H	-1.517089	1.088103	0.572341
N	-0.246091	-1.414313	0.63642
O	-0.396446	-1.440119	1.852263
O	-0.225962	-2.392774	-0.100405
N	-0.293233	1.262324	-2.070096
H	0.628858	1.307445	-2.483858
H	-0.984542	1.381067	-2.797943
Cl	-3.621695	0.0	0.0
