12

C	0.0	0.0	0.0
C	-0.456981	-0.17254	-1.476136
Cl	1.787461	0.0	0.0
H	0.008088	0.647121	-2.034946
H	-0.346661	0.947772	0.41542
H	0.006526	-1.098624	-1.829521
C	-0.452764	-1.109632	0.835522
N	-0.754991	-2.055741	1.462619
N	-1.861891	-0.204664	-1.748925
H	-2.357354	-0.944247	-1.264856
H	-2.34577	0.637157	-1.462898
Cl	-4.590017	0.0	0.0
