12

C	0.0	0.0	0.0
C	-0.48272	-0.143281	-1.467153
Cl	1.785927	0.0	0.0
H	-0.13181	-1.118923	-1.819886
H	-0.331927	0.949608	0.422709
H	0.064092	0.615676	-2.037139
C	-0.458425	-1.100636	0.841798
N	-0.784027	-2.017744	1.498631
N	-1.886035	-0.005889	-1.71587
H	-2.480288	-0.654234	-1.206459
H	-2.238616	0.904698	-1.448319
Cl	-4.605473	0.0	0.0
