13
Coordinates from ORCA-job run
  C   -0.36911714830374      0.18829993115675     -0.17050444464741
  C   1.01657512464591     -0.46511681808632     -0.18034012348530
  F   -0.74181082041500      0.39405109674464     -1.49086778247818
  H   0.93081693024829     -1.42648218040490     -0.69526438776967
  H   1.34264900043434     -0.65580935582580      0.84596339326580
  C   -1.40857624529497     -0.69958165149246      0.48713693813364
  H   -1.44882178280849     -1.65474935751099     -0.04007810607387
  H   -2.38699387233876     -0.22198419429796      0.42495313677805
  H   -1.16518590614882     -0.87268441658824      1.53688825757045
  C   -0.30913893733266      1.50141617218520      0.49660103590870
  N   -0.27323826894826      2.52773782274686      1.06567154014775
  C   2.00779361067220      0.36068777492598     -0.86552121808192
  N   2.80404831558997      1.02421517644722     -1.41463823926806
