13
Coordinates from ORCA-job run
  C   -0.36462917490640      0.19588841920982     -0.17487084211254
  C   1.00498469041576     -0.49041002105542     -0.17171071736271
  F   -0.72644104873808      0.39741492588395     -1.49925826552088
  H   1.32053251271718     -0.68107879644230      0.85776513869925
  H   0.89853204246029     -1.45327294501702     -0.67963560761289
  C   -1.42779781147577     -0.66095250399929      0.48613121867897
  H   -2.39491722084040     -0.16289849859196      0.40956676954026
  H   -1.48474607599692     -1.62227212473290     -0.02825048830301
  H   -1.19631448366936     -0.82472535098437      1.54004734165209
  C   -0.27559942022931      1.51353291928874      0.47987442023834
  N   -0.21170369027604      2.54152572671662      1.04337069213035
  C   2.02072131382459      0.30463805974008     -0.85722272130660
  N   2.83737836671444      0.94261018998407     -1.40680693872064
