13
Coordinates from ORCA-job run
  C   -0.51435372008343      0.24916100450203     -0.31604895363821
  C   0.85762693063954     -0.12571209424915     -0.89196400525828
  F   -1.38542597587393      0.27318046401224     -1.39965561243079
  H   0.75831708755730     -1.09527175138040     -1.38861259943907
  H   1.14072520660436      0.61267581011136     -1.64665759544323
  C   -1.03073481891351     -0.75073088997003      0.69802361240577
  H   -0.38153713816603     -0.78580326168001      1.57402537051768
  H   -1.06971576553582     -1.73940877027995      0.23598588156444
  H   -2.03614828807564     -0.46600362961473      1.00993937905772
  C   -0.46936323106532      1.60744858356698      0.25462193179660
  N   -0.42915917855652      2.68412656815581      0.72123943678509
  C   1.87877316380377     -0.20026108624544      0.14709829231187
  N   2.68099572766524     -0.26440094692871      1.00100486177039
