13
Coordinates from ORCA-job run
  C   -0.36209209214743      0.19464419773177     -0.17995655675815
  C   1.01155082195496     -0.48342038736977     -0.15254540740604
  F   -0.69729388309193      0.40288620056948     -1.51006684985853
  H   1.30805367915446     -0.67583774502175      0.88239445838592
  H   0.92169312688781     -1.44518465799527     -0.66610573182750
  C   -1.43357198799360     -0.67276054457556      0.45286446391425
  H   -1.47730377158987     -1.62835825576823     -0.07301127425874
  H   -1.22015703462114     -0.84754452856694      1.50862323364893
  H   -2.40128894139014     -0.17816729597101      0.36463481752275
  C   -0.29444703066425      1.50866520713521      0.48458761289026
  N   -0.24826568743308      2.53634561167571      1.05049353041252
  C   2.03486174816478      0.32148765024366     -0.81533357054743
  N   2.85826105276940      0.96624454791270     -1.34657872611823
