13
Coordinates from ORCA-job run
  C   -0.35308452619560      0.25706311911061     -0.09726136664848
  C   0.97751942629925     -0.46391166624687     -0.33316003707095
  F   -0.71147745839341      0.87065014593265     -1.28943754657805
  H   1.29268884456104     -0.96771907211421      0.58469445358336
  H   0.81517393312414     -1.22550383428699     -1.10120119221257
  C   -1.45704052252912     -0.70671372338097      0.29500182040185
  H   -1.22496829900427     -1.20128389344508      1.23984125264439
  H   -1.57371901104494     -1.45650931920153     -0.48985860091318
  H   -2.39493653013985     -0.16097357900792      0.40266947922197
  C   -0.19227026038401      1.30778814286808      0.92415865030520
  N   -0.08131084911029      2.11748480638601      1.76717327425965
  C   2.02806793444003      0.44931569420397     -0.77562856074615
  N   2.87635731837703      1.17931317918224     -1.12699162624704
