13
Coordinates from ORCA-job run
  C   -0.37057157602827      0.21974971476132     -0.12561397758870
  C   0.99464242765706     -0.45581762959938     -0.28875392884916
  F   -0.78944088922807      0.62202887173479     -1.38542154950263
  H   0.86180829076028     -1.33070450015940     -0.93179666088774
  H   1.35568375015208     -0.79991389483507      0.68447977896759
  C   -1.40738860039564     -0.73076355519861      0.44275106642670
  H   -1.49590321440738     -1.59852635563525     -0.21389883222903
  H   -1.12662818719752     -1.05917990275359      1.44500874219246
  H   -2.37373772129147     -0.22778372498358      0.49316916869145
  C   -0.24706834640671      1.42125705014044      0.71949539389598
  N   -0.15744597000607      2.35334142718926      1.42775435538648
  C   1.98137861897724      0.43710605060175     -0.89114881585188
  N   2.77567141741447      1.15120644873735     -1.37602474065153
