13
Coordinates from ORCA-job run
  C   -0.37165369410368      0.20895725294794     -0.14155214402231
  C   0.98941588733452     -0.48494889181501     -0.25616683462492
  F   -0.80249939833628      0.49625622191687     -1.42880023829921
  H   1.35965083264539     -0.73909177168490      0.74098980982934
  H   0.84602488341513     -1.41491564420039     -0.81401364155935
  C   -1.40582829727967     -0.68083679213348      0.52160618037338
  H   -2.37045856972604     -0.17231181400288      0.53137802159131
  H   -1.50128750980768     -1.60642743731543     -0.04939895253956
  H   -1.11821468977098     -0.91409930060246      1.54823839267460
  C   -0.23412125409400      1.48211885185284      0.58857893387687
  N   -0.13028468020454      2.47330952674239      1.20918836803841
  C   1.97318146299899      0.34414260951555     -0.94807549014381
  N   2.76607502692886      1.00784718877896     -1.50197240519474
