13
Coordinates from ORCA-job run
  C   -0.35472195665053      0.25555476793623     -0.09898654300454
  C   0.97837424808873     -0.46387229846038     -0.32838227175644
  F   -0.71792530472076      0.85278989289378     -1.29737343285874
  H   1.29808448026194     -0.95281765856249      0.59611891559474
  H   0.81733939350228     -1.23724864781736     -1.08512509909783
  C   -1.45431002236816     -0.70696942724591      0.30788458534138
  H   -1.56833088443346     -1.46820150070071     -0.46624703742155
  H   -1.21961460658409     -1.18720534436686      1.25931544142539
  H   -2.39444504580927     -0.16367051003698      0.40821193527866
  C   -0.19251483870523      1.31768731454935      0.91021404643332
  N   -0.07532625218036      2.13066759406246      1.74903580514171
  C   2.02228135399451      0.44779952862192     -0.78967942894294
  N   2.86110943560439      1.17748628912694     -1.16398691613318
