13
Coordinates from ORCA-job run
  C   -0.50038081839631      0.26867679880452     -0.32233194890568
  C   0.87051202695521     -0.14061374337796     -0.87670507143557
  F   -1.34899421764471      0.33448235174387     -1.42176371121899
  H   1.18978672533122      0.59724512013784     -1.61729314837312
  H   0.75265651551116     -1.10174593782760     -1.38567531804736
  C   -1.06743174228841     -0.72841865410623      0.66720521526618
  H   -0.43857525916308     -0.79480746450051      1.55607986488326
  H   -2.07019407307455     -0.41712358882602      0.96190174889015
  H   -1.12645150966353     -1.70903562223739      0.19066126111921
  C   -0.42444824672836      1.61678322916066      0.26847571773896
  N   -0.35914801901971      2.68549289667130      0.75022439832618
  C   1.86873112040577     -0.25669158005588      0.18095558399898
  N   2.65293749777530     -0.35424380558660      1.04826540775781
