14

C	0.0	0.0	0.0
C	-0.358828	-0.194331	-1.49825
F	1.378203	0.0	0.0
H	-0.1078	0.74092	-1.988063
H	-0.319108	1.009255	0.284605
N	-0.502877	-1.054983	0.80327
H	-1.53162	-0.930698	0.65323
H	-0.340077	-0.808991	1.775842
C	-1.677378	-0.646779	-1.969221
N	-2.39404	-1.138872	-2.779609
N	0.666049	-1.167679	-2.065941
O	1.587624	-0.661048	-2.705617
O	0.520882	-2.362812	-1.851569
H	-2.737064	0.0	0.0
