14

C	0.0	0.0	0.0
C	-0.349727	0.018378	-1.530648
F	1.375618	0.0	0.0
H	0.553474	0.395182	-2.027592
H	-0.356412	0.957496	0.386387
N	-0.533315	-1.020329	0.814246
H	-1.560978	-0.815043	0.741897
H	-0.352673	-1.921428	0.387287
C	-1.466816	0.876015	-1.93118
N	-2.025003	1.724972	-2.531243
N	-0.490135	-1.36217	-2.115178
O	0.318417	-2.195408	-1.70616
O	-1.321751	-1.557935	-2.99347
H	-2.770549	0.0	0.0
