14
Coordinates from ORCA-job run
  C   0.69033715240520     -0.08859213421454     -0.08703498482821
  C   -0.63917426632210     -0.01925095875366      0.19004688215644
  N   1.37417136481946      1.12855219066150     -0.60863686412984
  O   2.38923822919660      0.92515862541163     -1.26936597619033
  O   0.89414048617868      2.21869024495694     -0.32400172515109
  N   1.54355458777018     -1.10649128765487      0.09366930693410
  H   1.15083455112766     -2.00363849086756      0.33435294002069
  H   2.41467371486431     -1.05278219802075     -0.41249690500774
  N   -1.46222072822323      1.17119257029275     -0.01003802263827
  O   -1.75021216605142      1.45332307076913     -1.16920931874603
  O   -1.82130659123173      1.74941250889036      1.00925913288747
  N   -1.39852263219604     -1.15840800313945      0.63901335857002
  O   -2.61640196133202     -1.02786584415269      0.70503136292515
  O   -0.77011174100553     -2.18730029417880      0.91041081319762
