14
Coordinates from ORCA-job run
  C   0.67882096979339     -0.10061848120194     -0.14985582336267
  C   -0.65663106559801     -0.04694682236940      0.10180138899735
  N   1.37302389290337      1.14339626531837     -0.58682113873052
  O   2.57887928401916      1.18676449383555     -0.35795584082287
  O   0.70462197693197      2.00205279991848     -1.14887778838708
  N   1.50539432756576     -1.15545438394833     -0.12211137186145
  H   2.49207288002911     -0.94906001178280     -0.08136260557356
  H   1.14894854207508     -2.01319088921891      0.27077321020336
  N   -1.47064549259931      1.16187562702755     -0.00770806065057
  O   -2.24145383590339      1.20055914178118     -0.95989431215409
  O   -1.33886257488507      1.99775899525117      0.88092573209311
  N   -1.40048857025678     -1.18031286048718      0.58894869915114
  O   -2.56000980400838     -0.98077748104006      0.93626351920585
  O   -0.81367053006690     -2.26704639308367      0.63487439189199
