14
Coordinates from ORCA-job run
  C   0.69625484986209      0.05523912147277     -0.06458234472456
  C   -0.64461669291596      0.05679468154407      0.16234687919697
  N   1.18957065214555     -0.32227701802824     -1.41925879551949
  O   2.33904510033049     -0.75232476485979     -1.46426326068521
  O   0.43904913229136     -0.14193172338519     -2.37001995087995
  N   1.69627111101070      0.41037826428227      0.75450739473727
  H   1.46596447041081      0.56861036667325      1.72359706938649
  H   2.61783263716165      0.08980759704688      0.49782435295507
  N   -1.65088173444813     -0.31189267596518     -0.83100818202661
  O   -2.31774310538702      0.61204145951260     -1.28258586821488
  O   -1.75765443878709     -1.50656782130578     -1.09023416326875
  N   -1.21219430783956      0.34455577522537      1.45502920370354
  O   -2.41716311954625      0.15878284976977      1.59048646110601
  O   -0.44273455428865      0.74078388801720      2.33716120423411
