14
Coordinates from ORCA-job run
  C   0.53319303677631     -0.41281584918723     -0.09448774875893
  C   -0.82019809595463      0.07097783720241      0.27725958814534
  N   1.12334428808425      0.47022342157427     -1.20128663845132
  O   2.31811286191558      0.33226638291542     -1.43086012831174
  O   0.33379754847885      1.18105768835009     -1.81196409683361
  N   1.49912684326386     -0.55667517238331      0.90703770482766
  H   1.22452828958019     -1.27658013080065      1.56267125117261
  H   2.40336758655288     -0.76518917317590      0.50044299600126
  N   -1.37878254652726      1.26437272814619      0.84507326911408
  O   -2.60102959376986      1.30404782190746      0.96590607994492
  O   -0.55675558230484      2.12076483588533      1.15463345087259
  N   -1.51812662367405     -0.86939371901247     -0.33161615483166
  O   0.01465089873528     -1.58105062554065     -0.72093127301981
  O   -2.57522891115652     -1.28300604588099     -0.62287829987138
