14
Coordinates from ORCA-job run
  C   0.69922484308811     -0.02837962196422     -0.07036375358227
  C   -0.63010223098847      0.12357008568004      0.17416781101911
  N   1.13719535770787     -0.35362450837165     -1.45765944111884
  O   0.39381505646730     -0.04022714845225     -2.37901737807013
  O   2.23274941587045     -0.90022164542845     -1.55429164028339
  N   1.73751502705987      0.12854536627620      0.76270276966971
  H   2.61270694333645     -0.27566855483967      0.46519008535276
  H   1.53226100818680      0.23025391785694      1.74483467894632
  N   -1.68106295955898     -0.02796358495013     -0.83002413982010
  O   -1.96333228169703     -1.17495795020397     -1.16210877067315
  O   -2.21071741908456      1.01038342126291     -1.20868463034840
  N   -1.15237460363936      0.37503146189867      1.49341566605778
  O   -2.37169153642540      0.34852210109034      1.62580779954566
  O   -0.33618662032307      0.58573666014523      2.39703094330494
