14
Coordinates from ORCA-job run
  C   0.68986078066264      0.12928760174440     -0.03569864442879
  C   -0.65121706058002     -0.01552892969324      0.13788617963583
  N   1.26911203893866     -0.14841720804539     -1.38067322379786
  O   0.53330491327543     -0.03594729869821     -2.35322487776484
  O   2.45903331642163     -0.45194799952338     -1.39366990600244
  N   1.61681766375681      0.55659590317378      0.83371265857926
  H   1.33682611944290      0.65036404655634      1.79810698702142
  H   2.57506249953010      0.34113686800579      0.60254902336985
  N   -1.29240167573186      0.16754203374133      1.41535012174936
  O   -2.47844633753476     -0.13580527455962      1.49353975652426
  O   -0.59967725383105      0.60371014838724      2.34103703599443
  N   -1.57942742812456     -0.44638025385286     -0.90534462716994
  O   -2.31396872176012      0.42399441598691     -1.35820301468637
  O   -1.56687885446582     -1.63860405322308     -1.19536746902417
