14
Coordinates from ORCA-job run
  C   0.69310946040877     -0.09418996633055     -0.09908395434565
  C   -0.64980387526739     -0.01560356751607      0.12518429703735
  N   1.42473762369217      1.11709879699289     -0.57902391402838
  O   0.78325002268504      2.14848109659880     -0.73607544622942
  O   2.62780899542946      0.97228923011752     -0.77750807533493
  N   1.50075844371902     -1.14603540876665      0.05581651817467
  H   1.11416553880569     -2.02122290054117      0.37023903160449
  H   2.47597169023183     -1.03183931325670     -0.16876528655480
  N   -1.47710642459179      1.17532064979347     -0.06275495469474
  O   -1.99043077855576      1.30873030781158     -1.16798410766790
  O   -1.62555103611901      1.89091424756483      0.92138845267030
  N   -1.42340842443915     -1.14017674564542      0.58581259490747
  O   -0.82734558874892     -2.20497350986857      0.78334874162930
  O   -2.62615564724997     -0.95879291695398      0.74940610283224
