14
Coordinates from ORCA-job run
  C   0.69383497644784      0.10696780562124     -0.01003747771893
  C   -0.63075478058300     -0.15808026619905      0.14690688923810
  N   1.27112955661107      0.06561846693469     -1.38325040216692
  O   0.71376070740858     -0.63934544947176     -2.21527098921609
  O   2.28437831164932      0.73847357824141     -1.55329654727345
  N   1.62551386260960      0.35682900383064      0.92083844047415
  H   1.30511909269672      0.51968996291375      1.86321786447669
  H   2.47842407770663      0.78543985662866      0.59405392133906
  N   -1.29198970334685     -0.08027859936597      1.42455971914322
  O   -0.58239569555558      0.09789839767842      2.42055155874046
  O   -2.51433803219296     -0.18289658089695      1.42899448269640
  N   -1.54667477919699     -0.46207606714357     -0.95036598313217
  O   -1.92324125509707     -1.62621309900544     -1.02338277338139
  O   -1.88376633915731      0.47797299023393     -1.66351870321914
