14
Coordinates from ORCA-job run
  C   0.52412353291241     -0.41912275436089     -0.11497841125182
  C   -0.81079335695753      0.07836358960895      0.30296365011244
  N   1.09667368934636      0.47384340003162     -1.22264714361669
  O   2.28215061002444      0.32168777561692     -1.48861921810325
  O   0.30147370672496      1.20719036726202     -1.79854845417454
  N   1.51526147661979     -0.59449087674352      0.85681505140209
  H   1.24818019232954     -1.32373120396542      1.50532265980798
  H   2.40473448447926     -0.80846687430345      0.42138654475563
  N   -1.53885559955526     -0.84125010036267     -0.30257392998725
  O   -2.60896769964287     -1.23506046024886     -0.57288805127110
  O   -0.02957917834669     -1.56870689424146     -0.74527729853962
  N   -1.33656054627996      1.27119297634741      0.90235062717309
  O   -2.55456127146660      1.32668903497618      1.05556146870754
  O   -0.49428004018786      2.11086202038317      1.20313250498551
