14
Coordinates from ORCA-job run
  C   0.69615628954681     -0.00881266502368     -0.08921271103517
  C   -0.62837227003075      0.10617149474917      0.19635338579520
  N   1.09969856728068     -0.27488451828306     -1.49913444349855
  O   2.18743207657930     -0.82622671260559     -1.64462172768012
  O   0.34022558980620      0.08984640987864     -2.38789262378834
  N   1.75600268649895      0.14429564639562      0.71704364737756
  H   2.62877388742750     -0.23642967160463      0.38362263293374
  H   1.57801091136738      0.21427825112766      1.70728321273964
  N   -1.70035039522098     -0.04472377407517     -0.78491649295079
  O   -2.28899680945143      0.98517869334728     -1.09341824354365
  O   -1.93818583880806     -1.18516462519854     -1.17062770435035
  N   -1.11789395155573      0.29946932770926      1.53784734496966
  O   -2.33040533425884      0.22288644774302      1.70717136144667
  O   -0.28109540918102      0.51411569584002      2.42150236158449
