14
Coordinates from ORCA-job run
  C   0.69052340066608      0.03642311939733     -0.12352633541413
  C   -0.61094479564718     -0.09966481961093      0.24623944945115
  N   1.02668703866625     -0.00381897999247     -1.57457593295223
  O   2.06252369364965      0.57263673585197     -1.89562583281683
  O   0.26935116209461     -0.61426350472354     -2.31873440312754
  N   1.78406438937405      0.15096905119348      0.64374806688632
  H   1.64148245327239      0.30630383331896      1.63007523884494
  H   2.61020578404771      0.51025949677189      0.18933195314035
  N   -1.72156791556488     -0.26666996395003     -0.68860425413334
  O   -2.22454256455176     -1.38379973488490     -0.72480380885335
  O   -2.07155588402830      0.73059872239944     -1.31217178501598
  N   -1.04176588747044     -0.00824675483376      1.61808734744790
  O   -2.25079091479875      0.01401748228953      1.82420589472829
  O   -0.16366995970944      0.05525531677303      2.48535440181445
