14
Coordinates from ORCA-job run
  C   0.69285475208919     -0.07879328024246     -0.07972449099744
  C   -0.64207931258156     -0.03419589175244      0.17582770211731
  N   1.37495640935994      1.16806611264275     -0.52787242566345
  O   0.87989585680955      2.23880046159337     -0.19887565655835
  O   2.40252360273135      1.00538293787607     -1.18053050929917
  N   1.55137857051285     -1.09773504986824      0.06623969411761
  H   1.16242702453148     -2.00852360684015      0.25656399181203
  H   2.43191840291461     -1.01275599392935     -0.41878683875625
  N   -1.47157590135901      1.15889953564651      0.02315526082908
  O   -1.84995984180095      1.68328504078984      1.06430182889832
  O   -1.74494992161997      1.49582064169747     -1.12491856212934
  N   -1.39946154365683     -1.19986058837317      0.55424780647379
  O   -2.61924647346964     -1.08133315408197      0.60726429776479
  O   -0.76768162446102     -2.23705716515824      0.78310790139106
