14
Coordinates from ORCA-job run
  C   0.68686654086156     -0.09491727431786     -0.11124916870406
  C   -0.66174587747038     -0.05294698578140      0.05830060735358
  N   1.39823462867357      1.16267768286177     -0.47567103834377
  O   0.76258348993956      2.02701102711467     -1.06618463168570
  O   2.58501547143659      1.21054774917251     -0.16310581920046
  N   1.51730649156039     -1.14597145027132     -0.05757668972035
  H   2.49725205144804     -0.93374372805764      0.05523336428843
  H   1.14358887741316     -2.01254472133650      0.29830141969330
  N   -1.42776891425800     -1.20040249937940      0.47361293718025
  O   -0.83755438667223     -2.28452444674276      0.53432473193352
  O   -2.60813839201170     -1.01452058437721      0.75078160927358
  N   -1.47295681947460      1.15537140668748     -0.07180714560683
  O   -1.39658992847172      1.97163154790189      0.84132862673034
  O   -2.18709323297424      1.21333227652578     -1.06628880319182
