14
Coordinates from ORCA-job run
  C   0.68514865415657     -0.07985534921609     -0.13225864134003
  C   -0.62929804254296     -0.04449444756793      0.21452042430029
  N   1.36892405561901      1.20141348872144     -0.46637059138133
  O   2.35060289629493      1.10384701177032     -1.19787767635497
  O   0.92049424199456      2.23130929014173      0.02148387441392
  N   1.52536196257021     -1.12393755073524     -0.17023590552948
  H   2.37233523150131     -0.99433497189366     -0.70301695475708
  H   1.12331462966400     -2.04390384981515     -0.07394355669691
  N   -1.39168365708628     -1.23551447812282      0.49059682186817
  O   -0.77397015349394     -2.30436729216694      0.54670944388996
  O   -2.60251498531685     -1.10301162426409      0.63584525842249
  N   -1.43759968636516      1.17181409369414      0.26391801273064
  O   -1.73520289921995      1.56883066954284      1.38471510501455
  O   -1.77691224777546      1.65220500991143     -0.81308561458021
