14
Coordinates from ORCA-job run
  C   0.69103327445301      0.10956104648448     -0.09652635157135
  C   -0.63000090250734     -0.06718674598238      0.19275786781427
  N   1.17125591935453     -0.13455659019224     -1.49056616332429
  O   0.34048174496291     -0.43845714829702     -2.33746894645126
  O   2.37909245683700     -0.00557086948822     -1.67060051490797
  N   1.67594008253678      0.49367778877751      0.71885262091073
  H   2.60789316975833      0.55439026582623      0.34162997072090
  H   1.46920419204434      0.68253689701512      1.68624778999564
  N   -1.16639539079527      0.14087120704315      1.51313991123682
  O   -2.36657814313578     -0.06576281469419      1.66560140828734
  O   -0.38633839215366      0.51101719290465      2.39794129833485
  N   -1.66035908024235     -0.49039708963926     -0.75492783959721
  O   -1.84184118466870     -1.69885465902124     -0.85372194520884
  O   -2.28238774644381      0.40673151926343     -1.31235910623962
