14
Coordinates from ORCA-job run
  C   0.51321698711653     -0.38673912691502     -0.26556288672604
  C   -0.83554450759494     -0.08525802643130      0.25299000236227
  N   1.00610445680270      0.80204418665883     -1.14075315581319
  O   2.20026154471007      0.80421413476060     -1.41522540239876
  O   0.15742811765140      1.59802140629853     -1.52931988486869
  N   1.46100514130192     -0.85124044987101      0.65417832989349
  H   2.28886465591690     -1.17845879803260      0.16929091768256
  H   1.71599158258168     -0.11838616810805      1.30693334164738
  N   -1.50950588782813     -0.92700518955929     -0.50833602814263
  O   0.04687271728962     -1.36359358038370     -1.16352821491777
  O   -2.55122634847778     -1.37361881834688     -0.80415596378354
  N   -1.37524024121835      0.80137755993603      1.23041606514930
  O   -0.52501204441532      1.46841772421987      1.82024561317164
  O   -2.59221617383630      0.81122514577399      1.39282726674398
