14
Coordinates from ORCA-job run
  C   0.67963599111258     -0.09051384357903     -0.15150582007011
  C   -0.62260850717072     -0.03196520453524      0.23579955198349
  N   1.36371834842885      1.17383907456723     -0.54449188752304
  O   0.93997981949133      2.22179704516831     -0.07334138092401
  O   2.32127699189316      1.04542685287531     -1.30272736794660
  N   1.50871107914604     -1.14345307832412     -0.18563560447594
  H   2.34063772632694     -1.03658076351396     -0.74645231223814
  H   1.10305071627885     -2.05674272390401     -0.04966966801458
  N   -1.38600832492286     -1.20689755811128      0.57123117884785
  O   -2.59048667293113     -1.05882469842608      0.75031835639527
  O   -0.77582748968111     -2.27934920034944      0.63997103994363
  N   -1.41854756918182      1.19292409581342      0.27352466033535
  O   -1.67842828969584      1.62547691634492      1.39050086654858
  O   -1.78610381909427      1.64486308597396     -0.80652161286175
