14
Coordinates from ORCA-job run
  C   0.69828273172000      0.03447851724509     -0.06656344461654
  C   -0.62984699343804     -0.08422848008564      0.20045683179512
  N   1.16059860941025     -0.13632167866108     -1.47298113195098
  O   0.47288732917182     -0.82062009761535     -2.22038638262201
  O   2.21987764665524      0.41781233794214     -1.75440609253432
  N   1.71970530708557      0.23419723660738      0.77844329598438
  H   2.58205933541346      0.55697004177949      0.36589651786718
  H   1.49164654360935      0.47635905578555      1.73056888208129
  N   -1.17875312208142      0.12658269807264      1.51605738096289
  O   -0.37972171394784      0.28006205612303      2.44618432136323
  O   -2.40119291328568      0.15292443439014      1.61413947986241
  N   -1.65433165677137     -0.34943624113968     -0.80695922375765
  O   -1.95246679163213      0.58192624637832     -1.54833475171997
  O   -2.14874431190920     -1.47070612682203     -0.78211568271506
