14
Coordinates from ORCA-job run
  C   0.65688258908045     -0.09695050379929     -0.22924947300305
  C   -0.64570419991511     -0.04335033275889      0.15776167809365
  N   1.35666721207272      1.17869838758212     -0.55130361985011
  O   2.57909198118741      1.15730322151176     -0.43428002563517
  O   0.67438394570628      2.12621646375079     -0.92061898270450
  N   1.43931990546566     -1.16631824423635     -0.43259289364313
  H   2.43299803498698     -0.99251227311853     -0.45394898583902
  H   1.08807355239078     -2.06139123025683     -0.12827321827545
  N   -1.41619622855007      1.19015622001698      0.30076926381213
  O   -2.27017557270692      1.38703090109187     -0.55612110445302
  O   -1.16804930837627      1.88461560289201      1.28144705342049
  N   -1.38708728204538     -1.21519436232761      0.54977020725465
  O   -0.84132600437785     -2.31209392443819      0.38799044732587
  O   -2.50187862491867     -1.03720992590981      1.02964965349665
