14
Coordinates from ORCA-job run
  C   0.69647679593727     -0.08934036890764     -0.01528300390098
  C   -0.65819161461188     -0.04230688616944      0.09507334601789
  N   1.44759292809160      1.19336779710430     -0.12099512745895
  O   2.54244013803789      1.12292364600761     -0.67303888314741
  O   0.93526388353625      2.19592011910664      0.36075936145942
  N   1.51447568354551     -1.15101116950253      0.01366312636391
  H   1.08872742250513     -2.06401146036668     -0.03477311267862
  H   2.44522662287198     -1.00563987810565     -0.34765966715655
  N   -1.47475436698524     -1.22863153429400      0.13781944145073
  O   -2.69001067972448     -1.07371852300582      0.07602373638449
  O   -0.89230551506532     -2.31561689840124      0.21823058667929
  N   -1.44444573969656      1.18940214627975      0.09704699590946
  O   -1.93342199000242      1.50763846071961      1.17493334261776
  O   -1.57607356843973      1.76102454953510     -0.98080014254044
