14
Coordinates from ORCA-job run
  C   0.67638735945260     -0.11167056332039     -0.15236403190411
  C   -0.62063930663018     -0.00645535393600      0.24252474114554
  N   1.37943883458998      1.11454086069592     -0.62411083276495
  O   2.32588068164345      0.92465014244118     -1.38339070371969
  O   0.98046099729856      2.19576379755922     -0.20988998788720
  N   1.48578034829810     -1.18024694627471     -0.13279009100110
  H   1.06479538987139     -2.07609009433267      0.06080486623780
  H   2.31376769028118     -1.12229343150928     -0.70648998986676
  N   -1.40173675081199     -1.14552052634551      0.65274915245177
  O   -2.60165694459235     -0.96530786533214      0.83278741152925
  O   -0.81016350255934     -2.22313733062987      0.77928442721659
  N   -1.39400883664852      1.23313448264314      0.21622914263392
  O   -1.63620704268398      1.73337462295984      1.30862952831703
  O   -1.76309891750887      1.62925820538127     -0.88497363238810
