14
Coordinates from ORCA-job run
  C   0.69606794029981      0.07972935797375     -0.09162530887016
  C   -0.63139251416557     -0.05433059762386      0.19063506355185
  N   1.16524753688537     -0.10799914848051     -1.49793332475498
  O   2.37044303636764      0.03575680718700     -1.68404287730477
  O   0.32886340487787     -0.38702445941700     -2.34797364163132
  N   1.69770852055904      0.36799841654779      0.74282793211842
  H   1.49730576154103      0.51678356898863      1.71853052237824
  H   2.62786475465185      0.43333827765664      0.36201280010694
  N   -1.15912303048065      0.11224155295378      1.52081849331039
  O   -0.36128585020751      0.38341801702385      2.42529261595326
  O   -2.37036363841534     -0.02778321430723      1.66067682095498
  N   -1.68100486681039     -0.37299775114047     -0.77637436133728
  O   -2.23428504178377      0.58273557400145     -1.30861576679539
  O   -1.94604601331940     -1.56186640136381     -0.91422896768018
