14
Coordinates from ORCA-job run
  C   0.66056503266970     -0.09896664896272     -0.21831245857364
  C   -0.64980120869455     -0.03728831871929      0.13917488121784
  N   1.39882257165959      1.17595752525466     -0.43952728217479
  O   2.61600389842361      1.11761634437218     -0.28590516151253
  O   0.75041344580468      2.16044944878490     -0.77168696541126
  N   1.42215369101897     -1.17306508053963     -0.47204137033809
  H   1.04042383052752     -2.07535016561923     -0.23207242831053
  H   2.42010550602701     -1.02549554333310     -0.45242830313970
  N   -1.43062936823852     -1.21144353230369      0.43505564609668
  O   -0.90825393045853     -2.30987169596049      0.21612820412633
  O   -2.55326294157388     -1.03497996091905      0.89690528833536
  N   -1.39331270818179      1.20463612184844      0.33976657724563
  O   -1.15407118156587      1.83023209830142      1.36805793432407
  O   -2.21915663741795      1.47656940779561     -0.52411456188537
