14
Coordinates from ORCA-job run
  C   0.69969702144655     -0.02370428957705     -0.05753097258022
  C   -0.63451365123901      0.13067672174619      0.15537923522833
  N   1.16021380849587     -0.46003087929912     -1.40592522728846
  O   2.24938991894549     -1.02670079548388     -1.43697789199923
  O   0.44071649257763     -0.20670566356600     -2.36402706962094
  N   1.72542381842396      0.21863491031737      0.77099716401429
  H   2.60649861965360     -0.20673220901116      0.52448977105086
  H   1.50480184442002      0.40393440477094      1.73753228771407
  N   -1.17916462089745      0.48606908687066      1.44117316122476
  O   -0.37863980231524      0.79472211526414      2.33059886993919
  O   -2.39897584459753      0.44248440089342      1.56312002047484
  N   -1.66580990156785     -0.12330422493966     -0.84818798577657
  O   -2.21995583812466      0.86942318987333     -1.30613372080215
  O   -1.90868186522140     -1.29876676785918     -1.10350764157876
