14
Coordinates from ORCA-job run
  C   0.69274531403225     -0.10123735157935     -0.05482917768292
  C   -0.65301645264734     -0.03324694074199      0.12875265001041
  N   1.46210190388868      1.17054399910847     -0.16381155745120
  O   2.52512362802430      1.09683865752364     -0.77448986064975
  O   0.99461555591849      2.16779736141408      0.37160478922228
  N   1.49056592953274     -1.17769939979596     -0.09952917720325
  H   1.04517785066298     -2.08110456847095     -0.15153572009706
  H   2.40371881552412     -1.03801064088909     -0.50529747809937
  N   -1.48894215971257     -1.20569874538677      0.18095218831484
  O   -0.92391153947556     -2.30460581407894      0.20044222016176
  O   -2.70256723469445     -1.02756252158006      0.18816950081493
  N   -1.41404091917742      1.21167280064180      0.20715527490626
  O   -1.83914359689011      1.50722579528469      1.31816693353809
  O   -1.59242709498611      1.81608736855041     -0.84575058578504
