14
Coordinates from ORCA-job run
  C   0.69556662964962      0.06181427117936     -0.07797898499538
  C   -0.62217587268493     -0.10353214600089      0.21361430467868
  N   1.14881463895438     -0.15947976680887     -1.47971834472037
  O   2.17506252471706      0.43150611280060     -1.80521423527773
  O   0.48684333216275     -0.91509386749787     -2.18030894751146
  N   1.71671810200530      0.34893749605700      0.74242922141120
  H   1.48690916349719      0.62964360648502      1.68359327420855
  H   2.55621348464890      0.69483581998020      0.30225369150211
  N   -1.16573570817840      0.15321315602565      1.52292219477999
  O   -2.38723042986630      0.13283030753777      1.63480608897239
  O   -0.36476555406549      0.38781323145729      2.43433152627379
  N   -1.64495064990128     -0.46632711403281     -0.76524267259619
  O   -1.99213145638379      0.41079934478241     -1.55010005487549
  O   -2.08713820455502     -1.60596045196485     -0.67638706185010
