14
Coordinates from ORCA-job run
  C   0.66376597143607     -0.07030983309303     -0.21982924711292
  C   -0.65086231139443     -0.05883149692389      0.12793621992196
  N   1.37976842114813      1.23096076342634     -0.34236952088918
  O   2.59709862821222      1.18351393957942     -0.18694144258575
  O   0.71425504092563      2.22596264074138     -0.60097865293142
  N   1.44793461420993     -1.10873617375827     -0.54232550936003
  H   2.44255240213401     -0.94255010112543     -0.50861734124158
  H   1.08250132127202     -2.03357781665401     -0.37400756987281
  N   -1.40965684759844     -1.26639815107501      0.33365818080353
  O   -2.53855440497737     -1.14509906747414      0.79795700712467
  O   -0.86474628787627     -2.33583990888368      0.03950931405516
  N   -1.41860874808612      1.15068764206729      0.41548788523498
  O   -1.19818735369709      1.70114488512198      1.48983951708944
  O   -2.24626044570828      1.47007267805106     -0.43031884023606
