14
Coordinates from ORCA-job run
  C   0.66743945627062      0.20440635789958     -0.08707412221444
  C   -0.62316994226807     -0.11153171295330      0.20325778347598
  N   1.08559015416335      0.25638207191272     -1.51678733500917
  O   0.22305221772003      0.48646980092956     -2.35523247126590
  O   2.28328512438708      0.08375420137751     -1.72616267716739
  N   1.66342270437680      0.54841688044335      0.74160473809044
  H   1.50521838184918      0.42639294033973      1.73018727783044
  H   2.59767988111238      0.48592194428677      0.36584766966198
  N   -1.64267887357103     -0.42613401362712     -0.79505921231962
  O   -1.57681366673186     -1.53356391999048     -1.31948495990506
  O   -2.50342538348843      0.42969882280614     -0.96535972373602
  N   -1.10362316317187     -0.24637373306786      1.55508346299672
  O   -2.24116220462505     -0.68115200939717      1.70287894542270
  O   -0.33381468602312      0.07631236904057      2.46630062413933
