14
Coordinates from ORCA-job run
  C   0.68440559939970     -0.09154564188560     -0.12860474046881
  C   -0.62992700352654     -0.03074962800584      0.21503513655767
  N   1.38100865603486      1.17022485464576     -0.50746938276335
  O   2.36099762399967      1.03691633529803     -1.23560471705435
  O   0.94343740376991      2.22112001473701     -0.05587276459361
  N   1.51395770422582     -1.14468741193598     -0.12918049203151
  H   1.10295330408471     -2.05665043535541     -0.00017316904818
  H   2.36317544575357     -1.04214063316198     -0.66425830378118
  N   -1.40395626159542     -1.20371600741213      0.53309371438234
  O   -2.61345472799864     -1.05439383404519      0.67301846606175
  O   -0.79663201506806     -2.27584176098564      0.62741135889378
  N   -1.42612721838803      1.19440560540214      0.22060352081926
  O   -1.75883384828153      1.64036944099975     -0.87320572938040
  O   -1.72100466241000      1.63368910170509      1.32620710240657
