14
Coordinates from ORCA-job run
  C   0.67850998774227     -0.06101796068005     -0.17180182006204
  C   -0.65388188949967     -0.07820486966495      0.09945147724380
  N   1.33680019935207      1.25141780684864     -0.42603935360918
  O   0.64237915602598      2.16418527015154     -0.85551635253777
  O   2.54259673706350      1.29341402480403     -0.19653119514123
  N   1.53019405639474     -1.08702357566456     -0.31119721725376
  H   2.51157071251002     -0.86288201611901     -0.24250995164453
  H   1.19977957731419     -2.00132356537264     -0.04258627360202
  N   -1.36444585806862     -1.28933493560039      0.42222309479852
  O   -0.75199531022767     -2.35580122890202      0.30081981434268
  O   -2.52334064925935     -1.17210496312503      0.80689194166815
  N   -1.49537026953233      1.11368044000078      0.18078625977493
  O   -2.28364194295419      1.27343195897234     -0.74411128733294
  O   -1.36615450686092      1.81256361435131      1.18112086335540
