14
Coordinates from ORCA-job run
  C   0.64040020435430     -0.06448201722431     -0.09483610156058
  C   -0.70552159813726     -0.02022005657849      0.10332048678076
  N   1.36389641327760      1.13340256766004     -0.59752675855315
  O   0.97336760706442      1.60665574308723     -1.65452595062214
  O   2.33914319425066      1.47395085735136      0.06416572976084
  N   1.45390612068351     -1.12598950389221     -0.01131360222674
  H   2.44486390728459     -0.95657235421993     -0.08114521828811
  H   1.13950554113569     -1.91017741404743      0.54027992165280
  N   -1.42558124000879     -1.27003958366056      0.29295787011116
  O   -2.49880010641028     -1.41811304935811     -0.27608313006487
  O   -0.86165994778328     -2.11865301857022      0.99385928536409
  N   -1.44264789130441      1.23529760550555      0.19736241954013
  O   -0.75641409179302      2.23672826654564      0.38636357684365
  O   -2.66445811261376      1.19821195740144      0.13712147126215
