14
Coordinates from ORCA-job run
  C   0.69755225099575     -0.06857467515753     -0.04773990891975
  C   -0.63983162746417      0.01010748989414      0.18521404926421
  N   1.16397245825637     -0.33941344949247     -1.43680072053460
  O   0.40282772794679     -0.93640566579458     -2.18783306046629
  O   2.29805135268332      0.05081736681015     -1.70122104247990
  N   1.71639799116497      0.00499728777094      0.82061275269805
  H   1.50169930520403      0.30278102979945      1.76004533040040
  H   2.62552886048683      0.19214839430806      0.42506272678477
  N   -1.18446930951999      0.33463956269909      1.47914700010431
  O   -2.39234638852837      0.53901650148542      1.54220210427451
  O   -0.39454218909319      0.39717369667489      2.42745486298046
  N   -1.66702087900171     -0.13193964348168     -0.84416886332674
  O   -1.81023886725304      0.81275983855370     -1.61411385417090
  O   -2.31758068587757     -1.17010773406960     -0.80786137660852
