14
Coordinates from ORCA-job run
  C   0.69544562415284      0.00560714303301     -0.09785949312056
  C   -0.62245124302201     -0.04746320088184      0.23303790680275
  N   1.08938528059557     -0.29103571528838     -1.50392835111192
  O   0.35097125904319     -1.01210712162436     -2.16317090718983
  O   2.14918167302672      0.20697846538013     -1.87430418332849
  N   1.75873927758376      0.23820616502918      0.68483542324057
  H   1.58044977697974      0.56322168087988      1.62279068738855
  H   2.61084154707604      0.49937439126051      0.21182080589612
  N   -1.69749977880842     -0.35915364066992     -0.70632601049045
  O   -2.22269763195140     -1.45814500179426     -0.56941593742655
  O   -2.00060907469464      0.51863474809631     -1.50844038585458
  N   -1.10654359116809      0.28654388826825      1.54834771742697
  O   -2.32214545359759      0.36135809591736      1.69460070771708
  O   -0.26306766521572      0.48698010239411      2.42901202005032
