14
Coordinates from ORCA-job run
  C   0.64778880023364     -0.09785344102129     -0.25407442211462
  C   -0.63531124881730     -0.04775629145540      0.19410130978944
  N   1.28792285277875      1.16225503436406     -0.72712916980884
  O   0.55631166694073      2.05570337606606     -1.13488758450991
  O   2.51507657141080      1.18330715773673     -0.68256376128222
  N   1.45448923459094     -1.15849788396109     -0.40026215497589
  H   1.14902415206644     -2.03056432295120      0.00396439139870
  H   2.43913176282145     -0.95934158108210     -0.49394433225188
  N   -1.31585586093084     -1.19940486381145      0.72933301460290
  O   -0.74065689597278     -2.28977237152239      0.64289911281938
  O   -2.41277562669714     -1.01076700270716      1.24513923907337
  N   -1.43878312022883      1.17061374134350      0.26701961332159
  O   -2.33611530177934      1.26807860851150     -0.56216168984802
  O   -1.17024698641655      1.95399984049027      1.17256643378603
