14
Coordinates from ORCA-job run
  C   0.69275417875504     -0.02271702068692     -0.11686130636763
  C   -0.61806712080863     -0.02635567029927      0.24580089889565
  N   1.03891075363094     -0.27840731918015     -1.54387039104563
  O   0.24136265588073     -0.91732814554575     -2.21880594429605
  O   2.12138180099386      0.16696546093400     -1.91566738250890
  N   1.78396576113870      0.12672121484335      0.64722086377021
  H   1.64392895349467      0.42105440586749      1.60160855956528
  H   2.63791707324548      0.36002263564821      0.16321390016602
  N   -1.73131886130198     -0.24760282735976     -0.67464557718001
  O   -2.02352153449721      0.68317615902853     -1.41894766886676
  O   -2.29656650238603     -1.33074155878314     -0.57718683320602
  N   -1.05294387513404      0.27282670668146      1.58657240709107
  O   -2.26030808488332      0.38972639214779      1.76947683551806
  O   -0.17949519812820      0.40265956670416      2.45109163846471
