14
Coordinates from ORCA-job run
  C   0.67832862048306     -0.05190573169851     -0.17705094208152
  C   -0.65317645201299     -0.08519793010392      0.09883546812003
  N   1.32316525872605      1.26936047404228     -0.42262464136057
  O   2.53372953184079      1.31503316020782     -0.22070231200202
  O   0.61362424412136      2.18605193914424     -0.81758013055951
  N   1.53834904476327     -1.06861205845983     -0.33113788268591
  H   1.21891944196991     -1.98862398433284     -0.06904209661677
  H   2.51831049106116     -0.83539364800874     -0.27443116877555
  N   -1.34851267793967     -1.30676511847215      0.41671734905617
  O   -2.50692781584865     -1.20500734916797      0.80729814911952
  O   -0.72487348423383     -2.36551961802937      0.28562438987907
  N   -1.50733056731947      1.09593182701720      0.20343001447418
  O   -1.38692754349148      1.77484369148882      1.21838051137293
  O   -2.29667809211950      1.26580434637297     -0.71871670794004
