14
Coordinates from ORCA-job run
  C   0.70052259606423     -0.05108177068603      0.00412451976931
  C   -0.65728526867209     -0.09327954952467     -0.05660398709890
  N   1.38269273924024      1.25867121705991     -0.19793243883228
  O   2.49668925807061      1.36026269563492      0.30883224536628
  O   0.79973969796212      2.10914308106994     -0.85859425724478
  N   1.57461575062948     -1.05426540096472      0.16792978253601
  H   2.50698821613037     -0.79096454999435      0.44953709744244
  H   1.20119925281615     -1.95438684358098      0.42793630882348
  N   -1.40810543677059     -1.29802311206527      0.18944215244009
  O   -0.76953808740351     -2.34832007359218      0.31760248007268
  O   -2.62757694595296     -1.19069200573338      0.26803035385929
  N   -1.50994268943725      1.07106382013594     -0.28620354324365
  O   -1.64018919293545      1.85195521465704      0.65142940291141
  O   -2.04880988974133      1.12891727758382     -1.38553011680135
