11

C	-0.465349	0.005906	-1.442036
C	0.0	0.0	0.0
Br	-0.41644	1.830793	-2.142454
H	1.087814	0.0	0.0
H	0.218777	-0.573555	-2.056878
H	-1.489223	-0.340882	-1.583542
H	-0.400577	0.817365	0.596779
N	-0.439868	-1.240827	0.640524
O	-0.625015	-1.239492	1.858732
O	-0.549867	-2.250346	-0.06693
F	2.550208	0.0	0.0
