11

C	-0.452121	-0.152686	-1.439894
C	0.0	0.0	0.0
Br	-0.504518	1.600068	-2.307292
H	1.088107	0.0	0.0
H	0.27224	-0.742616	-1.994873
H	-1.450293	-0.572647	-1.554232
H	-0.405397	0.874995	0.504456
N	-0.434506	-1.16781	0.768763
O	-0.539783	-2.246721	0.171045
O	-0.615756	-1.039103	1.982474
F	2.550377	0.0	0.0
