12
Coordinates from ORCA-job run
  C   0.02560905329169      0.05499780509287      0.40933658290297
  C   -1.26759234877793     -0.43820517833225     -0.21289435000241
  F   0.13782916844839     -0.52499702615309      1.67380319712094
  H   -2.11105158850392     -0.18378265476061      0.43002502245634
  H   -1.42014615294769      0.01249549118650     -1.19505725426279
  H   -1.21772558337235     -1.52348806105895     -0.31920786609187
  C   -0.02673024370265      1.51809335387447      0.60348071281124
  N   -0.07133247412514      2.68454037214263      0.72563268320199
  C   1.26061393262184     -0.32548833265580     -0.38586398634738
  H   2.15809083686052      0.00610672136392      0.13789964514331
  H   1.29294052767595     -1.41164697213023     -0.49132781035355
  H   1.23749487253130      0.13137448143054     -1.37682657657879
