16
Coordinates from ORCA-job run
  C   0.53735240735665     -0.33543064390641     -0.38032565735690
  C   -0.98128247335504     -0.43741655667690     -0.28273787166869
  Br  1.02408148742981     -1.37589612126147     -2.09039084072915
  H   -1.24639782836896     -1.49592249059062     -0.18593506537386
  H   -1.41211649578301     -0.09775880663779     -1.22763424439975
  N   1.15420491242456     -0.90520912493531      0.75634464699561
  H   2.16389656072730     -0.85580832459042      0.70679816974875
  H   0.87574272200968     -1.86876652202853      0.89466601760894
  C   1.04918736230643      1.07287840782719     -0.61521533915258
  H   2.12493575177324      1.06569479189859     -0.80229527426933
  H   0.85548858924187      1.67739718844865      0.27386266266758
  H   0.55777424615054      1.52391989922975     -1.47766455947458
  C   -1.55910792270562      0.35828471262837      0.88716163471442
  H   -2.63239654659810      0.17030189219095      0.96902407094818
  H   -1.42562306802340      1.43286118726112      0.74838721424710
  H   -1.08573970458596      0.07287051114282      1.82695443549426
