16
Coordinates from ORCA-job run
  C   0.52662064307717     -0.02096524093083     -0.41455951737370
  C   -0.76199394185824      0.46928681098818      0.25698941082269
  Br  0.09263995863991     -0.45549104245172     -2.29997566027720
  H   -1.13700572708322      1.33460185520665     -0.29807299968417
  H   -0.46252729107100      0.83468671781473      1.24931095063955
  N   1.11472485515468     -1.21651161253128      0.14971010998245
  H   1.41841406385879     -1.02124141518804      1.09871189214160
  H   0.44526059457624     -1.97585288232439      0.17368079721337
  C   1.57911100802976      1.07357053505062     -0.43420510164555
  H   2.46886245350575      0.72546913415049     -0.95847908615339
  H   1.85395316687917      1.32574067239619      0.59666681766478
  H   1.20043297153504      1.97390071423955     -0.91957575801664
  C   -1.86745260895292     -0.56670870854080      0.41495548864287
  H   -1.55173046342566     -1.40149116332774      1.04493583916688
  H   -2.18045988221935     -0.96182669058957     -0.55254176341947
  H   -2.73984980064612     -0.11516768396202      0.89244858029595
