16
Coordinates from ORCA-job run
  C   0.58902211536105     -0.31980971848686     -0.50025049737780
  C   -0.93754426312454     -0.41321324579447     -0.39348424702981
  Br  1.05126642005572     -1.17714471973432     -2.23784988575587
  H   -1.21303498923925     -1.47226567527501     -0.43926683411069
  H   -1.38544827223187      0.06291724362923     -1.27074727884402
  N   1.32138881745869     -1.03586777320158      0.51376551802858
  H   0.92192528952303     -1.95219184865307      0.67908013864926
  H   1.32818236392458     -0.51133563452323      1.38021113798761
  C   1.09655589670750      1.11010301572064     -0.55754894582394
  H   2.17175223311408      1.11295138515181     -0.73641928130087
  H   0.90254944236797      1.61324775301667      0.39519658523494
  H   0.60004603851238      1.66808992755661     -1.35233462820879
  C   -1.49495328336691      0.21200554488020      0.88410013668135
  H   -2.57132102873372      0.03664792120089      0.94582257659276
  H   -1.33827623097619      1.29199353490322      0.91319278419324
  H   -1.04211054935252     -0.22612771039073      1.77653272108404
