16
Coordinates from ORCA-job run
  C   0.51118336798679     -0.40626531756598     -0.30476112527600
  C   -0.74067035069240     -0.50150431221305      0.56225174359414
  Br  0.06894271610848     -1.02271303696917     -2.13698533400141
  H   -1.06594746021182     -1.54455338110648      0.54513177524589
  H   -0.41742580669367     -0.28864333990412      1.59153319516916
  N   1.47739108912544     -1.35831229409444      0.20497091045127
  H   2.33930695112663     -1.30570999760187     -0.32688126242686
  H   1.68570714754609     -1.12883726072637      1.17194092614409
  C   1.04041622625643      1.01621068343027     -0.43834742056877
  H   1.96335568207409      1.02191932111807     -1.02205716005000
  H   1.26041953357027      1.40462184219442      0.56294472365172
  H   0.32706850854000      1.68235733499805     -0.92449637638628
  C   -1.88645846905434      0.43219596885928      0.19435744082013
  H   -2.19274221262089      0.28856021649161     -0.84299443842857
  H   -2.75106766184162      0.22829914282425      0.83003264651932
  H   -1.61847926121948      1.48137443026554      0.33335975554215
