15
Coordinates from ORCA-job run
  C   -0.65825291998613     -0.20308634596165     -0.34765386171359
  C   0.76486421999028     -0.44679966890560      0.17512230206337
  H   -0.71849436235306     -0.72680610565571     -1.31762350205812
  H   0.87622717806083     -1.53410893159056      0.28064291225559
  N   -0.86056278687142      1.23122838870726     -0.43853829811022
  H   -0.05738939617919      1.65132156391434     -0.89437249090875
  H   -1.69105614316585      1.43975107421025     -0.97916535221357
  N   -1.59085992585378     -0.86230133091169      0.54230337213879
  H   -2.48795834469122     -0.97894555713412      0.08761887131117
  H   -1.73271066240841     -0.25918353041964      1.34697699026319
  C   0.90359431381116      0.13392200609449      1.51588976454692
  N   1.03438853863511      0.56530572172556      2.59932874579226
  N   1.73834412446133      0.17387130924815     -0.72893090969291
  H   1.83208225036211     -0.40829712635868     -1.55393663093645
  H   2.64878391618823      0.22412853303760     -0.28766191273767
