15
Coordinates from ORCA-job run
  C   -0.73358310499920      0.08206377749500      0.23595025491629
  C   0.72022514049709     -0.34486826033764      0.49907278044937
  H   -1.27437437747516      0.07723064219985      1.19245078435660
  H   0.69877378431475     -1.36374062598748      0.92037181781446
  N   -1.27559035360710     -0.90385396258619     -0.71858962265238
  H   -1.55989746496948     -1.74582063569752     -0.22724435800755
  H   -2.10260841037898     -0.51867513016421     -1.15867947127000
  N   -0.72434467620098      1.42776579986555     -0.26072265181561
  H   -0.15204391840142      1.48165128302253     -1.09348472379255
  H   -1.65689978341161      1.77200060079873     -0.44543040357262
  C   1.33344461266067      0.52271265763190      1.51035067627570
  N   1.84508161909005      1.16795429499389      2.34614746367551
  N   1.45102647217685     -0.24913487589565     -0.76018663964013
  H   2.41997112240991     -0.51180182383900     -0.63166526072730
  H   1.01081933829462     -0.89348374149974     -1.40734064600978
