15
Coordinates from ORCA-job run
  C   -0.49677128770363      0.21494275197951     -0.43144344484928
  C   0.70183211248911     -0.03080771228805      0.50637453841927
  H   -0.11922251050358      0.62129938637330     -1.37657241816103
  H   0.31722599100112     -0.02656587412042      1.53437157025289
  N   -1.28447381691658      1.27740240777395      0.17894862222498
  H   -1.92656561794828      1.68067854171048     -0.49195982919908
  H   -1.82713779741599      0.90713288480335      0.95159923750678
  N   -1.13152709881178     -1.05590517300179     -0.73568589472497
  H   -2.02915524387416     -0.90023645828774     -1.17790781381759
  H   -1.25917550498628     -1.61514722209681      0.09898452421994
  C   1.62229557974114      1.11762297477440      0.38853519185193
  N   2.41738586788489      1.97505189083802      0.27933501749364
  N   1.32683839225165     -1.32406257661343      0.26932144345188
  H   2.22773891043701     -1.37051978929043      0.72958198911006
  H   1.45971202435537     -1.46988603255435     -0.72348273377941
