15
Coordinates from ORCA-job run
  C   -0.56423066984716      0.05002949043652     -0.35045565651397
  C   0.71378339699843     -0.18689239429407      0.47437349928020
  H   -0.25444298738360      0.24958970243398     -1.38998896532913
  H   0.39167394983080     -0.41507602072133      1.49644866038175
  N   -1.27943690030989      1.17112173766635      0.26338240121971
  H   -0.75961994596943      2.03786442468661      0.16529871933711
  H   -2.16440246849943      1.29433338428096     -0.21506874096175
  N   -1.35469488685171     -1.15429669609091     -0.37236697295371
  H   -1.77332952212593     -1.29044031128453      0.54130933011952
  H   -2.09856066232761     -1.07562050988204     -1.05458031815523
  C   1.47512754860130      1.08148480238841      0.52359870071076
  N   2.10862236533240      2.07164223438173      0.51616472006079
  N   1.49126149037358     -1.30317096329836     -0.03530520489386
  H   2.37448941732296     -1.36438934867691      0.45679478865968
  H   1.69275987485529     -1.16517953202642     -1.01860496096188
