16

C	0.0	0.0	0.0
C	-0.34694	-0.116208	-1.522954
Br	1.956565	0.0	0.0
H	0.552886	-0.532651	-1.984664
C	-0.444752	1.19482	0.69405
N	-0.543231	2.226662	1.252193
N	-0.333402	-1.255053	0.805405
O	-0.301858	-2.305834	0.182265
O	-0.472701	-1.113227	2.009473
C	-0.581609	1.273821	-2.115275
H	-0.669869	1.186077	-3.200985
H	-1.504316	1.685324	-1.708092
H	0.257249	1.934884	-1.884133
C	-1.384907	-1.054442	-1.962575
N	-1.956505	-1.820574	-2.650628
Cl	-2.916581	0.0	0.0
