14

C	0.0	0.0	0.0
C	-0.564012	0.024121	-1.387381
Cl	1.830804	0.0	0.0
H	-1.82726	0.118414	-0.901893
H	-0.455179	-0.932273	-1.877066
C	-0.386971	1.179028	0.795631
N	-0.64465	2.100794	1.461629
N	-0.407386	-1.240746	0.590091
H	-0.443444	-1.200857	1.606149
H	0.21423	-1.98394	0.265069
N	-0.075727	1.045823	-2.242579
O	0.018063	0.811632	-3.461235
O	0.192742	2.157348	-1.751272
H	-2.655518	0.0	0.0
