14

C	0.0	0.0	0.0
C	-0.336616	-0.090577	-1.496528
Cl	1.847818	0.0	0.0
H	-0.044717	0.832989	-1.990743
H	-1.426752	-0.246009	-1.511658
C	-0.803476	1.140878	0.525424
N	-0.704976	2.227633	1.020345
N	-0.357559	-1.195291	0.719272
H	0.150308	-1.984696	0.353477
H	-0.132483	-1.057709	1.699015
N	0.315713	-1.180469	-2.239205
O	0.869731	-0.889782	-3.302689
O	0.233256	-2.33086	-1.800803
H	-2.293779	0.0	0.0
