14

C	0.0	0.0	0.0
C	-0.543006	0.01369	-1.419278
Cl	1.793638	0.0	0.0
H	-0.336268	-0.93595	-1.910593
H	-1.654427	0.131995	-1.228324
C	-0.37662	1.210534	0.76112
N	-0.552713	2.155493	1.4359
N	-0.526609	-1.133268	0.712512
H	-1.560688	-0.947508	0.671087
H	-0.34169	-1.964012	0.1548
N	-0.044859	1.070963	-2.307288
O	0.11852	0.77653	-3.496361
O	0.127129	2.19567	-1.835605
H	-2.873674	0.0	0.0
