14

C	0.0	0.0	0.0
C	-0.562453	-0.04074	-1.410015
Cl	1.79134	0.0	0.0
H	-0.343157	-1.00017	-1.876353
H	-1.675841	0.065075	-1.193362
C	-0.375759	1.23224	0.727918
N	-0.536412	2.193991	1.382423
N	-0.515611	-1.111998	0.757792
H	-0.325239	-1.960948	0.229379
H	-1.549526	-0.937868	0.718303
N	-0.108215	1.00315	-2.331056
O	0.116313	0.669973	-3.501132
O	-0.035775	2.157965	-1.9078
H	-2.873331	0.0	0.0
