12
Coordinates from ORCA-job run
  C   0.58644976815487      0.32901186485961     -0.16138751839406
  C   -0.55337777982442     -0.29284855836704      0.21606865762346
  C   1.68168632629303     -0.30628788992316     -0.79518727221096
  N   2.59351112742414     -0.81720058059465     -1.34211501842157
  N   0.74720741153783      1.79577817593548      0.07867702153286
  O   1.50586560360236      2.36990792615098     -0.69336073315379
  O   0.10534666740099      2.27845986221800      1.00170067318050
  C   -1.70390340047844      0.29160305995962      0.79805170218924
  N   -2.70630207847302      0.66510766037884      1.29449520209244
  N   -0.70894996415232     -1.75638594598959     -0.06364377530726
  O   0.25572928982080     -2.47104460476879      0.17240480129822
  O   -1.80226297130583     -2.08410096985930     -0.50670374042908
