12
Coordinates from ORCA-job run
  C   -0.62427391317938     -0.25468342070501      0.06985850778825
  C   0.58658768117815      0.31586046242648     -0.12562289687186
  C   -1.55545381745444      0.09609596750884      1.07887736667074
  N   -2.36253283248366      0.33918775923703      1.90352726388977
  N   -1.03301053414215     -1.40730728971455     -0.77796493315040
  O   -0.74334085415026     -1.35112042654358     -1.96591041426466
  O   -1.62127026777736     -2.30325308312813     -0.18537639611887
  C   1.54074401500278     -0.07978509374741     -1.09605111119241
  N   2.36910103105800     -0.36948136861221     -1.88368533332034
  N   1.03440105080157      1.41095490479436      0.77687030166562
  O   0.18613748954580      2.22072925092044      1.12758695223206
  O   2.22091095160096      1.38180233756374      1.07889069267211
