12
Coordinates from ORCA-job run
  C   0.62610556826917      0.24268787213072     -0.09361484715090
  C   -0.59036995667605     -0.28917060662057      0.16531604620396
  C   1.60865342620869     -0.30911156110218     -0.95291958359901
  N   2.45640920476596     -0.71708851434823     -1.66381505242124
  N   0.98543312659162      1.56127090550118      0.49470130938132
  O   0.63536615712251      1.76575967255440      1.64973449673864
  O   1.59956119465039      2.31232417656380     -0.25269500720360
  C   -1.59509029115345      0.29627545956038      0.97539954759663
  N   -2.46836655545045      0.74412932298478      1.62906897657273
  N   -0.98570314976477     -1.56484064899063     -0.49104852613495
  O   -0.11801250167926     -2.42051738955044     -0.60578487048853
  O   -2.15398622288435     -1.62071868868320     -0.85434248949504
