12
Coordinates from ORCA-job run
  C   0.56465147534197      0.36793491137585     -0.22873421861278
  C   -0.58333700137876     -0.34326619284838     -0.22058699359668
  C   1.18543258937130      0.83082844322420     -1.41553283604796
  N   1.69767678888527      1.21963783174318     -2.40403596647418
  N   1.26309725642154      0.70579245113916      1.03333738510833
  O   0.58509296349301      1.21911674890779      1.91278136628211
  O   2.45894600016392      0.44605805875941      1.04679042728540
  C   -1.30001244790453     -0.67818500127016     -1.39636914721405
  N   -1.88970273001540     -0.96292301965484     -2.37711019322554
  N   -1.17913667778783     -0.81833150337457      1.04978241399862
  O   -0.43557744248001     -1.42360335888283      1.80967099979672
  O   -2.36813077411048     -0.56405936911881      1.18900676270000
