12
Coordinates from ORCA-job run
  C   0.54134339413630      0.27777798594010      0.30067339990178
  C   -0.56466028059092     -0.26142585346473     -0.25930742672132
  C   1.26904321670913     -0.24682496719405      1.39642612003186
  N   1.90294980495484     -0.62655082832807      2.31558017667877
  N   1.11531381927340      1.51739421889283     -0.28627149313143
  O   0.32715065601072      2.41163065973647     -0.56684532054616
  O   2.33338470859895      1.51039702165753     -0.41977647081892
  C   -1.25591274380062      0.26606522240008     -1.37820459116071
  N   -1.86304494714458      0.66314151562190     -2.30783047666697
  N   -1.13126867862325     -1.52970984812010      0.27831935305163
  O   -1.64366722375461     -2.26363420887941     -0.55686832604525
  O   -1.03063172576935     -1.71926091826257      1.48310505542672
