12
Coordinates from ORCA-job run
  C   -0.62144415277091     -0.26518529619016      0.05075466390004
  C   0.58450214043341      0.32800394671060     -0.10344946534628
  C   -1.56328510749721      0.01974263817558      1.07061513307447
  N   -2.38266485965488      0.21129520295903      1.89671917291116
  N   -1.01180066847055     -1.37332890382777     -0.86252728598177
  O   -1.59795844001097     -2.30490380641987     -0.32537658910299
  O   -0.71134502730912     -1.25029074831090     -2.04268312203859
  C   1.54987871835302     -0.00092177304141     -1.08755088153396
  N   2.38610061938770     -0.23199049502037     -1.88617728438685
  N   1.01408670962644      1.37422578907470      0.86347285959875
  O   2.19787656000621      1.33683884434393      1.17547034876036
  O   0.15605350790687      2.15651460154663      1.25073245014567
