12
Coordinates from ORCA-job run
  C   -0.44010641050251     -0.50460500600158      0.24035917402009
  C   0.67897921238072      0.21376689833150      0.00522783236462
  C   -0.45908600508989     -1.67928558356509      1.03279258968356
  N   -0.47041810759223     -2.66291250864959      1.68320693319379
  N   -1.74653347321143     -0.09134042095025     -0.32304904287288
  O   -2.66484605447920     -0.04461243176951      0.48455952789018
  O   -1.77550481081337      0.14007604174619     -1.52390801513892
  C   1.95471185567914     -0.14711429586337      0.50598692943047
  N   3.01236423148685     -0.44409741115608      0.93476125258841
  N   0.63865412174161      1.44495138017001     -0.81730649284912
  O   1.47875519269782      1.49998934051344     -1.70552531069761
  O   -0.20696975229752      2.27618399719431     -0.51610537761259
