12
Coordinates from ORCA-job run
  C   0.59734488770914      0.25952938738864     -0.17380575961232
  C   -0.57753719166788     -0.32909913849973      0.15107858176821
  C   1.47442189815579     -0.06878853629971     -1.23638284522968
  N   2.28613223399898     -0.26058324197604     -2.07051477978562
  N   1.03819725459497      1.43619833260880      0.62642393321815
  O   1.06772460468378      1.30177116560662      1.84238682367124
  O   1.32817369229961      2.42363973232271     -0.03660425111352
  C   -1.40114283269951      0.09108934933376      1.22769113537116
  N   -2.10488382263245      0.44477675120426      2.10490118221066
  N   -1.10435002519033     -1.48442077381157     -0.62828516075903
  O   -2.15256031503481     -1.96368124719902     -0.21165391172762
  O   -0.45152038421728     -1.84843178067872     -1.59623494801164
