12
Coordinates from ORCA-job run
  C   0.60249212839593      0.28564397022444     -0.11622354121756
  C   -0.60217459414583     -0.28166541576521      0.12162039001130
  C   1.56943883220531     -0.18352551828915     -1.04021704814582
  N   2.38993212635623     -0.50795201006422     -1.82249325136777
  N   1.01384761917071      1.49088575296087      0.65371153457255
  O   0.14273562983479      2.30839060786118      0.91914221594219
  O   2.20315962854176      1.53428857686779      0.94376445237265
  C   -1.57516083368153      0.17953643624587      1.04298196350322
  N   -2.40783701824696      0.48854350938053      1.81870404775781
  N   -1.00797038684785     -1.48594550457478     -0.65272186632861
  O   -0.14687018293523     -2.32922829899064     -0.86546516219429
  O   -2.18159294864733     -1.49897210585665     -1.00280373490565
