12
Coordinates from ORCA-job run
  C   0.58549666688763      0.31272041307700     -0.13583028442544
  C   -0.58565139532692     -0.30409033114204      0.14288809299766
  C   1.56769602773739     -0.15629918316431     -1.04381371281238
  N   2.39591564413354     -0.48346011173462     -1.81678685693279
  N   0.93978661880972      1.57708672300825      0.56418736833860
  O   0.02456574714021      2.34671021208001      0.82436520608801
  O   2.13115252703151      1.70914187267968      0.81707133500428
  C   -1.57774493094849      0.14941177844796      1.04757462087901
  N   -2.42443038272355      0.44769406341673      1.81238056074774
  N   -0.92994212809340     -1.56712161863245     -0.56496621371587
  O   -0.03141784753080     -2.38402515977802     -0.71783193344264
  O   -2.09642654711685     -1.64876865825820     -0.92923818272618
