12
Coordinates from ORCA-job run
  C   0.60228392126097      0.27893252193645     -0.12268461268557
  C   -0.60296335154882     -0.28723656728267      0.11523506325521
  C   1.56976228464297     -0.16936153107622     -1.05618337834738
  N   2.40049023082517     -0.46403272876032     -1.83966713458526
  N   1.01572243805689      1.47054628993633      0.66722395370507
  O   0.16460109637088      2.32525272953739      0.87490811689750
  O   2.18393026059216      1.46139856360144      1.03498930222699
  C   -1.55971569079962      0.17578416922526      1.05297797268645
  N   -2.37039206613349      0.49764677780070      1.84649935242684
  N   -1.02643951578349     -1.48013710057633     -0.66692217083733
  O   -2.22258452072812     -1.52700997846819     -0.92728232924777
  O   -0.15569508675549     -2.28178314587383     -0.97809413549474
