12
Coordinates from ORCA-job run
  C   0.52813052973853      0.38412910665839     -0.19011134195574
  C   -0.47383244132202     -0.40476915313584      0.25938481542035
  C   1.23156302638566      0.18229293251508     -1.40431491772737
  N   1.82989019627017      0.03955846176634     -2.41029862949032
  N   0.92414473988295      1.59794550033244      0.57137388202303
  O   0.73981368293025      1.57762412541903      1.78240235329411
  O   1.39507512613371      2.50703152436376     -0.10229197980163
  C   -1.23663532552721     -0.22546841974827      1.43983922643394
  N   -1.92237394257275     -0.16787790045804      2.39884836905405
  N   -0.89923799664852     -1.55692171482360     -0.58105856406240
  O   -0.01275470014092     -2.29952759253549     -0.98335087142126
  O   -2.10478289512984     -1.63401687035382     -0.78042234176677
