12
Coordinates from ORCA-job run
  C   0.65606422864316      0.27134100647721      0.08466265696732
  C   -0.40588872137286     -0.56076665135566      0.14992555956351
  C   1.89664300585027      0.00257230823122      0.71528692547428
  N   2.93112388109995     -0.23998706920657      1.22704518219629
  N   0.57057012796350      1.55603138317532     -0.64919230896422
  O   1.10597646973458      2.50617500899098     -0.09306069884849
  O   -0.01425550167751      1.53692308234288     -1.72397153268610
  C   -0.38753473593630     -1.78888985042891      0.85538515582223
  N   -0.37179326448547     -2.80640796316682      1.45172381157635
  N   -1.68589228271670     -0.22885783101880     -0.51682302541208
  O   -2.26181950661093      0.77382317065467     -0.11840256060642
  O   -2.03319370049170     -1.02195659469553     -1.38157916508265
