12
Coordinates from ORCA-job run
  C   0.58625748218289      0.30834850290659     -0.13757539013725
  C   -0.58596761959549     -0.30598367667809      0.14172309330229
  C   1.56196053342918     -0.14767522713922     -1.05904721824083
  N   2.38838042121993     -0.46084230385893     -1.83972723671580
  N   0.94968082373564      1.56077523490164      0.57890182408832
  O   2.13668566834823      1.66473954383161      0.86274147322896
  O   0.04498707578918      2.34929240405225      0.81906049908903
  C   -1.56564945215250      0.14587615507384      1.06049455170196
  N   -2.39882851937927      0.44810604045161      1.83829819032003
  N   -0.94598177288185     -1.55754206327988     -0.57919707535815
  O   -0.04608735529862     -2.36013983710897     -0.78816789119173
  O   -2.12543728539732     -1.64495477315246     -0.89750482008683
