12
Coordinates from ORCA-job run
  C   0.54645355015735      0.31838517345125     -0.22849865164990
  C   -0.53929827200290     -0.38188607258146      0.17157968362416
  C   1.40699548275223      0.04156851024233     -1.32051968950164
  N   2.22551984244143     -0.07754446590328     -2.16175680754931
  N   0.92125336378217      1.52171472812153      0.55980802537041
  O   1.18243228007696      1.34311882170215      1.74135404131361
  O   0.90308661331297      2.56953059882211     -0.07052241159038
  C   -1.31368539426798     -0.03389199293759      1.30984530509441
  N   -1.93813815589245      0.29923580904118      2.25337192665749
  N   -1.01215153643275     -1.57596994905586     -0.57582195250039
  O   -1.88346168348977     -2.23196244874909     -0.01441905195385
  O   -0.49900609043726     -1.79429871215328     -1.66442041731461
