12
Coordinates from ORCA-job run
  C   -0.62191243577325     -0.29399749918074     -0.15897909132071
  C   0.59286799226851      0.28146787761472     -0.28940618199418
  C   -1.42361998917117     -0.68233157909398     -1.26069044286076
  N   -2.09741692954191     -1.01514700870743     -2.16971939221779
  N   -1.21242974121802     -0.55757898746410      1.17427574353117
  O   -0.57343599072079     -1.28846519814579      1.91762764734903
  O   -2.29807065756218     -0.02878433879819      1.36764004569979
  C   1.20417180888881      0.53384118427687     -1.54324074174753
  N   1.70143943777573      0.74919512738233     -2.59043622467914
  N   1.38116998139309      0.67163809698868      0.90175208291008
  O   0.76867082199898      1.21620438781704      1.81077916329217
  O   2.57656570166220      0.41395793731057      0.84039739203788
