12
Coordinates from ORCA-job run
  C   0.67733567252871      0.20703734090050      0.07070022960053
  C   -0.44924658610872     -0.53455917611793      0.13835614948611
  C   1.92413819732557     -0.22250052196589      0.58957115158563
  N   2.96451015764987     -0.58933850502802      1.00642456452024
  N   0.67324937584856      1.54873126246024     -0.55721927169477
  O   1.17623988014058      2.43618550285666      0.11884474923443
  O   0.19081216095019      1.62583649507550     -1.67874877937836
  C   -0.49717774803997     -1.82901193467065      0.71289496443605
  N   -0.53689432455463     -2.89985939365719      1.20522499553519
  N   -1.73071780960626     -0.02850587720280     -0.40677443843655
  O   -2.32083526930366     -0.80647901790764     -1.14452084871801
  O   -2.07041370683022      1.09246382525723     -0.05375346617049
