12
Coordinates from ORCA-job run
  C   -0.58248990097287     -0.29647028260877      0.16407016055597
  C   0.58341696430585      0.31221371502152     -0.15185427154501
  C   -1.46397441066489      0.06068410192571      1.21426132397421
  N   -2.26309327090874      0.32002390537775      2.04191199978659
  N   -1.01231515406092     -1.48697613543462     -0.61832044138988
  O   -1.44223033150986     -2.41431223125131      0.05623495807287
  O   -0.89364718775408     -1.42762208572378     -1.83518790509977
  C   1.44587500036493     -0.07126603473028     -1.20952860204977
  N   2.20953438691257     -0.38065448368102     -2.05294913917346
  N   1.03203453664118      1.50342637579742      0.61854023221050
  O   1.65821614073955      2.33189797777851     -0.03146199901741
  O   0.72967322690729      1.54905517752887      1.80328368367515
