12
Coordinates from ORCA-job run
  C   0.56366255423738      0.29906289488134     -0.21224919587114
  C   -0.55138323983486     -0.35990497199738      0.17912704877230
  C   1.39721169696137      0.02491291538283     -1.32363046174753
  N   2.17959265465831     -0.10889391611710     -2.19702693235141
  N   0.98269016140881      1.49548096627940      0.56986143015176
  O   1.11382075731055      1.34753108180202      1.77775870951691
  O   1.15665817308227      2.50740238523431     -0.09636351061630
  C   -1.33133598272328      0.00428767628503      1.30758772328627
  N   -2.00310002006926      0.30974857123343      2.22702106848476
  N   -1.04594712420805     -1.54948547795431     -0.56886490380845
  O   -1.99282169758747     -2.13435469596613     -0.05628875302714
  O   -0.46804793323577     -1.83478742906345     -1.60793222279003
