12
Coordinates from ORCA-job run
  C   -0.64668626776078     -0.20550355661257      0.02464301664097
  C   0.62095579699301      0.25030197147928     -0.09829347393363
  C   -1.64387120489167      0.34971231626639      0.86515123416165
  N   -2.50613810040220      0.77243112538128      1.54937663194973
  N   -1.06091169066352     -1.43253018169210     -0.70822261036129
  O   -1.83074092904169     -2.16518890869914     -0.09921876708252
  O   -0.59581003825741     -1.59223765691094     -1.82892316324392
  C   1.64406768885417     -0.32741107847446     -0.89022826873307
  N   2.53947084375573     -0.75715114071640     -1.52609292954363
  N   1.05128034083125      1.42422625054724      0.70856015340251
  O   0.26176510687073      2.35542218845463      0.79600181724218
  O   2.16561845371237      1.32792867097679      1.20724635950101
