12
Coordinates from ORCA-job run
  C   -0.58831452390614     -0.29615802148773      0.15111418095984
  C   0.58903924917321      0.29851118004355     -0.14861583042046
  C   -1.46055817634271      0.06722868322898      1.20733205247132
  N   -2.24333560876633      0.34680526483713      2.04380092904701
  N   -1.04154698808971     -1.46582947138906     -0.64929598658999
  O   -1.56468848075013     -2.36154117210189      0.00206419346427
  O   -0.84549547892412     -1.42588427655395     -1.85671917717482
  C   1.45789633417676     -0.07039058785080     -1.20576243020899
  N   2.23608924661801     -0.36033553091743     -2.04287155640141
  N   1.04468917611657      1.46972907525371      0.64864595583411
  O   1.60489220593299      2.34518266977938      0.00057931988578
  O   0.81133304476162      1.45268218715812      1.84972834913332
