12
Coordinates from ORCA-job run
  C   0.64705855474893      0.14445637783175      0.17180512486400
  C   -0.65643776617628     -0.07501490131256     -0.10807571137619
  C   1.68704982183749     -0.66089748579476     -0.36132103782054
  N   2.52723666424923     -1.34801034329208     -0.82117031157149
  N   1.07738918914734      1.25800714230366      1.05432101272086
  O   0.19621232834401      1.88060395837493      1.63074786219394
  O   2.28728799266699      1.44566399376797      1.11149324384211
  C   -1.79231884038819      0.64064072238898      0.33859267235208
  N   -2.80741441988070      1.16459921513602      0.63371155895070
  N   -0.97354667402232     -1.21465327291513     -1.00538765029076
  O   -1.23154202689953     -2.26858989681413     -0.44017179225379
  O   -0.96197482362697     -0.96780550967465     -2.20354497161093
