12
Coordinates from ORCA-job run
  C   0.63780905089013      0.22167204487406     -0.05248899996357
  C   -0.60656355930405     -0.28183886722715      0.11592976520847
  C   1.64106708991170     -0.29697970515985     -0.90843765530078
  N   2.51676885547951     -0.67433113289936     -1.60224763352338
  N   1.01076050127061      1.47999231095098      0.64767834834080
  O   1.63732194740209      2.28331209560848     -0.03225857543193
  O   0.65702965786631      1.59081795371110      1.81423003184376
  C   -1.61928037674364      0.28404946818148      0.93020126200485
  N   -2.49362985948288      0.71946627175396      1.59066435525757
  N   -1.02171503434998     -1.48892626984542     -0.64875549750475
  O   -2.18982789974757     -1.49315875336453     -1.01736069358785
  O   -0.16874037319222     -2.34607541658374     -0.83715470734319
