12
Coordinates from ORCA-job run
  C   -0.63601832924493     -0.23271252016521      0.04506451971478
  C   0.60599990285507      0.27753232698829     -0.11917476239757
  C   -1.62178407611978      0.27146330336017      0.93001252278899
  N   -2.47178036554469      0.65106549820983      1.65373570087858
  N   -1.02764965675704     -1.46690484699318     -0.68829124440024
  O   -0.58900800811629     -1.60022966814237     -1.82296691329336
  O   -1.75423450142878     -2.23168048976012     -0.06577103718648
  C   1.62294974725293     -0.24829777561285     -0.95422485510170
  N   2.51175585034420     -0.63555710011272     -1.62557706743572
  N   1.01633164512765      1.45868161388393      0.68695244723444
  O   2.14788513270952      1.39896943270118      1.15173472035410
  O   0.19555265892215      2.35867022564305      0.80850596884417
