12
Coordinates from ORCA-job run
  C   0.59629922724628      0.28275965305619     -0.13979113657487
  C   -0.62522629077249     -0.26260393767704      0.06587801790396
  C   1.59074858070535     -0.17018103953445     -1.04246625209436
  N   2.47987076008650     -0.47579628415399     -1.75488556651271
  N   1.01123227974745      1.44773999058621      0.69013133533312
  O   2.15102799893910      1.38502279578240      1.13332598229848
  O   0.18733183384652      2.33946706867925      0.84518486171138
  C   -1.56894945240230      0.19894336040007      1.01721984801756
  N   -2.36531078351150      0.54978121150614      1.81216781515902
  N   -1.04676885301825     -1.47155945695752     -0.69641299843775
  O   -0.50975705142484     -1.66254241928404     -1.77890800118172
  O   -1.90049824944182     -2.16103094240321     -0.15044390562210
