12
Coordinates from ORCA-job run
  C   0.58725504209363      0.30629863495127     -0.14697815096478
  C   -0.54030959110004     -0.34990367041682      0.21097268556712
  C   1.47361505983818     -0.07996434133411     -1.18317909334887
  N   2.24035411935052     -0.35526968571855     -2.03575033488823
  N   0.93421745533149      1.58708028186102      0.52553377759838
  O   1.42236388034255      2.44082584971812     -0.20465489282392
  O   0.69854413431587      1.66548177651777      1.72414103456930
  C   -1.46210005055540      0.05987456478924      1.20639166665812
  N   -2.26588196567856      0.34891707544231      2.01922506365352
  N   -0.93043976647612     -1.58158713176060     -0.52662823010594
  O   -0.03322001285064     -2.36335522770260     -0.81272656107872
  O   -2.12539830461149     -1.67839812634702     -0.77634696483597
