12
Coordinates from ORCA-job run
  C   0.58077261336196      0.32231934605661     -0.17986165196937
  C   -0.65912990781924     -0.21997707833305     -0.19504555836004
  C   1.13403055943088      0.97634124637995     -1.30980705025382
  N   1.61057834418057      1.52316322121446     -2.24026003764962
  N   1.48067200907971      0.29332295800751      0.99817053084179
  O   1.40339355046723      1.26134337713800      1.73772967663027
  O   2.23891007395300     -0.66190118149701      1.05186434068145
  C   -1.48493068784961     -0.17147004650838     -1.34909525571924
  N   -2.14396226520710     -0.11372152657933     -2.32480232235954
  N   -1.24155173538335     -0.90320859860270      0.98542404667264
  O   -0.54630533655677     -0.95659190488582      1.99139529689645
  O   -2.37247721765728     -1.34961981239025      0.83328798458902
