12
Coordinates from ORCA-job run
  C   0.57924003720891      0.30860641616108     -0.16236257739674
  C   -0.60721871695874     -0.29265536045658      0.08892457959175
  C   1.56913557232762     -0.11326705066105     -1.08371623909681
  N   2.44796314607819     -0.38914545433143     -1.81973893046935
  N   0.95356014012207      1.51293358145045      0.63086734373807
  O   0.08783793644544      2.36298949031148      0.79178166414581
  O   2.10668815691992      1.52095561547792      1.04190431411943
  C   -1.54461440383498      0.13945651532075      1.06145366598459
  N   -2.34235530409156      0.46504565099164      1.86671598588062
  N   -0.98791195248084     -1.53658673945720     -0.63419595414437
  O   -1.77010085801477     -2.26943269699897     -0.03940329531337
  O   -0.49322375372125     -1.70989996780809     -1.74023055703965
