12
Coordinates from ORCA-job run
  C   0.56028677808235      0.32633003647680     -0.23241543609325
  C   -0.60122528157927     -0.36434701889863     -0.15923941207902
  C   1.17705549588226      0.63849425664287     -1.47038739966064
  N   1.70355414333376      0.90532159213188     -2.49197333564410
  N   1.30175807794648      0.82162852700639      0.95187899973540
  O   2.15102609808117      0.06199519319992      1.39078963899823
  O   1.02162566974541      1.95560259488129      1.30659783751487
  C   -1.27615284722394     -0.82129896538311     -1.32205283698926
  N   -1.80939732894320     -1.18468743147712     -2.30850718097253
  N   -1.24883959273667     -0.69621148941010      1.13302422857631
  O   -0.68330525432429     -0.31433035627627      2.14903056860250
  O   -2.29538595826405     -1.32849693889391      1.05225432801150
