12
Coordinates from ORCA-job run
  C   -0.43859777189815     -0.56419760703254      0.09813664319934
  C   0.64207026971728      0.24681350084934      0.02024714964195
  C   -0.32859908492194     -1.92269521258045      0.49670826909416
  N   -0.19937354327891     -3.04580367645142      0.83076161455967
  N   -1.80807835452860     -0.09645851578981     -0.22566196268351
  O   -2.69349707582621     -0.93629096117791     -0.11489708489517
  O   -1.92568517687079      1.07226972545806     -0.56956152389008
  C   1.94963603184094     -0.20470769226249      0.33154346724916
  N   3.04396225791982     -0.56415671043981      0.58662854392910
  N   0.57861512759253      1.66978858284305     -0.39053515911538
  O   0.44489032653759      2.47044880379318      0.52119874709219
  O   0.73465699371644      1.87598976279078     -1.58356870418144
