12
Coordinates from ORCA-job run
  C   0.58019508924515      0.27553295609225     -0.19589730297116
  C   -0.57061949761455     -0.33951112111583      0.16261138929571
  C   1.42022777377891     -0.01384192089667     -1.29885414016144
  N   2.20648729143914     -0.16263128909165     -2.16565790212113
  N   1.03588834952529      1.43982774827253      0.61390690333122
  O   1.25244200737759      2.45704632003508     -0.03150363446408
  O   1.15160900521108      1.26414991517438      1.81927789815815
  C   -1.35295394864719      0.04204804933072      1.28343926332810
  N   -2.01986081949653      0.36744965987210      2.19954543433149
  N   -1.10264089417718     -1.49426790088216     -0.61363383512297
  O   -2.11233071362403     -2.01468812186967     -0.15401574721993
  O   -0.48744364301770     -1.82011429492107     -1.61921832638397
