12
Coordinates from ORCA-job run
  C   -0.54378126350326     -0.38385236206598     -0.24122838712268
  C   0.63523692044577      0.27267499382320     -0.18371221350235
  C   -1.00077934906038     -1.06358135076775     -1.39734426744996
  N   -1.37996744220471     -1.63652092513798     -2.35592016918880
  N   -1.45809404422919     -0.42811963871266      0.92384914439045
  O   -2.59217026566953     -0.02646896565436      0.70262753053175
  O   -0.99599532489206     -0.87981906294554      1.96216678278691
  C   1.55030796684695      0.32425234826820     -1.26464175677978
  N   2.30264629953376      0.37231511090244     -2.17139677849055
  N   1.05483446222372      0.97903897290542      1.04927510635102
  O   0.20790281911356      1.66942712879230      1.60024866129152
  O   2.22085922139538      0.80165375059271      1.37707634718248
