12
Coordinates from ORCA-job run
  C   -0.59209419213959     -0.29438955273836      0.14193693557717
  C   0.59266336034205      0.29278243750195     -0.14298795594622
  C   -1.48024190224325      0.08816882248316      1.17807626639451
  N   -2.27436082720252      0.38725803340495      1.99684353442073
  N   -1.03764808955273     -1.47186474100589     -0.65106409053313
  O   -0.79396503975955     -1.46246334118833     -1.85036870222713
  O   -1.60438313592126     -2.34293374005161     -0.00268258358725
  C   1.48147763361916     -0.08700739933156     -1.17938798635626
  N   2.27736687268092     -0.38044668425683     -1.99848047065299
  N   1.03668720966192      1.47001534881627      0.65208169629403
  O   0.80522310876805      1.45175587210985      1.85366316130552
  O   1.58927500174679      2.34912494425639      0.00237019531103
