12
Coordinates from ORCA-job run
  C   -0.61697185650117     -0.27947132960237      0.07311898674997
  C   0.61353753854958      0.24679939692583     -0.12750458417479
  C   -1.57784016413919      0.26489004866177      0.96413305618335
  N   -2.37472402401675      0.68911746216467      1.72235343991758
  N   -1.06019770044530     -1.49795963526870     -0.65997307862755
  O   -2.25811243453206     -1.74630319419761     -0.58490627927392
  O   -0.20428907738026     -2.12709735457541     -1.26629782209794
  C   1.63558701267569     -0.23165278583031     -0.98296788346317
  N   2.54227500378737     -0.52342785033266     -1.67875389573391
  N   1.00157165047682      1.45108055477609      0.65847762301439
  O   2.07166420437703      1.35379956537474      1.24527612787472
  O   0.22949984714825      2.40022512190396      0.63904430963125
