12
Coordinates from ORCA-job run
  C   0.60373371060926      0.26103185324624     -0.14433595550659
  C   -0.59273977094272     -0.31467368135092      0.11671722268163
  C   1.53969287775247     -0.09567261024184     -1.14558013475463
  N   2.39546690653594     -0.32417505947209     -1.92430490457107
  N   1.01181758854880      1.44174871836218      0.66656768620806
  O   1.36476428795822      2.41264616041082      0.00962128702742
  O   0.95804712160573      1.32670369518206      1.88340837649654
  C   -1.47411585119072      0.11623546929786      1.14227140510454
  N   -2.22956243857868      0.47672962147857      1.97263756917422
  N   -1.07261845399151     -1.48277607390922     -0.67355911539114
  O   -2.04194361859489     -2.06847856757416     -0.20448024298384
  O   -0.46354235971186     -1.75031952542950     -1.69996319348511
