12
Coordinates from ORCA-job run
  C   -0.54386630003261     -0.36410497710398      0.18310417055157
  C   0.58301221844886      0.30075314538036     -0.16340320485748
  C   -1.37354594056314     -0.03895241582908      1.28617989732005
  N   -2.10187208148652      0.20276103686456      2.18102496087895
  N   -1.03172183652079     -1.49836665095276     -0.64916230819735
  O   -0.19765873124021     -2.10189876689175     -1.31029340781583
  O   -2.23699781100499     -1.71499300438827     -0.58410336562492
  C   1.40668368860710      0.04749282316443     -1.28833283126046
  N   2.14579905042925     -0.09086713058402     -2.19711588505197
  N   1.01178881611038      1.46930305412245      0.65599446947123
  O   1.40712096161526      2.43436044330041      0.01326969083294
  O   0.93225796563740      1.35251244291764      1.87183781375327
