15
Coordinates from ORCA-job run
  C   -0.88600747396189      0.24854902084204     -0.41384197735240
  C   0.63789193389803      0.05380996400041     -0.49430091856592
  H   -1.28442395866831      0.27719814380360     -1.43267031409177
  H   0.83874363077695     -0.90950817186743     -0.98026867438176
  H   -1.08770030447655      1.22991970183883      0.02899017667388
  C   -1.58747307831145     -0.84666221124805      0.38334503470843
  H   -1.32077150837911     -0.81803712207555      1.44119606238758
  H   -1.33569542163014     -1.83796104621560     -0.00431821513458
  H   -2.67134982919257     -0.73035708373324      0.31663424672238
  C   1.32439829623549      0.06989206700485      0.87557323677878
  H   0.98896386109282     -0.77214153485671      1.48200818882830
  H   1.09187954291236      0.99650802533078      1.40588436211113
  H   2.40819508820836      0.00016069116034      0.76864685982460
  C   1.21588185418030      1.09334456011248     -1.35265324784635
  N   1.66746736731572      1.94328499590325     -2.02522482066232
