15
Coordinates from ORCA-job run
  C   -0.65205414951279     -0.36527323286170      0.49503725657668
  C   0.60517853564578      0.00573482283330     -0.30468867848629
  H   -0.50183809049702     -1.37547494927500      0.89133632106802
  H   0.68274770799248     -0.67545200419116     -1.16157485753595
  H   -0.72612755235885      0.30629845067558      1.35722334610211
  C   -1.93221396254024     -0.30841837564896     -0.33063228022195
  H   -1.87201474003447     -0.97801251884450     -1.19294932808957
  H   -2.79410306642108     -0.61145983049457      0.26780822467421
  H   -2.11913518905014      0.70229004804797     -0.69992666326968
  C   1.88042635272705     -0.10568086364331      0.53651282590280
  H   1.99110030438281     -1.12839824289443      0.90427720831860
  H   2.76586272158988      0.14917145130550     -0.04863916303971
  H   1.83091950540324      0.56737334312749      1.39520994825076
  C   0.47471663362618      1.36106035001837     -0.84941182525867
  N   0.36853498904716      2.45624155184544     -1.25958233499135
