15
Coordinates from ORCA-job run
  C   -0.60781291167190     -0.75600700419918     -0.51326553205111
  C   0.76008422663499     -0.04993655761436     -0.52435978308627
  H   -0.44478027789816     -1.78200893289953     -0.16488951627691
  H   1.42112670672543     -0.60587195663480     -1.19985313963795
  H   -0.96842925906874     -0.82680327587358     -1.54437586546353
  C   -1.65705062788003     -0.06649815658819      0.35263807755708
  H   -1.80268189760823      0.97130470382746      0.04327735842730
  H   -2.61761524456035     -0.57830175496481      0.26239606175645
  H   -1.38125226839456     -0.07329693709224      1.40880260513528
  C   1.42006190849953      0.01210854602371      0.85767520510289
  H   2.42972308063965      0.42059865931907      0.78626108248334
  H   0.85002755450428      0.64183922577869      1.54153512180369
  H   1.48361381844590     -0.99358855686413      1.28063382753784
  C   0.62371010058956      1.30114081258126     -1.07956266013764
  N   0.49227509104264      2.38732118520063     -1.50591284315048
