15
Coordinates from ORCA-job run
  C   -0.61918251560619     -0.75161103026926     -0.50567540633397
  C   0.74381374639365     -0.03745532939817     -0.54750525840995
  H   -1.00959455931244     -0.81137838160188     -1.52662134364351
  H   1.38638355107374     -0.57712177828192     -1.25334361445076
  H   -0.44036031085475     -1.78111320078503     -0.17570268015110
  C   -1.64656370601507     -0.07963679773574      0.39936836320799
  H   -1.80781548914122      0.96090819351720      0.10726697035711
  H   -2.60624422752980     -0.59655253468592      0.33113587319298
  H   -1.33964124506604     -0.09719338342338      1.44680237661527
  C   1.44673896862083      0.00420083503961      0.81404176592509
  H   0.89353213414890      0.61620844009368      1.52719908489792
  H   1.53159223911698     -1.00860039789981      1.21576789855919
  H   2.45039918616345      0.42252903892162      0.71873483364279
  C   0.58340100198288      1.32242273963050     -1.07402265473335
  N   0.43354122602509      2.41539358687851     -1.47644620867569
