13

C	-0.285234	-0.072054	-1.505784
C	0.0	0.0	0.0
F	-0.072717	1.211084	-1.994339
H	1.095484	0.0	0.0
H	-0.402486	0.91231	0.443374
N	0.602535	-0.959178	-2.196487
H	1.527985	-0.837389	-1.765911
H	0.308327	-1.919046	-2.058612
C	-1.695917	-0.411067	-1.824826
N	-2.816648	-0.668565	-2.065092
C	-0.480915	-1.183745	0.683306
N	-0.842971	-2.159381	1.229298
H	2.748832	0.0	0.0
