13

C	-0.262979	0.106321	-1.4967
C	0.0	0.0	0.0
F	-1.575486	0.502655	-1.791603
H	1.090902	0.0	0.0
H	-0.388363	-0.925246	0.427339
N	0.647005	1.062021	-2.021032
H	1.565488	0.92103	-1.573588
H	0.733515	0.985129	-3.025538
C	-0.14718	-1.244351	-2.119758
N	-0.035433	-2.288052	-2.64829
C	-0.516517	1.150994	0.71456
N	-0.926201	2.060149	1.335246
H	2.721994	0.0	0.0
