20

C	0.0	0.0	0.0
C	-0.284851	0.044601	-1.547094
Cl	1.785534	0.0	0.0
H	0.477289	-0.624487	-1.958803
C	-0.280798	1.230584	0.872761
H	0.211818	1.077451	1.833531
H	-1.348283	1.358658	1.028622
H	0.140529	2.119317	0.39998
N	-0.595953	-1.199091	0.607757
O	-0.626401	-1.23871	1.86617
O	-0.542914	-2.244996	-0.099535
C	-0.028825	1.447067	-2.100751
H	-0.80541	2.135577	-1.754122
H	0.946333	1.846141	-1.816669
H	-0.075154	1.418086	-3.194088
C	-1.602487	-0.469727	-2.138075
H	-1.40219	-0.698925	-3.199641
H	-2.399655	0.271164	-2.092162
H	-1.926051	-1.382316	-1.645285
H	-2.115871	0.0	0.0
