20

C	0.0	0.0	0.0
C	-0.280817	0.078912	-1.547185
Cl	1.78574	0.0	0.0
H	0.460683	-0.607342	-1.968122
C	-0.280599	1.216008	0.893962
H	-1.349381	1.346683	1.0419
H	0.20195	1.040984	1.856127
H	0.150591	2.110636	0.441243
N	-0.610917	-1.207453	0.57709
O	-0.641914	-1.277878	1.835026
O	-0.565692	-2.236867	-0.1558
C	0.014348	1.48095	-2.082884
H	-0.742594	2.18805	-1.729265
H	1.000277	1.849411	-1.794684
H	-0.032832	1.465614	-3.176856
C	-1.614883	-0.385422	-2.144944
H	-2.393105	0.37392	-2.069708
H	-1.424654	-0.585345	-3.213565
H	-1.957225	-1.305038	-1.67903
H	-2.116588	0.0	0.0
