13

C	0.0	0.0	0.0
C	-0.441772	-0.117972	-1.471414
F	1.38562	0.0	0.0
H	0.481481	-0.021638	-2.061324
H	-0.362126	-0.842065	0.581966
H	-0.353679	0.919522	0.455134
C	-1.295207	0.99616	-1.896054
N	-1.792845	1.926309	-2.414321
C	-1.102888	-1.462341	-1.777721
H	-1.337789	-1.557516	-2.842599
H	-2.005921	-1.453523	-1.165108
H	-0.424398	-2.27526	-1.496978
F	-2.513982	0.0	0.0
