13

C	0.0	0.0	0.0
C	-0.294952	0.036926	-1.516906
F	1.385444	0.0	0.0
H	0.312618	0.869734	-1.891941
H	-0.382522	0.866605	0.522622
H	-0.384341	-0.904796	0.453215
C	-1.653649	0.311452	-2.030725
N	-2.535581	0.760096	-2.672903
C	0.21649	-1.233999	-2.202155
H	-0.011983	-1.192809	-3.267981
H	-0.275137	-2.113176	-1.782497
H	1.294076	-1.33536	-2.077465
F	-2.44205	0.0	0.0
