14

C	-0.555518	-0.061004	-1.412474
C	0.0	0.0	0.0
F	-1.902065	-0.537048	-1.308191
H	1.091419	0.0	0.0
H	-0.305714	-0.95798	0.443694
C	-0.710853	1.268588	-2.044897
N	-0.870655	2.288982	-2.601433
N	0.221537	-0.899052	-2.238161
H	-0.310855	-1.294377	-2.998438
H	0.738223	-1.594084	-1.719127
N	-0.525327	1.14606	0.729384
H	-1.226486	0.865012	1.398616
H	0.234467	1.591709	1.225155
Cl	3.461895	0.0	0.0
