14

C	-0.315941	-0.134064	-1.480253
C	0.0	0.0	0.0
F	-1.646465	-0.498961	-1.700505
H	1.103658	0.0	0.0
H	-0.397699	0.936693	0.395249
C	-0.173677	1.176743	-2.170211
N	-0.052876	2.208375	-2.718578
N	0.512111	-1.167139	-2.025102
H	1.471609	-1.03719	-1.703954
H	0.491178	-1.159356	-3.036708
N	-0.560609	-1.144201	0.735617
H	0.038388	-1.27868	1.543899
H	-0.416066	-1.965133	0.156366
Cl	3.445748	0.0	0.0
