14

C	-0.565239	-0.010794	-1.406673
C	0.0	0.0	0.0
F	0.0421	1.017231	-2.143375
H	1.091824	0.0	0.0
H	-0.315467	0.957812	0.447991
C	-0.286007	-1.27254	-2.122134
N	-0.095253	-2.234523	-2.764943
N	-1.985131	0.174219	-1.373213
H	-2.357966	0.178548	-2.31572
H	-2.173137	1.074612	-0.947131
N	-0.471162	-1.182638	0.704838
H	0.217194	-1.454948	1.392462
H	-1.358502	-1.021413	1.156607
Cl	3.491456	0.0	0.0
