14

C	-0.367194	-0.062356	-1.47486
C	0.0	0.0	0.0
F	-0.213123	-1.385586	-1.885168
H	1.097304	0.0	0.0
H	-0.328108	0.973417	0.379436
C	-1.786206	0.299144	-1.711603
N	-2.896733	0.640139	-1.872985
N	0.480285	0.741559	-2.31255
H	0.237284	1.719337	-2.217032
H	1.43891	0.618833	-1.986552
N	-0.656133	-1.059637	0.759335
H	-0.460044	-0.906729	1.741769
H	-0.202972	-1.930821	0.511055
Cl	3.481497	0.0	0.0
