14

C	-0.565024	-0.0214	-1.407664
C	0.0	0.0	0.0
F	0.042902	1.004701	-2.147169
H	1.091776	0.0	0.0
H	-0.313785	0.963996	0.436696
C	-0.281145	-1.291638	-2.108585
N	-0.115271	-2.293486	-2.694718
N	-1.983392	0.159772	-1.376833
H	-2.177001	1.061869	-0.953798
H	-2.357244	0.159264	-2.319894
N	-0.471333	-1.171235	0.721293
H	0.226319	-1.445146	1.399224
H	-1.349433	-0.997349	1.186618
Cl	3.48982	0.0	0.0
