14

C	-0.548438	0.002037	-1.418437
C	0.0	0.0	0.0
F	-1.870931	-0.534355	-1.364834
H	1.096428	0.0	0.0
H	-0.318994	-0.968047	0.402095
C	-0.753895	1.363974	-1.964028
N	-0.954408	2.430433	-2.408792
N	0.274227	-0.744238	-2.287829
H	-0.232052	-1.112405	-3.079058
H	0.822486	-1.445542	-1.811185
N	-0.566096	1.09543	0.785103
H	0.178625	1.741796	1.006169
H	-0.930256	0.746297	1.659213
Cl	3.469884	0.0	0.0
