14

C	-0.540753	0.002384	-1.417233
C	0.0	0.0	0.0
F	-0.136573	1.212198	-2.008402
H	1.098685	0.0	0.0
H	-0.334771	0.950682	0.433122
C	0.026534	-1.07349	-2.265516
N	0.409993	-1.943678	-2.952912
N	-1.956201	-0.141158	-1.437469
H	-2.37402	0.391297	-0.686265
H	-2.330147	0.141547	-2.334504
N	-0.579464	-1.105809	0.781547
H	0.015303	-1.210101	1.597342
H	-0.450292	-1.963595	0.252909
Cl	3.503511	0.0	0.0
