14

C	-0.341484	0.022032	-1.479394
C	0.0	0.0	0.0
F	-0.141678	-1.29564	-1.976251
H	1.102485	0.0	0.0
H	-0.347003	0.937548	0.440731
C	-1.769746	0.302428	-1.752742
N	-2.898155	0.543404	-1.964764
N	0.481614	0.966636	-2.12482
H	1.447709	0.840547	-1.825962
H	0.407838	0.899176	-3.131115
N	-0.644797	-1.128779	0.66258
H	-0.441814	-1.058255	1.652685
H	-0.181533	-1.969481	0.338457
Cl	3.486581	0.0	0.0
