18

C	-0.493415	-0.100538	-1.430749
C	0.0	0.0	0.0
Br	-2.458639	-0.261753	-1.483671
H	1.092846	0.0	0.0
N	-0.084761	1.111695	-2.272827
O	-0.932386	1.883799	-2.700404
O	1.121356	1.179435	-2.477788
C	0.150612	-1.318727	-2.064602
H	-0.255804	-2.209461	-1.591933
H	1.21918	-1.242501	-1.844496
H	-0.03504	-1.341092	-3.140818
N	-0.376513	-1.162508	0.739821
H	0.343792	-1.318451	1.435533
H	-1.264837	-1.028064	1.208675
N	-0.462457	1.272253	0.644804
O	-0.282146	2.319824	0.024507
O	-0.952233	1.212812	1.776239
F	2.523133	0.0	0.0
