18

C	-0.327353	0.076005	-1.499161
C	0.0	0.0	0.0
Br	-0.405812	-1.7385	-2.234185
H	1.095889	0.0	0.0
N	-1.732275	0.615546	-1.735289
O	-2.572747	0.359903	-0.874326
O	-1.949124	1.237409	-2.76887
C	0.723778	0.843728	-2.27426
H	0.635965	0.667039	-3.344871
H	1.685974	0.508357	-1.869646
H	0.613753	1.906959	-2.068001
N	-0.501359	-1.109979	0.720195
H	0.080219	-1.255159	1.532829
H	-1.461688	-0.969751	1.004625
N	-0.386245	1.316302	0.641727
O	-0.554667	1.30955	1.860239
O	-0.461842	2.330408	-0.05505
F	2.576806	0.0	0.0
