17

C	-0.50135	0.021437	-1.454547
C	0.0	0.0	0.0
Cl	0.199335	-1.384279	-2.338164
H	1.095566	0.0	0.0
C	-2.020449	-0.067355	-1.589142
H	-2.36851	-0.990333	-1.121683
H	-2.488094	0.786221	-1.093319
H	-2.308744	-0.069144	-2.641969
C	-0.02478	1.238345	-2.124155
N	0.308354	2.240269	-2.640773
C	-0.499138	-1.191237	0.662126
N	-0.913738	-2.141789	1.219335
C	-0.372546	1.257995	0.78613
H	0.113376	1.192994	1.762997
H	-1.44802	1.390849	0.933965
H	0.042733	2.134102	0.282758
H	2.668252	0.0	0.0
