17

C	-0.394488	-0.017353	-1.488211
C	0.0	0.0	0.0
Cl	0.140892	1.526363	-2.260425
H	1.096743	0.0	0.0
C	0.316383	-1.165457	-2.196673
H	-0.048985	-2.11885	-1.807925
H	0.140393	-1.122096	-3.273368
H	1.383445	-1.067487	-1.970463
C	-1.849434	-0.079711	-1.666011
N	-3.015857	-0.157859	-1.796085
C	-0.453199	-1.244829	0.602437
N	-0.807148	-2.246999	1.107844
C	-0.505596	1.197076	0.796759
H	-0.197804	1.078514	1.838346
H	-0.041723	2.10749	0.416201
H	-1.595413	1.2965	0.759267
H	2.7262	0.0	0.0
