17

C	-0.497424	0.042652	-1.449506
C	0.0	0.0	0.0
Cl	0.200697	-1.355014	-2.353088
H	1.095628	0.0	0.0
C	-2.016341	-0.035834	-1.592326
H	-2.298879	-0.027752	-2.647196
H	-2.481888	0.817911	-1.094155
H	-2.372195	-0.95978	-1.133642
C	-0.029122	1.269887	-2.103599
N	0.228423	2.283097	-2.640622
C	-0.500271	-1.194358	0.65567
N	-0.905174	-2.143414	1.221915
C	-0.374904	1.249446	0.800285
H	-1.450943	1.37153	0.956139
H	0.02808	2.134158	0.301784
H	0.118354	1.178979	1.772953
H	2.666055	0.0	0.0
