17

C	-0.335851	0.083587	-1.485445
C	0.0	0.0	0.0
Cl	-2.130189	0.350987	-1.778384
H	1.098071	0.0	0.0
C	0.447071	1.208862	-2.146276
H	1.498414	1.074909	-1.858284
H	0.328792	1.172652	-3.230749
H	0.090747	2.174624	-1.785626
C	-0.020586	-1.185763	-2.147092
N	0.243624	-2.201591	-2.676213
C	-0.532431	-1.203135	0.611143
N	-0.965276	-2.158349	1.144217
C	-0.380868	1.241456	0.803959
H	-0.124689	1.06444	1.850743
H	-1.443539	1.483385	0.733259
H	0.219465	2.089098	0.47025
H	2.671448	0.0	0.0
