17

C	-0.394487	-0.033109	-1.488602
C	0.0	0.0	0.0
Cl	0.138051	1.504607	-2.276335
H	1.096789	0.0	0.0
C	0.317942	-1.186728	-2.184487
H	0.140166	-1.154742	-3.260834
H	-0.044269	-2.137075	-1.784881
H	1.384336	-1.084145	-1.961013
C	-1.848803	-0.099463	-1.665576
N	-3.015449	-0.177556	-1.792809
C	-0.45281	-1.239159	0.613997
N	-0.806476	-2.236175	1.129681
C	-0.50712	1.203556	0.785412
H	-0.046379	2.111386	0.395481
H	-0.198041	1.096398	1.827667
H	-1.597118	1.299703	0.748215
H	2.726976	0.0	0.0
