17

C	-0.338138	0.059519	-1.486643
C	0.0	0.0	0.0
Cl	-2.129368	0.343002	-1.780934
H	1.098089	0.0	0.0
C	0.457291	1.162387	-2.170877
H	0.341623	1.102767	-3.254508
H	1.506679	1.024446	-1.876419
H	0.109764	2.139237	-1.833274
C	-0.037955	-1.224659	-2.125933
N	0.210253	-2.246586	-2.651261
C	-0.529515	-1.194812	0.629277
N	-0.954323	-2.145362	1.176885
C	-0.385226	1.248409	0.790187
H	-1.458542	1.450239	0.766728
H	0.164157	2.110593	0.408172
H	-0.069484	1.105682	1.826423
H	2.673713	0.0	0.0
