17

C	-0.404619	-0.017122	-1.483141
C	0.0	0.0	0.0
Cl	0.165749	1.511789	-2.263939
H	1.096789	0.0	0.0
C	0.271095	-1.1839	-2.193804
H	0.08907	-1.137832	-3.268882
H	1.340899	-1.111322	-1.976833
H	-0.114384	-2.127192	-1.800212
C	-1.861981	-0.041137	-1.652872
N	-3.030791	-0.085828	-1.77492
C	-0.454935	-1.240856	0.609594
N	-0.81112	-2.238832	1.121645
C	-0.49536	1.200133	0.799427
H	-0.14947	1.095817	1.830275
H	-0.055668	2.111453	0.392762
H	-1.58624	1.285992	0.797636
H	2.719827	0.0	0.0
