16

C	-0.438458	-0.075864	-1.436366
C	0.0	0.0	0.0
Br	-2.375735	0.103117	-1.731901
H	1.091841	0.0	0.0
C	0.230746	0.912967	-2.270547
N	0.744957	1.660149	-3.01968
N	-0.009489	-1.478015	-1.95662
O	1.078441	-1.521983	-2.516099
O	-0.764252	-2.40767	-1.719718
N	-0.430354	-1.175848	0.790121
O	-1.540253	-1.146888	1.318763
O	0.365647	-2.115292	0.824841
N	-0.364906	1.216477	0.656347
O	-0.219028	1.235726	1.890608
O	-0.585499	2.211642	-0.061726
H	2.312759	0.0	0.0
