16

C	-0.371638	0.009839	-1.458414
C	0.0	0.0	0.0
Br	-2.282321	0.153649	-1.892715
H	1.092482	0.0	0.0
C	0.322173	1.078949	-2.168096
N	0.872662	1.891551	-2.814964
N	0.082807	-1.318658	-2.127009
O	0.393862	-1.253446	-3.306156
O	0.042149	-2.322544	-1.434881
N	-0.459127	-1.178039	0.796389
O	0.389572	-1.816749	1.401971
O	-1.671194	-1.385642	0.815087
N	-0.418744	1.176996	0.694323
O	-0.391485	1.123717	1.937598
O	-0.609179	2.210965	0.024466
H	2.34033	0.0	0.0
