15

C	0.0	0.0	0.0
C	-0.512094	-0.148004	-1.438302
Cl	1.788036	0.0	0.0
H	-1.607579	-0.140587	-1.317737
N	-0.497978	1.227693	0.541
H	-1.523124	1.151779	0.498717
H	-0.228857	1.301833	1.516045
C	-0.357779	-1.213701	0.769205
N	-0.56588	-2.135169	1.46813
N	-0.099864	-1.414253	-2.011899
H	-0.76935	-1.7026	-2.712646
H	0.814711	-1.337992	-2.438522
C	-0.114737	1.022413	-2.238448
N	0.198963	1.876798	-2.981836
Cl	-3.501153	0.0	0.0
