15

C	0.0	0.0	0.0
C	-0.51	-0.099963	-1.443694
Cl	1.787872	0.0	0.0
H	-1.606118	-0.104931	-1.327639
N	-0.502748	1.204956	0.583435
H	-1.528274	1.132028	0.534761
H	-0.239133	1.243319	1.561952
C	-0.354996	-1.242621	0.723748
N	-0.5622	-2.187929	1.390494
N	-0.086845	-1.341738	-2.061715
H	-0.751739	-1.609817	-2.774745
H	0.828018	-1.242868	-2.483127
C	-0.119133	1.100766	-2.200985
N	0.191974	1.982945	-2.91236
Cl	-3.501757	0.0	0.0
