15

C	0.0	0.0	0.0
C	-0.516156	-0.181671	-1.43265
Cl	1.792006	0.0	0.0
H	-1.612182	-0.17376	-1.311394
N	-0.49303	1.239224	0.516712
H	-0.21862	1.335316	1.488583
H	-1.518499	1.170371	0.480656
C	-0.349239	-1.197041	0.800201
N	-0.534774	-2.092663	1.537741
N	-0.103248	-1.461449	-1.976139
H	0.807197	-1.392717	-2.412641
H	-0.776708	-1.772084	-2.663091
C	-0.117725	0.967731	-2.260981
N	0.224265	1.800135	-3.016618
Cl	-3.500885	0.0	0.0
