15

C	0.0	0.0	0.0
C	-0.40374	0.180582	-1.527195
Cl	1.863173	0.0	0.0
H	0.524062	0.237606	-2.099845
N	-0.460022	0.994411	0.898898
H	-0.401201	1.884932	0.412704
H	-1.457033	0.800367	1.043285
C	-0.337274	-1.337656	0.500468
N	-0.514196	-2.424613	0.909174
N	-1.091774	1.449131	-1.682615
H	-1.190717	1.641197	-2.673421
H	-2.031728	1.316055	-1.296291
C	-1.121191	-0.985014	-2.084759
N	-1.604401	-1.857761	-2.707312
Cl	-3.38569	0.0	0.0
