15

C	0.0	0.0	0.0
C	-0.402636	0.19101	-1.508122
Cl	1.815528	0.0	0.0
H	0.03971	1.160412	-1.777103
N	-0.57644	1.043659	0.763191
H	0.007146	1.863571	0.8233
H	-0.948381	0.762882	1.656664
C	-0.431167	-1.312842	0.483587
N	-0.715729	-2.382327	0.875536
N	-1.805121	0.217248	-1.781216
H	-2.296084	0.86837	-1.173358
H	-2.25627	-0.671927	-1.590737
C	0.245873	-0.833899	-2.3425
N	0.72896	-1.658391	-3.024444
Cl	-4.424552	0.0	0.0
