15

C	0.0	0.0	0.0
C	-0.351594	0.066605	-1.536983
Cl	1.789064	0.0	0.0
H	0.526798	-0.37743	-2.025386
N	-0.493548	1.128883	0.709087
H	-0.333716	0.9868	1.700496
H	-1.515023	1.114329	0.549657
C	-0.356071	-1.326671	0.543255
N	-0.524604	-2.385243	1.026267
N	-0.563456	1.452871	-1.916885
H	-0.513445	1.52821	-2.92554
H	0.157949	2.025408	-1.49406
C	-1.438375	-0.793034	-2.04031
N	-2.014993	-1.543001	-2.738989
Cl	-3.321503	0.0	0.0
