15

C	0.0	0.0	0.0
C	-0.317391	0.042435	-1.557011
Cl	1.786245	0.0	0.0
H	0.384924	0.800308	-1.919594
N	-0.558314	1.174846	0.598245
H	-0.313443	1.205066	1.582896
H	-1.578866	1.069706	0.542111
C	-0.398781	-1.270428	0.628805
N	-0.682663	-2.277333	1.166052
N	-1.620775	0.412207	-2.013225
H	-2.371006	-0.103714	-1.549826
H	-1.78425	1.385476	-1.787495
C	0.090966	-1.240427	-2.155857
N	0.412114	-2.255682	-2.650365
Cl	-3.909807	0.0	0.0
