14
Coordinates from ORCA-job run
  C   -0.32623409382987      0.29646708175442      0.59734388338999
  C   1.08105437900993     -0.26489983188526      0.36780425418652
  Br  -0.17129196990589      1.41759394097510      2.20735092995347
  H   1.39171545589509     -0.89357717115989      1.20063541095507
  H   1.77995207011716      0.55300431642508      0.19992470613210
  C   -1.27667173878301     -0.76974007123234      0.90113264445718
  N   -2.06435493289176     -1.61542906014113      1.11647108678749
  C   -0.82577780403956      1.15465679608443     -0.55923108316487
  H   -0.10488417529387      1.94471667775111     -0.77479388601434
  H   -1.78478888741831      1.60436518216584     -0.30154301542461
  H   -0.95354140487086      0.53997698973457     -1.45259907673847
  N   1.09256282581541     -1.11438024820514     -0.86136501317287
  O   1.37096064205975     -0.55477438644575     -1.92096896930565
  O   0.79329963413578     -2.29798021582104     -0.72016187204099
