18

C	0.002004	-0.003309	0.054683
C	-0.405447	-0.011109	-1.429502
F	1.409832	-0.161133	0.093903
H	-1.527368	-0.125121	-1.38519
C	-0.357299	1.332137	0.662617
H	-1.431983	1.483056	0.52441
H	-0.124107	1.284646	1.727851
H	0.187233	2.141606	0.180972
N	-0.59126	-1.042999	0.839279
H	-0.390024	-1.927597	0.385407
H	-1.606467	-0.905784	0.701546
N	0.138335	-1.255628	-2.103948
O	0.875124	-1.111814	-3.08668
O	-0.200497	-2.359236	-1.670631
N	-0.011222	1.16917	-2.125976
H	-0.457451	1.187427	-3.033848
H	0.990447	1.154788	-2.27689
H	-3.058686	-0.251581	-0.543742
