18

C	-0.028059	-0.001289	-0.029315
C	-0.344783	0.114002	-1.526039
F	1.373412	-0.147219	0.057663
H	-0.019906	-0.825743	-1.982106
C	-0.395264	1.216437	0.795507
H	0.062477	2.124906	0.406458
H	-1.481813	1.316193	0.808113
H	-0.046221	1.039496	1.817949
N	-0.617655	-1.231089	0.421414
H	-0.407159	-1.315136	1.41316
H	-1.651706	-1.108772	0.367247
N	0.63968	1.109173	-2.159715
O	1.493296	0.632055	-2.911755
O	0.523843	2.305441	-1.912892
N	-1.678214	0.522855	-1.774875
H	-2.337362	0.233493	-1.010377
H	-2.018292	0.09632	-2.627545
H	-3.266526	-0.437526	0.182801
