18

C	-0.009197	-0.009229	0.050365
C	-0.436126	-0.062576	-1.427266
F	1.397422	-0.179467	0.077826
H	-1.559058	-0.165301	-1.363843
C	-0.348162	1.349281	0.617596
H	-0.105516	1.334171	1.681662
H	-1.422302	1.508025	0.484209
H	0.200078	2.136525	0.104415
N	-0.602101	-1.016339	0.876888
H	-0.416515	-1.917102	0.448918
H	-1.617331	-0.872663	0.748881
N	0.087385	-1.332584	-2.068187
O	0.804633	-1.227483	-3.070163
O	-0.249096	-2.418655	-1.590732
N	-0.042837	1.091222	-2.167419
H	-0.503948	1.084487	-3.067994
H	0.955996	1.062594	-2.334396
H	-3.078759	-0.250114	-0.513858
