12

C	-0.678043	-0.066408	-1.490122
C	0.102113	-0.12746	-0.164828
Br	0.06574	1.260982	-2.717076
H	1.16567	-0.278262	-0.372179
H	-1.693428	0.278153	-1.288037
H	-0.265583	-1.033797	0.342923
C	-0.729177	-1.351602	-2.181402
N	-0.770646	-2.412466	-2.685565
N	-0.074212	1.090853	0.583399
H	-0.601381	0.891911	1.425872
H	0.904772	1.358736	0.907064
H	2.422182	1.33907	1.301749
