12

C	-0.248502	-0.077666	-1.35379
C	-0.270006	0.350965	0.10894
Br	-1.90718	-0.977503	-1.886786
H	0.67219	0.893377	0.237011
H	0.592243	-0.824437	-1.411971
H	-1.100175	1.03959	0.305338
C	-0.03677	1.045066	-2.248472
N	0.158258	1.966475	-2.953311
N	-0.370192	-0.843167	0.934691
H	0.442439	-1.411376	0.648399
H	-0.215658	-0.573839	1.901092
H	1.901759	-1.67069	-0.58127
