12

C	-0.495176	-0.021667	-1.4432
C	-0.123648	-0.247493	0.01908
Br	-0.285277	-1.670237	-2.512978
H	0.908737	-0.601174	0.028859
H	0.215526	0.693481	-1.861577
H	-0.788336	-1.001141	0.453481
C	-1.86291	0.453849	-1.610403
N	-2.978776	0.786277	-1.767636
N	-0.24683	1.056247	0.63983
H	-0.543928	0.946155	1.602991
H	0.747879	1.41409	0.636243
H	2.330092	1.35175	0.341749
