12

C	-0.605854	0.052809	-1.578554
C	0.105119	-0.104602	-0.238486
Br	-2.56001	-0.149669	-1.373571
H	1.183293	-0.12254	-0.428888
H	-0.329743	-0.744618	-2.274536
H	-0.163283	-1.101273	0.145456
C	-0.357596	1.340244	-2.216557
N	-0.140202	2.334537	-2.802534
N	-0.144876	1.002429	0.645756
H	0.772606	1.11599	1.156457
H	-0.849483	0.747634	1.327723
H	2.321436	0.784624	1.581217
