16

C	0.0	0.0	0.0
C	-0.419328	0.02235	-1.464017
F	1.418215	0.0	0.0
H	-1.513637	0.002117	-1.406934
H	-0.078191	0.961992	-1.928553
C	-0.460278	1.254676	0.707623
H	-1.553635	1.240551	0.642964
H	-0.036228	2.142218	0.228784
H	-0.129757	1.212146	1.748432
N	-0.508369	-1.147767	0.690605
H	-0.375798	-1.931974	0.055775
H	-1.528659	-0.942692	0.663527
N	0.097709	-1.172266	-2.144269
H	1.097282	-1.059974	-2.2698
H	-0.324662	-1.243769	-3.061676
F	-2.93725	0.0	0.0
