16

C	0.0	0.0	0.0
C	-0.42252	0.188911	-1.451563
F	1.401608	0.0	0.0
H	-0.150742	-0.740502	-1.987688
H	-1.513683	0.264187	-1.392863
C	-0.446524	1.163335	0.861071
H	-0.075968	1.004555	1.877526
H	-0.051045	2.096048	0.456915
H	-1.539389	1.151286	0.833426
N	-0.536247	-1.212096	0.552196
H	-0.382261	-1.956766	-0.124853
H	-1.558662	-0.993328	0.514098
N	0.177039	1.385342	-2.053683
H	1.174518	1.228346	-2.137294
H	-0.19419	1.504002	-2.989032
F	-2.938684	0.0	0.0
