16

C	0.0	0.0	0.0
C	-0.396052	0.048959	-1.508546
F	1.396125	0.0	0.0
H	0.527088	-0.10452	-2.08108
H	-0.761231	1.06526	-1.728031
C	-0.450956	1.251364	0.72476
H	-0.13385	1.19153	1.769309
H	-1.541195	1.272485	0.648478
H	-0.001723	2.134065	0.259754
N	-0.498019	-1.146407	0.70243
H	-1.508985	-0.941277	0.744626
H	-0.436476	-1.929365	0.056349
N	-1.365015	-0.992704	-1.84858
H	-1.61067	-0.876781	-2.826622
H	-2.195291	-0.739421	-1.2754
F	-2.987588	0.0	0.0
