11

C	-0.549507	-0.016946	-1.421362
C	0.0	0.0	0.0
F	-0.156981	1.138288	-2.070558
H	1.092682	0.0	0.0
H	-1.645063	-0.022501	-1.413158
H	-0.327698	0.934987	0.465066
C	-0.108703	-1.186563	-2.200376
N	0.158569	-2.126486	-2.849661
C	-0.537648	-1.125662	0.75396
N	-0.997125	-2.041147	1.327907
Cl	3.307096	0.0	0.0
