11

C	-0.445677	-0.069298	-1.449553
C	0.0	0.0	0.0
F	-1.818803	-0.292679	-1.537395
H	1.097914	0.0	0.0
H	0.057212	-0.910083	-1.934008
H	-0.33068	-0.917861	0.493938
C	-0.139353	1.159357	-2.196462
N	0.108269	2.138314	-2.794867
C	-0.564865	1.15321	0.688262
N	-1.015359	2.088779	1.237919
Cl	3.284884	0.0	0.0
