11

C	-0.450843	-0.120907	-1.442107
C	0.0	0.0	0.0
F	-1.804159	-0.4521	-1.516311
H	1.09526	0.0	0.0
H	0.113076	-0.929333	-1.914547
H	-0.312124	-0.912583	0.516934
C	-0.255496	1.114236	-2.218329
N	-0.159467	2.085513	-2.869672
C	-0.573426	1.15514	0.67634
N	-1.051095	2.082812	1.214021
Cl	3.285128	0.0	0.0
