14

C	-0.497834	0.018481	-1.419775
C	0.0	0.0	0.0
F	-0.127559	-1.080874	-2.104643
H	1.088991	0.0	0.0
H	-0.347112	0.878392	0.543212
N	-2.042481	0.100998	-1.47719
O	-2.615883	-0.636316	-2.257005
O	-2.539313	0.952261	-0.751094
C	-0.038811	1.229906	-2.114318
N	0.255292	2.222509	-2.667714
N	-0.518044	-1.194465	0.718665
O	0.00986	-1.452302	1.792065
O	-1.448445	-1.822961	0.209062
Cl	3.202267	0.0	0.0
