14

C	-0.52105	-0.025838	-1.413932
C	0.0	0.0	0.0
F	0.018002	1.043254	-2.071728
H	1.107448	0.0	0.0
H	-0.323834	0.929363	0.474019
N	-0.050334	-1.260731	-2.191903
O	0.688275	-2.048828	-1.625428
O	-0.445309	-1.300944	-3.352961
C	-1.982724	0.054316	-1.555963
N	-3.136819	0.229748	-1.691839
N	-0.541902	-1.107705	0.814998
O	-1.347654	-1.878479	0.282924
O	-0.161742	-1.168545	1.977392
Cl	3.203122	0.0	0.0
