17

C	0.0	0.0	0.0
C	-0.433706	0.254221	-1.461546
Cl	1.791902	0.0	0.0
H	0.460906	0.416594	-2.066517
H	-0.298303	-1.009365	0.271963
C	-0.53812	0.983211	1.01783
H	-0.209087	0.685756	2.015289
H	-1.632311	0.954872	0.988411
H	-0.186833	1.999392	0.829889
C	-1.403728	1.394278	-1.710711
H	-0.977174	2.320554	-1.314519
H	-1.545482	1.512733	-2.784692
H	-2.365816	1.192892	-1.238872
N	-0.97323	-1.025522	-2.090987
O	-0.821398	-2.096361	-1.510868
O	-1.45099	-0.904486	-3.21558
Br	-4.217535	0.0	0.0
