14

C	0.0	0.0	0.0
C	-0.553985	-0.122634	-1.408633
Br	1.963568	0.0	0.0
H	-0.14165	-1.019304	-1.885078
H	-0.262449	-0.90302	0.555524
H	-1.629192	-0.277628	-1.260052
C	-0.510847	1.228518	0.719278
H	-0.208719	2.125641	0.178962
H	-0.133711	1.272551	1.743089
H	-1.603399	1.160524	0.735433
N	-0.316237	1.083384	-2.203734
H	0.26233	0.878764	-3.004851
H	-1.20064	1.445626	-2.530885
Cl	-3.914652	0.0	0.0
