15

C	-0.496845	-0.185845	-1.40627
C	0.0	0.0	0.0
Br	-0.132725	-1.961704	-2.071286
H	1.092494	0.0	0.0
H	-0.037254	0.512925	-2.09784
N	-1.987081	0.046579	-1.528338
O	-2.412854	0.378076	-2.629907
O	-2.673416	-0.117609	-0.524115
N	-0.365862	-0.998228	0.941475
H	0.381218	-1.065134	1.627062
H	-1.234538	-0.772527	1.404968
N	-0.345044	1.376777	0.409965
O	-0.403495	1.621987	1.61968
O	-0.442072	2.235888	-0.479427
H	2.519962	0.0	0.0
