15

C	-0.432538	-0.191372	-1.418631
C	0.0	0.0	0.0
Br	-2.290662	-0.778884	-1.654372
H	1.107715	0.0	0.0
H	0.178011	-1.00054	-1.829686
N	-0.141069	0.993054	-2.323545
O	-0.807612	1.138922	-3.340874
O	0.838429	1.651523	-2.001858
N	-0.246169	-1.120293	0.852879
H	-0.987191	-1.72336	0.525771
H	0.628183	-1.624778	0.974736
N	-0.538615	1.235774	0.585795
O	-0.21165	1.488443	1.745374
O	-1.231938	1.981827	-0.12546
H	2.467967	0.0	0.0
