15

C	-0.565704	0.274382	-1.368673
C	0.0	0.0	0.0
Br	0.764386	0.620727	-2.762712
H	1.095517	0.0	0.0
H	-1.208063	1.149004	-1.372722
N	-1.443038	-0.880652	-1.776234
O	-2.560124	-0.845839	-1.26119
O	-1.022953	-1.761968	-2.508737
N	-0.264496	-1.306522	0.508471
H	0.562608	-1.590252	1.028826
H	-1.055603	-1.293096	1.139726
N	-0.343986	1.087469	0.890611
O	-0.372644	2.2399	0.417906
O	-0.423734	0.83742	2.107537
H	2.341585	0.0	0.0
