15

C	-0.551938	0.095126	-1.413736
C	0.0	0.0	0.0
Br	0.389626	1.372652	-2.537833
H	1.098888	0.0	0.0
H	-1.601235	0.374706	-1.448413
N	-0.475726	-1.269343	-2.04647
O	-1.49988	-1.948107	-1.914315
O	0.556892	-1.643235	-2.581508
N	-0.269833	-1.207635	0.711559
H	0.590458	-1.746445	0.763803
H	-1.035236	-1.75653	0.349605
N	-0.474391	1.166693	0.765711
O	-1.143122	2.043341	0.186837
O	-0.097904	1.244746	1.936276
H	2.478648	0.0	0.0
