15

C	-0.545815	0.261422	-1.391791
C	0.0	0.0	0.0
Br	0.648151	1.286501	-2.55815
H	1.103146	0.0	0.0
H	-1.480831	0.811932	-1.385628
N	-0.849678	-1.056478	-2.042484
O	0.034941	-1.686402	-2.603461
O	-2.010262	-1.448556	-1.882121
N	-0.249369	-1.264319	0.59541
H	-1.058612	-1.762617	0.257827
H	0.597755	-1.822831	0.558986
N	-0.404456	1.111982	0.867153
O	-0.203808	0.995621	2.078866
O	-0.787332	2.167355	0.324585
H	2.397872	0.0	0.0
