15

C	-0.371511	0.089502	-1.462771
C	0.0	0.0	0.0
Br	0.067782	-1.559494	-2.387155
H	1.103639	0.0	0.0
H	0.164905	0.885536	-1.96975
N	-1.834755	0.339857	-1.718108
O	-2.12432	1.093125	-2.641885
O	-2.639784	-0.248784	-0.997354
N	-0.388829	-1.120731	0.768258
H	-1.214652	-1.582834	0.423294
H	0.396472	-1.753213	0.856448
N	-0.389353	1.276661	0.629277
O	-0.590305	2.239821	-0.136538
O	-0.368519	1.362194	1.854987
H	2.514541	0.0	0.0
