14

C	0.0	0.0	0.0
C	-0.502337	-0.060076	-1.447466
F	1.371809	0.0	0.0
H	-1.576372	0.164446	-1.389047
H	-0.310133	0.960783	0.430906
N	-0.484846	-1.147192	0.710967
H	-1.507528	-1.094452	0.662602
H	-0.226244	-1.056506	1.68707
N	-0.223574	-1.368981	-2.045968
H	-1.027352	-1.633194	-2.605078
H	-0.169301	-2.025	-1.271861
C	0.153721	1.001711	-2.226468
N	0.653491	1.856384	-2.85723
Br	-3.713927	0.0	0.0
