14

C	0.0	0.0	0.0
C	-0.428307	-0.149931	-1.463351
F	1.404136	0.0	0.0
H	-1.526184	-0.116354	-1.433081
H	-0.333712	0.965771	0.38299
N	-0.475213	-1.038745	0.839049
H	-1.449856	-0.823932	1.05101
H	-0.472175	-1.89651	0.294929
N	0.006152	-1.454791	-1.958395
H	-0.480543	-1.678265	-2.815843
H	1.001242	-1.434043	-2.144254
C	0.069069	0.968906	-2.282629
N	0.462936	1.836885	-2.97045
Br	-3.688748	0.0	0.0
