14

C	0.0	0.0	0.0
C	-0.409301	0.535447	-1.392255
F	1.378511	0.0	0.0
H	0.494751	1.026312	-1.765927
H	-0.291346	0.767434	0.727178
N	-0.508323	-1.30511	0.262158
H	-0.447061	-1.498665	1.254606
H	-1.499644	-1.315054	0.023229
N	-1.444695	1.548565	-1.287215
H	-2.298652	1.136266	-0.897468
H	-1.679314	1.881826	-2.215383
C	-0.683156	-0.560304	-2.353542
N	-0.888742	-1.349355	-3.199549
Br	-4.088205	0.0	0.0
