14

C	0.0	0.0	0.0
C	-0.397746	0.178651	-1.468118
F	1.416456	0.0	0.0
H	-1.490495	0.191051	-1.563412
H	-0.403462	0.809497	0.617069
N	-0.456167	-1.256582	0.438787
H	-0.123816	-1.963839	-0.203581
H	-0.154723	-1.436336	1.386296
N	0.124761	-0.976644	-2.21383
H	-0.34641	-1.049373	-3.106623
H	1.116794	-0.85333	-2.378399
C	0.164337	1.443305	-1.981081
N	0.60846	2.43139	-2.438291
Br	-3.559671	0.0	0.0
