14

C	0.0	0.0	0.0
C	-0.458773	0.154686	-1.455443
F	1.38133	0.0	0.0
H	-1.552839	0.226056	-1.431677
H	-0.307231	0.877845	0.581203
N	-0.47463	-1.251591	0.511119
H	-1.496838	-1.198942	0.462956
H	-0.23248	-1.307619	1.494678
N	-0.057999	-0.952207	-2.321361
H	-0.545302	-1.773555	-1.97789
H	0.929801	-1.123854	-2.153578
C	0.076148	1.412213	-1.99558
N	0.497853	2.425006	-2.412767
Br	-3.687522	0.0	0.0
