16

C	-0.180052	0.017193	-1.530753
C	0.0	0.0	0.0
Cl	-1.922744	0.067515	-2.002967
H	1.101132	0.0	0.0
N	0.401696	1.270682	-1.982789
H	0.25834	1.364219	-2.982715
H	1.405139	1.210419	-1.797832
N	0.3745	-1.209469	-2.041675
H	0.398142	-1.182179	-3.055476
H	1.333175	-1.274989	-1.696805
C	-0.519398	-1.234723	0.581261
N	-0.949068	-2.195797	1.099884
N	-0.506622	1.146751	0.721366
H	-0.052418	1.965148	0.33152
H	-1.500974	1.234109	0.530655
Cl	3.343545	0.0	0.0
