16

C	-0.360334	-0.00209	-1.489665
C	0.0	0.0	0.0
Cl	-2.260344	-0.294595	-1.559458
H	1.095748	0.0	0.0
N	0.001779	1.216181	-2.045697
H	-0.278632	1.988301	-1.457513
H	-0.290101	1.297654	-3.007815
N	0.210399	-1.072346	-2.249708
H	-0.074866	-1.964092	-1.862502
H	1.220473	-0.977218	-2.146457
C	-0.427628	-1.248653	0.645072
N	-0.76311	-2.227188	1.202819
N	-0.473742	1.204728	0.663706
H	-1.405599	1.065353	1.034963
H	0.159986	1.430271	1.420864
Cl	3.300985	0.0	0.0
