16

C	-0.440782	0.065574	-1.477269
C	0.0	0.0	0.0
Cl	-0.029049	-1.557142	-2.24385
H	1.101293	0.0	0.0
N	-1.852606	0.264794	-1.700516
H	-2.127255	0.992804	-1.044857
H	-2.343834	-0.582322	-1.438225
N	0.276526	1.144249	-2.049158
H	1.279196	1.003376	-1.936638
H	0.02775	1.242859	-3.025768
C	-0.555268	-1.166326	0.678584
N	-1.033491	-2.064337	1.265274
N	-0.531564	1.218036	0.650913
H	-0.23834	1.191761	1.622693
H	-0.026856	1.988952	0.220996
Cl	3.338316	0.0	0.0
