18

C	0.0	0.0	0.0
C	-0.500849	0.151075	-1.467022
Cl	1.800804	0.0	0.0
H	-1.564295	0.396431	-1.377936
C	-0.434209	1.167955	0.87103
H	-0.000939	2.104247	0.525619
H	-0.103854	0.965199	1.891075
H	-1.523807	1.237615	0.84484
N	-0.482059	-1.212626	0.598768
H	-1.495487	-1.10275	0.698189
H	-0.312152	-1.99741	-0.01987
N	-0.345484	-0.978897	-2.324855
H	0.551192	-1.43245	-2.210534
H	-1.110651	-1.621733	-2.181773
N	0.149506	1.338672	-2.13255
O	1.098457	1.13151	-2.88397
O	-0.304436	2.450376	-1.858519
Br	-3.804723	0.0	0.0
