18

C	0.0	0.0	0.0
C	-0.179185	0.235954	-1.551418
Cl	1.824157	0.0	0.0
H	0.501389	-0.472125	-2.040376
C	-0.505915	1.144727	0.842227
H	-0.264648	0.930843	1.885249
H	-1.592577	1.195318	0.723785
H	-0.061711	2.087957	0.536638
N	-0.486149	-1.236606	0.504575
H	-1.49145	-1.116173	0.653143
H	-0.37837	-1.968596	-0.186588
N	0.045357	1.616424	-1.905291
H	-0.393885	1.81396	-2.794946
H	1.040744	1.783944	-1.958356
N	-1.491794	-0.220098	-2.160434
O	-2.15382	0.584814	-2.802469
O	-1.70264	-1.426648	-2.091208
Br	-3.952819	0.0	0.0
