18

C	0.0	0.0	0.0
C	-0.511675	0.004959	-1.444348
Cl	1.863182	0.0	0.0
H	-1.601586	0.124113	-1.350167
C	-0.437329	1.195255	0.820713
H	-1.52916	1.240276	0.771026
H	0.00363	2.12209	0.46195
H	-0.125622	1.038743	1.857032
N	-0.493466	-1.179467	0.565216
H	-0.294703	-1.279106	1.547612
H	-0.292531	-2.000809	0.015928
N	-0.172936	-1.202295	-2.120253
H	-0.806648	-1.354188	-2.893513
H	0.77445	-1.140386	-2.473005
N	-0.008073	1.238025	-2.188188
O	0.849144	1.076073	-3.058063
O	-0.49812	2.320944	-1.881761
Br	-3.977317	0.0	0.0
