18

C	0.0	0.0	0.0
C	-0.321621	-0.106133	-1.500037
Cl	1.83173	0.0	0.0
H	0.315741	0.589291	-2.049238
C	-0.451401	1.36367	0.505876
H	-0.090648	1.503209	1.529268
H	-1.542615	1.402916	0.486408
H	-0.041977	2.159957	-0.116372
N	-0.602358	-1.003328	0.757199
H	-0.357469	-1.948408	0.517211
H	-0.638792	-0.815319	1.746535
N	-1.680707	0.127577	-1.766215
H	-2.353983	-0.251	-1.093046
H	-1.940816	-0.125646	-2.71064
N	0.207828	-1.451632	-2.075838
O	0.015568	-2.507247	-1.474473
O	0.729686	-1.375616	-3.188854
Br	-4.507025	0.0	0.0
