17

C	0.0	0.0	0.0
C	-0.499946	-0.026239	-1.444581
Br	2.058485	0.0	0.0
H	-1.597306	-0.0597	-1.307174
N	-0.466996	1.167836	0.580825
H	-0.251928	1.277493	1.558248
H	-0.306487	1.990123	0.01882
C	-0.422027	-1.229882	0.772991
H	-0.074121	-1.160944	1.806364
H	-0.011928	-2.137535	0.328998
H	-1.517309	-1.243792	0.754848
C	-0.071774	-1.238565	-2.159204
N	0.242178	-2.181306	-2.786895
N	-0.152304	1.208535	-2.136177
H	0.780807	1.137975	-2.524464
H	-0.812723	1.371893	-2.88486
Cl	-3.79088	0.0	0.0
