17

C	0.0	0.0	0.0
C	-0.451522	0.088479	-1.471993
Br	2.005955	0.0	0.0
H	-1.549497	0.048334	-1.387684
N	-0.469105	1.10618	0.765755
H	-1.467351	0.938487	0.919751
H	-0.391916	1.937938	0.187078
C	-0.42782	-1.309056	0.632475
H	0.006588	-2.164259	0.113077
H	-1.519712	-1.358798	0.588627
H	-0.104963	-1.3202	1.674636
C	-0.006728	-1.060884	-2.277422
N	0.321436	-1.956064	-2.965365
N	-0.080264	1.373373	-2.052523
H	-0.668497	1.564698	-2.853816
H	0.886743	1.347753	-2.355239
Cl	-3.64637	0.0	0.0
