17

C	0.0	0.0	0.0
C	-0.266749	-0.065027	-1.543936
Br	2.05205	0.0	0.0
H	0.420654	-0.813946	-1.950748
N	-0.566976	1.132609	0.550145
H	-0.769379	1.11952	1.535192
H	-0.270544	2.02629	0.191047
C	-0.482668	-1.254152	0.692591
H	-0.094689	-2.143351	0.192063
H	-0.144584	-1.271006	1.731161
H	-1.577364	-1.24445	0.6663
C	0.115061	1.229745	-2.138963
N	0.384958	2.2731	-2.605371
N	-1.605431	-0.397158	-1.958296
H	-1.792589	-1.368293	-1.740732
H	-2.315008	0.128256	-1.441716
Cl	-4.130877	0.0	0.0
