17

C	0.0	0.0	0.0
C	-0.357737	-0.076606	-1.5207
Br	1.95901	0.0	0.0
H	0.447582	-0.632782	-2.008754
N	-0.502866	1.217479	0.573799
H	-1.507128	1.251169	0.385343
H	-0.396811	1.17494	1.581763
C	-0.446036	-1.265708	0.721637
H	-0.090128	-2.167582	0.222056
H	-1.537908	-1.273164	0.740758
H	-0.063042	-1.247825	1.747006
C	-0.322515	1.282504	-2.116976
N	-0.349908	2.310917	-2.68589
N	-1.57789	-0.818946	-1.769369
H	-1.780556	-0.80003	-2.762961
H	-2.390178	-0.434131	-1.275602
Cl	-4.058031	0.0	0.0
