17

C	0.0	0.0	0.0
C	-0.486753	0.247943	-1.451306
Br	1.959128	0.0	0.0
H	-1.583584	0.179307	-1.371941
N	-0.483645	1.112068	0.78554
H	-1.508358	1.043961	0.746355
H	-0.213038	0.97233	1.753745
C	-0.43279	-1.370124	0.50599
H	-0.08633	-1.508938	1.534204
H	-1.525876	-1.390544	0.487871
H	-0.030252	-2.176908	-0.109954
C	-0.033703	-0.81676	-2.352262
N	0.334052	-1.66191	-3.07986
N	-0.150602	1.542923	-2.020585
H	-0.572367	2.238554	-1.415316
H	0.85451	1.668963	-1.949059
Cl	-3.642135	0.0	0.0
