17

C	0.0	0.0	0.0
C	-0.315085	-0.121294	-1.539036
Br	1.965076	0.0	0.0
H	0.461065	-0.746086	-1.990432
N	-0.5239	1.148263	0.664807
H	-0.366016	1.993319	0.126948
H	-1.529413	1.0154	0.782746
C	-0.457065	-1.254091	0.729064
H	-0.095338	-1.210048	1.757563
H	-0.076436	-2.150209	0.238877
H	-1.549311	-1.288434	0.725263
C	-0.169285	1.224036	-2.147429
N	-0.100514	2.282103	-2.655638
N	-1.588139	-0.763632	-1.783546
H	-1.834185	-0.673803	-2.761568
H	-2.356293	-0.36295	-1.234153
Cl	-4.062919	0.0	0.0
