17

C	0.0	0.0	0.0
C	-0.367399	-0.214404	-1.48954
Br	2.021837	0.0	0.0
H	0.343221	-0.936297	-1.904975
N	-0.549651	1.192479	0.472404
H	-0.240065	2.029489	-0.000228
H	-0.541585	1.290923	1.475781
C	-0.441648	-1.171726	0.857414
H	-0.078319	-2.110569	0.440126
H	-0.042274	-1.055723	1.868804
H	-1.533154	-1.187239	0.884983
C	-0.139224	1.055848	-2.225257
N	0.005444	2.048793	-2.838194
N	-1.694805	-0.767581	-1.595618
H	-2.413735	-0.267739	-1.057903
H	-1.997365	-0.799084	-2.560782
Cl	-4.38744	0.0	0.0
