17

C	0.0	0.0	0.0
C	-0.237431	-0.165119	-1.541219
Br	1.97641	0.0	0.0
H	0.434646	0.585576	-1.980863
N	-0.492162	1.292553	0.38005
H	-1.515727	1.219933	0.285372
H	-0.305321	1.435825	1.368253
C	-0.466952	-1.170581	0.838884
H	-0.17396	-1.009785	1.881063
H	-0.054841	-2.1133	0.483446
H	-1.558597	-1.190363	0.769558
C	-1.53194	0.198119	-2.146212
N	-2.285697	0.504361	-2.99627
N	0.078878	-1.53183	-1.973363
H	1.085648	-1.645106	-1.951787
H	-0.231081	-1.651445	-2.930097
Cl	-3.630612	0.0	0.0
