17

C	0.0	0.0	0.0
C	-0.299645	-0.075108	-1.554456
Br	1.960835	0.0	0.0
H	0.390621	-0.81643	-1.971071
N	-0.519429	1.140754	0.682667
H	-1.52669	1.014202	0.791034
H	-0.349705	1.991573	0.157241
C	-0.493832	-1.261364	0.682125
H	-0.161546	-1.264172	1.721165
H	-0.110796	-2.153448	0.181099
H	-1.587793	-1.262202	0.656748
C	0.061087	1.223702	-2.153186
N	0.319746	2.280374	-2.595963
N	-1.630131	-0.432741	-1.978948
H	-1.788548	-1.414836	-1.792301
H	-2.363025	0.055111	-1.460949
Cl	-4.03934	0.0	0.0
