17

C	0.0	0.0	0.0
C	-0.468454	0.138299	-1.476512
Br	1.973769	0.0	0.0
H	-1.5617	0.026631	-1.399012
N	-0.474041	1.055282	0.844785
H	-0.294603	1.955004	0.412934
H	-1.489166	0.931363	0.914042
C	-0.436478	-1.33604	0.575765
H	-1.528786	-1.370245	0.548532
H	-0.024136	-2.167031	0.001962
H	-0.094957	-1.407096	1.609321
C	0.042375	-0.95419	-2.314689
N	0.441108	-1.827085	-2.992199
N	-0.193112	1.409198	-2.127878
H	0.753358	1.710544	-1.922315
H	-0.852348	2.101046	-1.795685
Cl	-3.631546	0.0	0.0
