17

C	0.0	0.0	0.0
C	-0.485664	0.169105	-1.454684
Br	2.037542	0.0	0.0
H	-1.576785	0.030122	-1.354747
N	-0.479408	1.07791	0.755174
H	-0.048834	1.961844	0.530697
H	-0.476876	0.906746	1.749187
C	-0.460534	-1.317695	0.581907
H	-1.556449	-1.294011	0.57651
H	-0.09475	-1.429559	1.605823
H	-0.092148	-2.155854	-0.010094
C	0.045124	-0.887625	-2.324655
N	0.45332	-1.743886	-3.017058
N	-0.260787	1.468416	-2.06182
H	-0.917777	2.123876	-1.658237
H	0.69132	1.775806	-1.896466
Cl	-3.757927	0.0	0.0
