13

C	0.0	0.0	0.0
C	-0.512256	-0.132563	-1.432487
Cl	1.787909	0.0	0.0
H	-1.612469	-0.035199	-1.39245
H	-0.215633	-1.093606	-1.848066
C	-0.432326	1.208748	0.715233
N	-0.577902	2.156183	1.395558
C	-0.408095	-1.193814	0.751608
N	-0.600896	-2.161565	1.389648
N	0.030699	0.912298	-2.331924
O	0.176511	2.044142	-1.878304
O	0.250291	0.573096	-3.49361
Br	-3.475057	0.0	0.0
