13

C	0.0	0.0	0.0
C	-0.516262	0.088141	-1.434864
Cl	1.789379	0.0	0.0
H	-1.616228	-0.012148	-1.381086
H	-0.22477	1.038867	-1.877158
C	-0.415323	1.215957	0.712677
N	-0.579568	2.235921	1.272914
C	-0.422905	-1.191696	0.749065
N	-0.605742	-2.1402	1.418168
N	0.025413	-0.978451	-2.308308
O	0.223504	-0.672061	-3.483223
O	0.191615	-2.094366	-1.823359
Br	-3.483159	0.0	0.0
