13

C	0.0	0.0	0.0
C	-0.521528	-0.309343	-1.40116
Cl	1.788311	0.0	0.0
H	-1.620807	-0.192232	-1.354125
H	-0.244037	-1.320553	-1.69375
C	-0.440167	1.294412	0.540908
N	-0.654977	2.340406	1.032124
C	-0.422069	-1.085589	0.898374
N	-0.631648	-1.96958	1.645068
N	0.02845	0.60413	-2.430732
O	0.178373	1.785483	-2.131717
O	0.258616	0.108912	-3.532106
Br	-3.505515	0.0	0.0
