13

C	0.0	0.0	0.0
C	-0.524532	0.168886	-1.422544
Cl	1.788543	0.0	0.0
H	-1.623738	0.060858	-1.365507
H	-0.241486	1.144002	-1.813843
C	-0.402778	1.176142	0.785233
N	-0.587357	2.139666	1.431696
C	-0.431294	-1.22553	0.686388
N	-0.613194	-2.196616	1.322843
N	0.014714	-0.845988	-2.355629
O	0.217061	-0.474998	-3.511089
O	0.176461	-1.988592	-1.935094
Br	-3.486507	0.0	0.0
