13

C	0.0	0.0	0.0
C	-0.511471	0.023836	-1.438158
Cl	1.793405	0.0	0.0
H	-1.613016	-0.052422	-1.383451
H	-0.200559	0.942999	-1.93062
C	-0.407683	1.252676	0.651643
N	-0.578015	2.297351	1.162543
C	-0.43145	-1.149074	0.806557
N	-0.588067	-2.046793	1.549578
N	0.004804	-1.100485	-2.253697
O	0.169143	-2.186674	-1.704072
O	0.182228	-0.868888	-3.449588
Br	-3.471991	0.0	0.0
