16

C	0.0	0.0	0.0
C	-0.514402	-0.206552	-1.420498
Cl	1.748766	0.0	0.0
H	-1.594356	-0.34766	-1.266267
H	-0.346834	-0.84655	0.613861
N	-0.627874	1.164212	0.652455
O	-1.787771	1.42741	0.095893
O	-0.413751	1.262863	1.886684
C	0.053282	-1.461596	-2.061623
H	-0.494115	-1.677331	-2.98657
H	-0.057457	-2.324367	-1.398536
H	1.108819	-1.334665	-2.307327
N	-0.210111	0.959511	-2.253856
H	-0.605979	0.783213	-3.173116
H	-0.753538	1.716616	-1.848518
H	-2.859946	0.0	0.0
