16

C	0.0	0.0	0.0
C	-0.517842	-0.185373	-1.421549
Cl	1.748827	0.0	0.0
H	-1.597755	-0.325781	-1.26466
H	-0.346063	-0.857016	0.599731
N	-0.626608	1.151819	0.675749
O	-0.418306	1.219013	1.913012
O	-1.784523	1.430512	0.122756
C	0.043345	-1.43481	-2.0792
H	1.099161	-1.309933	-2.325905
H	-0.506603	-1.637665	-3.005367
H	-0.070072	-2.304397	-1.426177
N	-0.214302	0.989156	-2.242892
H	-0.737714	1.747391	-1.813126
H	-0.637946	0.833027	-3.153083
H	-2.857498	0.0	0.0
