16

C	0.0	0.0	0.0
C	-0.505508	-0.018181	-1.465145
Cl	1.760898	0.0	0.0
H	0.371535	-0.324153	-2.046118
H	-0.34495	-0.897065	0.503938
N	-0.395609	1.134213	0.913898
O	-0.654307	0.816481	2.070601
O	-0.320203	2.283491	0.492223
C	-0.972033	1.322834	-2.036726
H	-1.215531	1.152466	-3.091638
H	-0.20286	2.096463	-1.981561
H	-1.873283	1.649195	-1.520006
N	-1.479328	-1.101228	-1.554164
H	-2.304248	-0.782873	-0.980437
H	-1.794807	-1.144784	-2.520735
H	-3.278618	0.0	0.0
