16

C	0.0	0.0	0.0
C	-0.198828	-0.014978	-1.572379
Cl	1.76457	0.0	0.0
H	0.640778	-0.640812	-1.871288
H	-0.326932	-0.929554	0.44755
N	-0.503904	1.072589	0.885274
O	-0.602233	0.776732	2.079361
O	-0.521127	2.22589	0.446107
C	-0.008176	1.35257	-2.200776
H	-0.905456	1.936537	-2.043104
H	0.126118	1.227448	-3.276015
H	0.848941	1.892867	-1.823
N	-1.380303	-0.694845	-2.114448
H	-1.569811	-0.25239	-3.010836
H	-2.135882	-0.481048	-1.446741
H	-2.290433	0.0	0.0
