16

C	0.0	0.0	0.0
C	-0.541014	-0.175351	-1.454909
Cl	1.770498	0.0	0.0
H	0.266172	-0.746808	-1.93232
H	-0.321552	-0.83996	0.610257
N	-0.424357	1.205521	0.801562
O	-0.826738	0.980609	1.938999
O	-0.268655	2.316231	0.304274
C	-0.701905	1.13071	-2.2218
H	-1.544182	1.694196	-1.820742
H	-0.927617	0.867379	-3.256728
H	0.19404	1.752995	-2.184681
N	-1.75153	-0.948343	-1.559739
H	-2.536653	-0.514112	-0.991736
H	-1.604774	-1.869611	-1.154877
H	-3.620444	0.0	0.0
