16

C	0.0	0.0	0.0
C	-0.261739	-0.040326	-1.541925
Cl	1.766919	0.0	0.0
H	0.439776	0.705678	-1.938071
H	-0.302871	-0.893376	0.528564
N	-0.628879	1.146208	0.654266
O	-0.613473	2.219716	-0.015568
O	-0.636335	1.133493	1.911762
C	-1.611002	0.335144	-2.142626
H	-1.981398	1.256257	-1.700193
H	-2.344052	-0.459517	-2.021485
H	-1.439308	0.507208	-3.220691
N	0.068654	-1.401898	-2.004513
H	-0.168851	-1.454363	-2.990588
H	1.071316	-1.538803	-1.9354
H	-2.040716	0.0	0.0
