13
Coordinates from ORCA-job run
  C   -0.39820979329305      0.57065201815472      0.10086173914192
  C   0.43395634635995     -0.49690798151275     -0.66355916061477
  Br  -0.28266566838666      2.24728042032790     -1.00829211426363
  H   -0.03482007385832     -0.62588952783235     -1.64777019584031
  C   0.22385436514191      0.88124782457962      1.38551332182443
  N   0.71217684296652      1.11840597590500      2.42826327189504
  N   -1.71131605057681      0.08999176514270      0.28974793427695
  H   -2.20273441395100     -0.03561132741643     -0.58734067049475
  H   -2.25499456807882      0.67802038887656      0.90892547845370
  C   0.38523077870282     -1.77472664125135      0.05706732803605
  N   0.36265881161534     -2.80699599692666      0.61648247143103
  C   1.82307213896806     -0.07753527965538     -0.86185322288952
  N   2.94479128439006      0.23306836160845     -1.01704618095612
