13
Coordinates from ORCA-job run
  C   -0.38686176321683      0.57740147649415      0.10887052932695
  C   0.41306001220156     -0.50399066815610     -0.67046459812821
  Br  -0.26551993925104      2.25138037043399     -1.00489559398213
  H   -0.07713421760742     -0.62597536925517     -1.64511747776078
  C   0.26553117166975      0.87949521854839      1.38027843167117
  N   0.78291231883969      1.10825844647557      2.41075756008037
  N   -1.70351750435534      0.11838011479866      0.32349031429738
  H   -2.22605820751321      0.71583593690446      0.95149469465732
  H   -2.21338325935657     -0.00157879253238     -0.54380244059034
  C   0.35665324283922     -1.78014526808439      0.05232155786599
  N   0.32057808110146     -2.81128273376101      0.61309073976163
  C   1.80465917675911     -0.10809605311984     -0.89754843584316
  N   2.92808088788962      0.18131732125366     -1.07947528135619
