13
Coordinates from ORCA-job run
  C   -0.37811293847782      0.53798635421857      0.01841518803299
  C   0.57079582607790     -0.69072443704903     -0.06387370648508
  Br  -0.30266523209477      1.52458205938248     -1.65838382320012
  H   0.47638162400023     -1.22290838200804      0.89389720400887
  C   0.10038855976166      1.43189034942137      1.08390409666463
  N   0.42217320745415      2.10599772716249      1.99317451687644
  N   -1.72097703503633      0.04777178878489      0.20079364916672
  H   -2.39614466344323      0.79000426674122      0.05932793016770
  H   -1.83505304133777     -0.31828741485669      1.14164519448210
  C   1.97048489493560     -0.28894080890269     -0.22157751268407
  N   3.09528820791845      0.03069068356323     -0.32876691831586
  C   0.15232938747722     -1.59764440184317     -1.13524665145262
  N   -0.15388879723528     -2.35041778461463     -1.98230916726170
