13
Coordinates from ORCA-job run
  C   -0.31645704696084      0.60713526499256      0.22161757354714
  C   0.90831783497332     -0.22211657144932     -0.26081247979927
  Br  -0.13038779210080      2.40761250056863     -0.68322218277361
  H   1.81526080720975      0.36747164810350     -0.08910700311363
  C   -0.19140302962704      0.87471630670143      1.65261031429335
  N   -0.08929799718154      1.07911702977722      2.80571374990301
  N   -1.51180615772755     -0.07703879347169     -0.05637949546644
  H   -1.65841110269191     -0.22040229840822     -1.04918298730526
  H   -2.32358484201120      0.35835902122286      0.36188862189944
  C   0.78140716456167     -0.50349828283814     -1.69347358840807
  N   0.63739713125789     -0.73530250473111     -2.83566008680372
  C   0.99311577608914     -1.47352551230707      0.50059267093180
  N   1.08484925420911     -2.46352780816065      1.12541489309527
