13
Coordinates from ORCA-job run
  C   -0.30645909471846      0.67207245288176      0.08119477228781
  C   0.92758566351218     -0.21534815134951     -0.25004258998525
  Br  -0.15501111121262      2.32383982350979     -0.94791383195342
  H   1.83458923822683      0.33302676154284      0.03042880720229
  C   -0.24262307474336      1.04383863624418      1.50402610862255
  N   -0.22904057685566      1.29317202822596      2.65396590557002
  N   -1.50157564893420     -0.01325806244576     -0.32368061533852
  H   -1.64911711911419     -0.83818364122827      0.25153597801414
  H   -2.31050045812152      0.59167381789488     -0.24377552887922
  C   0.97793789791168     -0.53190420076432     -1.67955711782042
  N   1.05363744188585     -0.79402122897986     -2.82107488643469
  C   0.85117424425563     -1.44696452761549      0.54514991930332
  N   0.74940259790784     -2.41794370791620      1.19874307941138
