13
Coordinates from ORCA-job run
  C   -0.29308221612353      0.62225211943505      0.21511139047086
  C   0.90211829441808     -0.26526930771955     -0.23714984383490
  Br  0.00452060345576      2.41274526409558     -0.67927741216020
  H   1.83177280929511      0.27885673850888     -0.03879765668229
  C   -0.19168419745843      0.88037064584080      1.64976185630761
  N   -0.10834040483424      1.07440190450875      2.80615779495439
  N   -1.51246300116787     -0.00230784593794     -0.09607052085316
  H   -1.63900023942035     -0.13817561003258     -1.09269772308604
  H   -2.31328473570255      0.47131179294029      0.30102621471538
  C   0.80096880637290     -0.53738419872528     -1.67361365059439
  N   0.67798864186562     -0.75963182903765     -2.82022329066222
  C   0.90530757433432     -1.52107276034129      0.52192144559781
  N   0.93517806496519     -2.51609691353506      1.14485139582714
