18

C	-0.453217	0.094228	-1.458991
C	0.0	0.0	0.0
F	-1.787134	0.411363	-1.524489
H	1.094414	0.0	0.0
C	0.35946	1.062354	-2.275835
H	0.042399	1.030138	-3.320716
H	0.190368	2.066906	-1.881463
H	1.418739	0.816517	-2.182828
N	-0.338223	-1.300602	-2.06187
O	0.794216	-1.669059	-2.350477
O	-1.367549	-1.959319	-2.176649
C	-0.515784	-1.237457	0.736031
H	-0.232876	-1.170966	1.787354
H	-1.601216	-1.329539	0.658965
H	-0.043738	-2.130992	0.324203
C	-0.442568	1.221612	0.670093
N	-0.81855	2.186995	1.223632
Br	3.470647	0.0	0.0
