18

C	-0.482559	-0.00107	-1.45317
C	0.0	0.0	0.0
F	-0.256466	-1.236015	-1.988646
H	1.095971	0.0	0.0
C	-1.930524	0.3703	-1.679148
H	-2.573176	-0.312521	-1.120691
H	-2.118178	1.391991	-1.351182
H	-2.154822	0.275935	-2.744267
N	0.347151	0.984729	-2.271022
O	0.798575	0.601368	-3.341154
O	0.419521	2.116745	-1.804768
C	-0.43613	-1.275539	0.732219
H	-1.523503	-1.387418	0.769265
H	0.00607	-2.141348	0.241498
H	-0.054305	-1.233236	1.753266
C	-0.497149	1.168383	0.718897
N	-0.939102	2.049576	1.358608
Br	3.43441	0.0	0.0
