18

C	-0.341374	-0.024844	-1.487362
C	0.0	0.0	0.0
F	0.101435	1.132842	-2.05173
H	1.097096	0.0	0.0
C	0.245271	-1.192012	-2.234186
H	0.080874	-1.042592	-3.304257
H	-0.216382	-2.124398	-1.925644
H	1.315781	-1.209911	-2.02287
N	-1.859419	-0.01668	-1.676951
O	-2.438987	-1.077648	-1.440423
O	-2.397776	1.027603	-2.022896
C	-0.440394	-1.222112	0.80822
H	-1.525852	-1.325584	0.852192
H	-0.04707	-1.119363	1.821491
H	-0.008107	-2.12804	0.380673
C	-0.498478	1.229817	0.608378
N	-0.922346	2.184941	1.145629
Br	3.474105	0.0	0.0
