18

C	-0.342635	-0.024084	-1.486832
C	0.0	0.0	0.0
F	0.103324	1.131634	-2.050727
H	1.097159	0.0	0.0
C	0.243326	-1.19187	-2.233046
H	-0.219238	-2.123557	-1.925276
H	0.078667	-1.041952	-3.30309
H	1.313474	-1.211224	-2.022077
N	-1.860229	-0.013314	-1.676553
O	-2.397344	1.031029	-2.021889
O	-2.44121	-1.072515	-1.440532
C	-0.440219	-1.222167	0.807953
H	-0.008698	-2.128419	0.38006
H	-0.04667	-1.120359	1.82136
H	-1.525955	-1.325171	0.852143
C	-0.497797	1.229445	0.608591
N	-0.922307	2.183868	1.146419
Br	3.475471	0.0	0.0
