18

C	-0.345031	-0.049301	-1.489481
C	0.0	0.0	0.0
F	-0.069431	1.16719	-2.040772
H	1.097155	0.0	0.0
C	0.403789	-1.112806	-2.249479
H	0.185926	-1.008145	-3.314682
H	0.119427	-2.109715	-1.922219
H	1.469351	-0.952734	-2.066436
N	-1.851091	-0.24377	-1.66386
O	-2.541837	0.745136	-1.882283
O	-2.267066	-1.395134	-1.535082
C	-0.4373	-1.219396	0.815921
H	-1.522159	-1.30603	0.892109
H	-0.035748	-2.131542	0.374037
H	-0.014018	-1.123899	1.817267
C	-0.515188	1.227693	0.598041
N	-0.975316	2.187297	1.095242
Br	3.458992	0.0	0.0
