14
Coordinates from ORCA-job run
  C   0.93362155839894     -0.18134084197518     -0.23025232112614
  C   -0.47946680160602      0.12888171197817      0.30700045618152
  Cl  1.04961240122745      0.08967361036998     -1.98718001824186
  H   -0.46853856306309      0.19584626192618      1.39578665324791
  C   1.89956025851179      0.69350351668146      0.44399166409051
  N   2.69713122831799      1.35788389894142      0.99630448252776
  C   1.26933556106203     -1.57029203622044      0.09819460639955
  N   1.56217556560567     -2.66445332430786      0.41360904226249
  N   -1.50644992561854     -0.89901707743090     -0.06027483325072
  O   -2.51627918111508     -0.85551878349927      0.63280572326525
  O   -1.27331464388538     -1.64465487952782     -1.00284503222348
  N   -0.95610839107288      1.46447876410635     -0.21527803815624
  O   -1.82766920633087      1.45860994677933     -1.07112104931466
  O   -0.38260986043200      2.42639923217859      0.27825866433813
