14
Coordinates from ORCA-job run
  C   0.99291356099468     -0.14292456299045     -0.19819204374825
  C   -0.50628838487709      0.06501587641703     -0.46117027793240
  Cl  1.86259124928214      0.86531147913875     -1.40084685942415
  H   -0.76765735248037     -0.25350160828314     -1.47044126220521
  C   1.42255496485919      0.24576466403641      1.14486981386256
  N   1.84203763985446      0.53462036423720      2.20435439161557
  C   1.31626138696535     -1.54790558919314     -0.45416682326227
  N   1.56296375516841     -2.66828304086414     -0.71117180631610
  N   -0.89647824309474      1.50707375970885     -0.31910360762315
  O   -0.79930427513131      1.96889555774369      0.81260554670575
  O   -1.27576848682173      2.07108140717415     -1.33713721457002
  N   -1.37175315128573     -0.70141790459973      0.50688483891645
  O   -0.81059362883879     -1.39227346110677      1.34889022239163
  O   -2.57347903459448     -0.55345694141870      0.33362508158959
