14
Coordinates from ORCA-job run
  C   0.93185821141299     -0.19141565799159     -0.22981972453603
  C   -0.47772122139855      0.14065177101328      0.30420830163005
  Cl  1.03709073009917      0.01501092984764     -1.99613482751746
  H   -0.46048388580207      0.24452370165374      1.39001770305159
  C   1.90293122006539      0.70556409940666      0.40690943141758
  N   2.70355286102294      1.38737385024855      0.93289164046865
  C   1.26747341452170     -1.56798474224137      0.14755931935302
  N   1.56031172667532     -2.65029525601875      0.50149797809704
  N   -1.50873890902623     -0.89761500925852     -0.02080317511387
  O   -2.51565887299831     -0.82537322968670      0.67397260785210
  O   -1.28012176626505     -1.68012289651985     -0.93404255094595
  N   -0.95394864426929      1.45820041474825     -0.26063340493083
  O   -0.37898913864400      2.43540309892562      0.20028857217859
  O   -1.82655572539400      1.42507892587304     -1.11491187100449
