14
Coordinates from ORCA-job run
  C   1.00147403614394     -0.18022145380776     -0.09960845268690
  C   -0.45406286679862      0.09516242664012     -0.50757512371394
  Cl  2.02830880232415      0.81729630712130     -1.18095968306582
  H   -0.62152810703278     -0.18803188454392     -1.54681398900769
  C   1.30615863466165      0.16141661083843      1.28951426785589
  N   1.63107577285692      0.42708332535774      2.38771333129498
  C   1.29313504840979     -1.59151012599883     -0.35908835432748
  N   1.52574183101664     -2.71355822382791     -0.62144924413604
  N   -0.80150932749510      1.54844347779117     -0.36607565472830
  O   -0.81012102339384      1.97734015667147      0.78253268261267
  O   -1.04542992360539      2.15308269429394     -1.40193447209613
  N   -1.44213197936740     -0.65823655250447      0.34584827823885
  O   -0.99699894922629     -1.38582866824566      1.22542200479804
  O   -2.61311194849367     -0.46243808978560      0.05147440896187
