14
Coordinates from ORCA-job run
  C   0.92884428735904     -0.19120233240491     -0.23893505737386
  C   -0.47485702212530      0.13976650534413      0.31094374602225
  Cl  1.01919689793565      0.03689095451966     -2.00360881928649
  H   -0.44808576904963      0.23265663705635      1.39756436095461
  C   1.91005092412392      0.69333138025485      0.39964193758411
  N   2.72051509292831      1.36528902506092      0.92331792965444
  C   1.26175704188272     -1.57382204703718      0.11811707259316
  N   1.55344609559153     -2.66154879037233      0.45593184318297
  N   -1.51185068985739     -0.89212716703634     -0.01556373962895
  O   -1.29640044851342     -1.66167020731507     -0.94292552960965
  O   -2.51031286649256     -0.82748426159340      0.69213911160051
  N   -0.95195150468080      1.46423810209549     -0.23777563956100
  O   -0.36190156299074      2.43424009821838      0.21888744472434
  O   -1.83945047611132      1.44244210320944     -1.07673466085645
