14
Coordinates from ORCA-job run
  C   1.00364749211082     -0.13851837074197     -0.13327485130307
  C   -0.47487792225609      0.07504298314628     -0.49252163158209
  Cl  1.95146979200392      0.89834057466408     -1.24855327401170
  H   -0.66646398160650     -0.21832244076552     -1.52480773170848
  C   1.33949011924902      0.21768466000431      1.24517887292221
  N   1.69030430692720      0.49741270858784      2.33179792529850
  C   1.34648792201807     -1.53708890773350     -0.39953225549221
  N   1.61940065790378     -2.64908016957728     -0.66609563828562
  N   -0.87656505139226      1.51312402091125     -0.34116144548509
  O   -0.86113792218400      1.94513277428617      0.80619652655525
  O   -1.18105561204332      2.10413706755055     -1.36889480800048
  N   -1.40202782909323     -0.71634839819498      0.39408914127335
  O   -2.58930099256826     -0.56885802807067      0.13904851349398
  O   -0.89837097906915     -1.42365847406654      1.25853065632545
