14
Coordinates from ORCA-job run
  C   0.93737041504891     -0.18168197985221     -0.21138326999424
  C   -0.48522457335951      0.13322455505031      0.29755807619618
  Cl  1.08146382921817      0.06528383889118     -1.96982958665459
  H   -0.49294636864270      0.21752505898642      1.38518332231491
  C   1.89074983919711      0.70397774736850      0.46657860232069
  N   2.67834508926927      1.37678486493859      1.02288849972661
  C   1.27070622499659     -1.56524282913963      0.14132340781611
  N   1.56300540920383     -2.65415563148500      0.47471256465846
  N   -1.50310470501296     -0.90380011519889     -0.06971241909692
  O   -1.25303552916786     -1.66278839689463     -0.99705019711672
  O   -2.52340032066431     -0.85372003535932      0.60738382391202
  N   -0.95606148428318      1.45872721996649     -0.25427065578228
  O   -1.81772497717617      1.43749263460023     -1.11972861528619
  O   -0.38814284862719      2.42937306812795      0.22834644698595
