14
Coordinates from ORCA-job run
  C   0.93563548793399     -0.20566850733439     -0.19522745695730
  C   -0.51889786172446      0.02022637301813      0.26994948897596
  Cl  1.10793898612041      0.00438748670584     -1.95556908525327
  H   -0.65895172668926     -0.35260833533422      1.28561339118596
  C   1.81130103189665      0.72643228129147      0.52179832880972
  N   2.52092396141304      1.43038782352217      1.14083753008948
  C   1.33986491238758     -1.57176276191050      0.15626837580149
  N   1.70142201765493     -2.64882787447543      0.45918794817800
  N   -1.47457831045882     -0.74237613348560     -0.61893958575002
  O   -2.16516649209910     -0.09751873945429     -1.39283200401660
  O   -1.42981121413710     -1.95623434723998     -0.47118739564878
  N   -0.93834773981781      1.45860839294868      0.26676593406946
  O   -0.30468050354634      2.24811549696644     -0.42181319936709
  O   -1.92665254893371      1.68583884478167      0.95514772988300
