14
Coordinates from ORCA-job run
  C   0.93394597892579     -0.18551233784167     -0.22369946688359
  C   -0.48018361611532      0.14031136495802      0.30266292518858
  Cl  1.04861449137853      0.02565969929155     -1.98858210864563
  H   -0.46844422442391      0.25093448811785      1.38789158633245
  C   1.89856197229301      0.71298400605622      0.42070501006899
  N   2.69505595143509      1.39619398202750      0.95107354694824
  C   1.27251805370479     -1.56174273649773      0.15207748949888
  N   1.56857700243816     -2.64335937725101      0.50535943226119
  N   -1.50249240785617     -0.90572735946203     -0.02216536945685
  O   -1.27134901435953     -1.67960350197243     -0.94219190269065
  O   -2.50823537502509     -0.84603780244469      0.67577432161603
  N   -0.96176777237236      1.45215833586556     -0.27284364872075
  O   -0.38054027731716      2.43358449322112      0.17022299059740
  O   -1.84426076270585      1.41015674593171     -1.11628480611429
