14
Coordinates from ORCA-job run
  C   0.97976171924860     -0.25197253743445     -0.13889625181516
  C   -0.44945047955159      0.19247099497925     -0.48510830085919
  Cl  1.47592592676750     -1.40481986469698     -1.42058260755362
  H   -0.47422120949021      0.68372802870023     -1.45792226176949
  C   1.85730048403342      0.91833584108311     -0.20608441068880
  N   2.56043080111644      1.85448811608071     -0.31267246849964
  C   1.10162907794957     -0.90969337960877      1.16194210193973
  N   1.27615059946361     -1.46266357921234      2.18464889937480
  N   -1.01697540670779      1.14774697040647      0.53378636237692
  O   -0.30356400959813      1.46252776711336      1.47891748053829
  O   -2.15661507019915      1.52124142606961      0.29303382497354
  N   -1.39276193954606     -0.97388051823540     -0.53537268366689
  O   -1.58583621663217     -1.53986263458073      0.53501486182518
  O   -1.87277427685404     -1.23864663066406     -1.62970454617565
