14
Coordinates from ORCA-job run
  C   0.99009041256213     -0.18184175046063     -0.17910133615924
  C   -0.49683210364385      0.07202161579156     -0.47019412368160
  Cl  1.91269525894045      0.77034630501522     -1.38762609491012
  H   -0.75316340058404     -0.25693697566844     -1.47736295656677
  C   1.41284049634584      0.21933735728862      1.16248520754847
  N   1.83242125462976      0.53041354153982      2.21571487067781
  C   1.26727883485258     -1.60245142312567     -0.40123392830797
  N   1.47804381455171     -2.73593904716930     -0.63096944155842
  N   -0.83939626568048      1.52908463576170     -0.36160394662631
  O   -0.74638334692482      2.00850104765918      0.76311945614581
  O   -1.17929921526409      2.08701766186254     -1.39669983783720
  N   -1.40267498253772     -0.64535434277860      0.49818364333913
  O   -0.87871294036935     -1.33099665112979      1.36788030355287
  O   -2.59590781687813     -0.46620197458619      0.29740818438353
