14
Coordinates from ORCA-job run
  C   1.01207253383445     -0.10973968941718     -0.10279463378458
  C   -0.46698877539166     -0.00824063262368     -0.50618663020115
  Cl  1.93843171402759      0.80981445585773     -1.33327712158139
  H   -0.62497595312689     -0.43149407256937     -1.49815946892358
  C   1.30810733385367      0.44040558428039      1.21969453336035
  N   1.62678150674738      0.88025471440790      2.26230284812857
  C   1.41364207713268     -1.51590559931045     -0.17717108413676
  N   1.73240626639946     -2.64192103184449     -0.28979332464671
  N   -0.93441461440682      1.41802527771903     -0.53425372499415
  O   -0.98866917421889      1.97473864992130      0.55710407317485
  O   -1.21621777663947      1.87667380628033     -1.63343497784189
  N   -1.37590753233618     -0.72784878919208      0.45662598082576
  O   -0.86342251544869     -1.27193544537749      1.42742728575322
  O   -2.55984509042661     -0.69182722813193      0.15091624486747
