14
Coordinates from ORCA-job run
  C   0.94254777904813     -0.24987036391214     -0.12720150688064
  C   -0.54462300936550      0.01620046742985      0.19612435233113
  Cl  1.32441395017936     -0.04083284924383     -1.85310937863988
  H   -0.76103173539688     -0.29917815615134      1.21927173562676
  C   1.73694370673050      0.70237245063624      0.65751714356066
  N   2.35791767620813      1.46897850260565      1.29755262024317
  C   1.29826463662780     -1.60807505109144      0.29540421994706
  N   1.61596284123743     -2.67078005813173      0.68489041729357
  N   -1.49013378236867     -0.74408507525516     -0.70256067403843
  O   -2.58548620359305     -0.23220544805629     -0.87818444452787
  O   -1.09318417513202     -1.83063591410355     -1.09894352022030
  N   -0.86269454446739      1.47845612501368      0.11670278806097
  O   -1.13644717019687      2.01675516851357      1.18489807344562
  O   -0.80144996951098      1.99290020174648     -0.99236182620182
