14
Coordinates from ORCA-job run
  C   0.95824205076510     -0.34938646458819     -0.06184430799754
  C   -0.37912803276824      0.25757100382032     -0.51248323826937
  Cl  1.45141322924182     -1.49882147217091     -1.34811929493693
  H   -0.26115834124041      0.78963177299274     -1.45663505397974
  C   1.95273503678323      0.72342831314838      0.00399816144549
  N   2.75113917749318      1.58626498094993      0.00220380655552
  C   0.89009688641934     -1.06500915155388      1.21194758057119
  N   0.91017744443223     -1.66906945601266      2.22025047757288
  N   -0.94140675754267      1.22403688473002      0.49898905786844
  O   -0.28861667408127      1.42867986435853      1.51537422249971
  O   -2.01283144739875      1.72027316258896      0.17959389425847
  N   -1.42707348273581     -0.79865003190591     -0.70888022733371
  O   -1.77271668897473     -1.39129492454050      0.30743247911405
  O   -1.83287240039302     -0.95665448181683     -1.85282755736847
