14
Coordinates from ORCA-job run
  C   1.01532953288135     -0.09001941259188     -0.07274434998202
  C   -0.45270248236060     -0.00366785058300     -0.51714424535299
  Cl  1.95714273259154      0.89025917668530     -1.24358412022477
  H   -0.57537160405304     -0.41181864321975     -1.52057520497391
  C   1.26164338165198      0.41810212459704      1.27651229022735
  N   1.53979583125645      0.82186512110791      2.34494091344530
  C   1.44953338565670     -1.48406854775107     -0.18404654473927
  N   1.79733552357750     -2.59769378586191     -0.32793412808522
  N   -0.94180777885402      1.41510687336555     -0.53613329409224
  O   -0.99597254084944      1.96685807539663      0.55759765077431
  O   -1.24128902091238      1.87294851822545     -1.63108630371519
  N   -1.37796751482038     -0.75450166017188      0.40667251060115
  O   -2.55865812242447     -0.69756468423338      0.09201850131296
  O   -0.87801132334119     -1.34680530496501      1.35550632480454
