14
Coordinates from ORCA-job run
  C   0.93045363250805     -0.27339942271617     -0.12830324429789
  C   -0.52060508482529      0.09406554913410      0.24779066754675
  Cl  1.13833731315271     -0.43094694451238     -1.89048117506424
  H   -0.68812924232143     -0.05343785494955      1.31563782207652
  C   1.83116856206399      0.75296353235953      0.40564881808998
  N   2.55852243728571      1.54342508339327      0.88366068811541
  C   1.27414535018810     -1.55359490320666      0.50096813214267
  N   1.58561837583132     -2.55979823513390      1.02351104759588
  N   -1.49308010982121     -0.80199493057789     -0.48277709667718
  O   -1.50743688890203     -1.95685469233014     -0.07795007299535
  O   -2.13911754969004     -0.31072051105731     -1.39570325662515
  N   -0.88497436971356      1.51463921868890     -0.06190568907415
  O   -1.87948815963210      1.90929063071876      0.53581506401511
  O   -0.20541426612419      2.12636348018943     -0.87591170484835
