14
Coordinates from ORCA-job run
  C   1.01713421156723     -0.10766221389203     -0.13354973156493
  C   -0.45609584398780      0.08313040086909     -0.52546664379543
  Cl  2.00871288864891      0.78876458792859     -1.32206581003594
  H   -0.62763101265195     -0.25695415089802     -1.54570028802150
  C   1.32726068316711      0.33661383582925      1.22621795011227
  N   1.63628648872220      0.61588578656211      2.32574849360629
  C   1.33176514730859     -1.53487605880476     -0.25229945439834
  N   1.57876067686705     -2.68035968570887     -0.35151388689382
  N   -0.92837481190471      1.50626349285817     -0.43230798330822
  O   -0.24784400316733      2.30762526378234      0.19261478149356
  O   -1.99982931911509      1.70336629111215     -0.99375705579632
  N   -1.34403410935607     -0.72468882389815      0.38599354409550
  O   -1.58186454265976     -0.23062384117099      1.48210966080546
  O   -1.71424645343839     -1.80548488456886     -0.05602357629856
