14
Coordinates from ORCA-job run
  C   0.95410824101376     -0.35935136852185     -0.07376168480115
  C   -0.38844538498939      0.24576046097539     -0.51182789796747
  Cl  1.41096323806734     -1.54761822025775     -1.33700676071753
  H   -0.28712856131895      0.75146356287246     -1.47221608260607
  C   1.95817342443370      0.70672994635251     -0.05800715007658
  N   2.76243985440039      1.56334645413252     -0.09650026661416
  C   0.90760658919830     -1.03702944709888      1.22206059096278
  N   0.94369628914891     -1.60992175006850      2.24793614272533
  N   -0.92128555882186      1.24471475148946      0.48414179995452
  O   -0.24344888487110      1.47447818410628      1.47852457672274
  O   -1.99653466861839      1.73888433215648      0.17506338051364
  N   -1.44753192400450     -0.80708291383975     -0.65602287636734
  O   -1.77620646426977     -1.36762874203867      0.38380998006286
  O   -1.87840618936843     -0.99474525025969     -1.78619375179156
