14
Coordinates from ORCA-job run
  C   1.01501523583421     -0.09666647726920     -0.07471509891870
  C   -0.45338682988660     -0.00504463356247     -0.51727123470074
  Cl  1.96184725847895      0.86407870618295     -1.25666210089944
  H   -0.58091354631373     -0.42233540783681     -1.51621719417836
  C   1.26537696432209      0.42311423524632      1.26980705415614
  N   1.54565517123275      0.83484791253132      2.33464211003752
  C   1.44011720964704     -1.49490572645020     -0.17037608349467
  N   1.77996615014863     -2.61302807071049     -0.29850794358702
  N   -0.93269099783098      1.41631212074354     -0.54820227345785
  O   -0.98675030035196      1.97647369452149      0.54118317846372
  O   -1.22567441255364      1.86834634902711     -1.64725998806568
  N   -1.38190870457127     -0.74179049424065      0.41469015982910
  O   -2.56241016512201     -0.68117228187112      0.10051452700326
  O   -0.88424303303346     -1.32822992631178      1.36837488781270
