14
Coordinates from ORCA-job run
  C   0.96509476199818     -0.12584122616019     -0.09693005235535
  C   -0.52522147618604      0.09671565606288      0.24127759620187
  Cl  1.34096400580817      0.34329458606211     -1.77388892464025
  H   -0.68051296291804      0.07334874437062      1.32086731430971
  C   1.78668980464918      0.67828544465253      0.81460189254602
  N   2.46630028839136      1.28057757447180      1.56148254051226
  C   1.29156796395080     -1.53826920209475      0.12357850482321
  N   1.56505737062885     -2.65804466235266      0.35524389361633
  N   -1.43695694758469     -0.92938767438285     -0.35654916622351
  O   -2.50565738799814     -1.04967768737500      0.23157490234559
  O   -1.06520336013122     -1.51312973077696     -1.36671100170800
  N   -0.97278143690598      1.45692264913584     -0.24310458156695
  O   -1.78292632242899      1.49600560739157     -1.15598768171783
  O   -0.44441430127344      2.39119992099507      0.34354476385689
