14
Coordinates from ORCA-job run
  C   0.96398370422221     -0.14503819330369     -0.08163961309120
  C   -0.52976324202045      0.08509747816392      0.23111857586497
  Cl  1.38047961190300      0.36576459361981     -1.73678870967653
  H   -0.71341756629780      0.00131079867813      1.30322072019273
  C   1.77236729623298      0.63036114688374      0.86609584884035
  N   2.44270842759704      1.21338492565814      1.63633128262058
  C   1.27332027319275     -1.56528705704729      0.11055207917277
  N   1.53502174640519     -2.69191554362551      0.32176027688982
  N   -1.44720835318520     -0.88623532187532     -0.44819971123349
  O   -2.56362408269013     -0.94305318861204      0.05423228716181
  O   -1.03169054364484     -1.49332879902828     -1.42670594250267
  N   -0.94238076904474      1.47792619093731     -0.18344786103363
  O   -1.65324123069560      1.58735312145117     -1.17076319005938
  O   -0.48655527197441      2.36465984809990      0.52623395685389
