14
Coordinates from ORCA-job run
  C   0.94447636366956     -0.24602000117683     -0.11739800159519
  C   -0.54764433144310      0.01123314579589      0.19181474028767
  Cl  1.33460783460979     -0.06573649008681     -1.84493930616038
  H   -0.77190750998840     -0.30335726495459      1.21343719261281
  C   1.72373975626395      0.72806165047966      0.65552588479388
  N   2.32789308346282      1.51298763405731      1.28947301616088
  C   1.31196769955577     -1.59288751571649      0.33050728459648
  N   1.64074275047453     -2.64479151664498      0.73984153910810
  N   -1.47624816870851     -0.75975347595218     -0.71569940581922
  O   -1.08014176966029     -1.86230619423970     -1.06558433878367
  O   -2.55741493806544     -0.23947339883535     -0.94552230357121
  N   -0.87563161069111      1.47038770591105      0.10509295807983
  O   -1.20054797730788      2.00129651153253      1.16262328187714
  O   -0.77289118217171      1.99035920983048     -0.99817254158713
