14
Coordinates from ORCA-job run
  C   0.95426993577441     -0.29974539489323     -0.25162603270059
  C   -0.47364802074213      0.22724885981065     -0.46256532379991
  Cl  1.38712288556868     -1.26628508835809     -1.69309098266696
  H   -0.53269477460319      0.81776354372570     -1.37559462794350
  C   1.85500736003372      0.85520026116821     -0.18269813679131
  N   2.57711319169536      1.78205698896251     -0.13244880805068
  C   1.11033182746745     -1.09931440098041      0.96446472067996
  N   1.31469120156126     -1.69706258115823      1.95602739517900
  N   -0.87370534139362      1.11560869905165      0.68800289236892
  O   -0.73738726372879      2.31826295419026      0.49916770692596
  O   -1.26647430936201      0.54543524934974      1.69930721004272
  N   -1.51085439905191     -0.85543743460300     -0.55085634642494
  O   -1.22354856745620     -1.97306905872030     -0.14538813193373
  O   -2.58022372576303     -0.47266259754546     -1.01170153488496
