14
Coordinates from ORCA-job run
  C   1.00535668839269      0.10131561033460      0.15227199214795
  C   -0.47958843821253      0.48785648687172      0.07484870920234
  Cl  1.92338259893975      1.47493986061086     -0.54729806144875
  H   -0.67113300877670      1.39458619123409      0.64886526518380
  C   1.37512435143487     -0.02958247668354      1.56306277870975
  N   1.66912544546433     -0.08044721188557      2.70017574119416
  C   1.34364374853327     -1.11725216034605     -0.58260326315586
  N   1.69561537218834     -2.07696448361433     -1.16318356704594
  N   -1.38393288209026     -0.59685662026138      0.60233623097063
  O   -0.85958947927701     -1.61848333337594      1.02944566394775
  O   -2.57566748490198     -0.32576211243272      0.55356362319155
  N   -0.91085853979526      0.74028518139898     -1.34017013768574
  O   -1.23408364627390      1.88870144542489     -1.61402734832234
  O   -0.89839472562562     -0.24033637727562     -2.07628762688931
