15
Coordinates from ORCA-job run
  C   -0.50432668273925      0.25190538662362     -0.04666951585746
  C   0.67218945136711     -0.34572396782064      0.15207618829823
  C   -1.19493083014409      0.56091446528607     -1.32505951165895
  H   -0.57033428358705      0.34570816227296     -2.18770995030526
  H   -1.48174618466424      1.61380943732687     -1.31983546960001
  H   -2.10524039127392     -0.04178693717642     -1.39730999998821
  N   -1.25118028211515      0.66742821806507      1.16002627081519
  O   -1.48972439418791     -0.19900390070107      1.99542873221070
  O   -1.60162044294533      1.84220856041820      1.18843470852827
  N   1.26603893730919     -0.58716257501975      1.46955349713811
  O   1.63574639757902     -1.74056158098857      1.66120614028744
  O   1.32769199322983      0.36136832266264      2.24169089328025
  N   1.54299370057000     -0.80218754337009     -0.93126478818039
  O   2.73140230520393     -0.52880969193569     -0.79130012889641
  O   1.02304070639784     -1.39910635564321     -1.86826706607151
