15
Coordinates from ORCA-job run
  C   -0.49279207565962      0.26758263550048     -0.07875864180452
  C   0.62621836925738     -0.43985822950354      0.08905402902249
  C   -0.66780115344779      1.73981206409584     -0.17155883571646
  H   0.26032770477327      2.27255369042710      0.01623364344172
  H   -1.43088726173358      2.04517813736192      0.54639249472451
  H   -1.01944338786947      1.99794973329249     -1.17492973694571
  N   -1.75206202278061     -0.49853156260851     -0.19791887154581
  O   -2.64781441442156     -0.16991229881108      0.57227916800451
  O   -1.80264721376627     -1.35737175845101     -1.07278843464900
  N   1.95117073921941      0.16107217623578      0.24228856798128
  O   2.63929490787011     -0.32350975271825      1.13584690055914
  O   2.25227418637359      1.07994925290801     -0.51234490508264
  N   0.67469970453973     -1.90118395593317      0.18352507159591
  O   -0.08205154191419     -2.43892689116903      0.98222369181872
  O   1.49151345955960     -2.43580324062701     -0.55854414140414
