15
Coordinates from ORCA-job run
  C   -0.49759821063325      0.26545188311880     -0.05187449167713
  C   0.66175838886233     -0.36166976747568      0.15606269030513
  C   -1.20374862762814      0.53496231051414     -1.33066966997181
  H   -0.62303652602916      0.21371446513538     -2.19080735918515
  H   -1.41402739257596      1.60406725389392     -1.39407703083433
  H   -2.15798843096186     -0.00014898345018     -1.33411701359121
  N   -1.20368730491647      0.77205095239771      1.14447132841755
  O   -1.51311594662249      1.95825326987511      1.11575157049096
  O   -1.45263842667015     -0.03864577449019      2.03148059961351
  N   1.27183473049891     -0.55421236325648      1.47447558457101
  O   1.60453454627840     -1.70841307626639      1.72078570747189
  O   1.39511893679623      0.43384853098772      2.18732236454424
  N   1.49593759782442     -0.90845008769933     -0.91412503139707
  O   2.69597475496640     -0.67393709365317     -0.80545693679395
  O   0.93968191081079     -1.53587151963137     -1.80922231196364
