15
Coordinates from ORCA-job run
  C   -0.48420986218924      0.27376632116040     -0.10782696690776
  C   0.60788443988623     -0.44464518546126      0.16075749716155
  C   -0.62318294568248      1.74309783948548     -0.27630184039748
  H   0.33830972995434      2.24830835275177     -0.24908334735069
  H   -1.24755572301408      2.14041363607792      0.52948652100061
  H   -1.12609150881647      1.93853634572018     -1.22495052474334
  N   -1.75066707329513     -0.47403004061436     -0.26054845890418
  O   -2.08478587616781     -1.20241818279312      0.66869830125054
  O   -2.37139486896210     -0.26060811798630     -1.29628054462724
  N   0.62735243044199     -1.90409438317662      0.28857786176279
  O   1.16785795457234     -2.32179580172367      1.30692684420153
  O   0.12068923731808     -2.55534373406139     -0.61630553023261
  N   1.94140026421022      0.13456253311131      0.32441972686393
  O   2.84249447732386     -0.47027410618138     -0.24911943894038
  O   2.04289932442025      1.15352452369104      0.99954989986273
