15
Coordinates from ORCA-job run
  C   -0.48221118652675      0.28336793493097     -0.09116891486565
  C   0.60358810663209     -0.45825327048830      0.13621638751162
  C   -0.59797788450601      1.75706423063334     -0.23724683808186
  H   0.37419837167183      2.24215158320869     -0.25070263229469
  H   -1.14057838703670      1.97375806464844     -1.15900206343307
  H   -1.17448814829293      2.15775579098681      0.60187741600822
  N   -1.76748669811253     -0.43836155764404     -0.20883690311592
  O   -2.41431588299679     -0.20754817209397     -1.22472147186993
  O   -2.08855841577689     -1.16329525141312      0.72760653952627
  N   0.59996650426365     -1.91925812363411      0.24854125533262
  O   0.04560397821186     -2.55125066760245     -0.64192863065565
  O   1.17286312360417     -2.35777545580190      1.24014585037999
  N   1.95194907781465      0.09508013066928      0.26193949363320
  O   2.82282595892220     -0.51849990035789     -0.34781875647837
  O   2.09362148212815      1.10406466395824      0.94509926840322
