15
Coordinates from ORCA-job run
  C   -0.47677567523329      0.30121504735308     -0.05925423921158
  C   0.62867031286525     -0.41173699694770      0.16639886208750
  C   -1.11640423905717      0.65761550528006     -1.35173032036752
  H   -2.08779260609786      0.15913640943194     -1.42250787510596
  H   -1.28416273384518      1.73572125034839     -1.37133899629665
  H   -0.51110972135643      0.35550003222006     -2.20188842788349
  N   -1.18892626480020      0.81545134350619      1.13053640786520
  O   -1.42457968052704      2.01890444979297      1.12910446902928
  O   -1.51163496607568     -0.00297419056290      1.98595860145914
  N   1.46187447494634     -0.97861792193749     -0.89418784130203
  O   2.67087331835403     -0.83930964999292     -0.73405735630573
  O   0.89501827979145     -1.52700717823381     -1.83358720750076
  N   1.17814031459483     -0.68595349664350      1.49700183617929
  O   1.41382439496821     -1.86850424801587      1.71960223011035
  O   1.35498479147273      0.27055964440149      2.24094985724297
