15
Coordinates from ORCA-job run
  C   -0.47770477049791      0.26266215618629     -0.15343839475799
  C   0.59913729637853     -0.42688278028023      0.22820099046394
  C   -0.60471298358207      1.70951261836929     -0.46495407016445
  H   -1.06058835909987      1.81448175764417     -1.45100486308009
  H   -1.26731968933936      2.17885028721576      0.26830148102277
  H   0.35561186481165      2.21693827816468     -0.43813899448436
  N   -1.73949624002940     -0.49651919082506     -0.28981935043169
  O   -2.31333486784516     -0.38196069856201     -1.36740610696272
  O   -2.11711881038226     -1.13317853013838      0.68873256564991
  N   0.60687107675507     -1.86842698023607      0.49219129304299
  O   1.10181429577779     -2.18969021122970      1.56704957409166
  O   0.13666349647540     -2.60079660749630     -0.36931774484429
  N   1.92703256909125      0.16471839679611      0.39396047482938
  O   2.84905189258907     -0.49261509171705     -0.07984972606182
  O   2.00409322889727      1.24290659610851      0.97349287168678
