15
Coordinates from ORCA-job run
  C   -0.48495946747345      0.27419162833800     -0.10395140026524
  C   0.60895259992587     -0.44557029510080      0.15350806623680
  C   -0.63007387834323      1.74673657794302     -0.23507515752780
  H   -1.13626740846265      1.96387913815768     -1.17718327056813
  H   0.32955185825278      2.25489513609594     -0.19786063943554
  H   -1.25342481171388      2.12143326219884      0.58227269216938
  N   -1.74687100282439     -0.47581367627310     -0.28276936203310
  O   -2.36440098507963     -0.23698193656593     -1.31493501754806
  O   -2.08098046014872     -1.23173586002609      0.62422100312178
  N   1.93845034055351      0.13582456670902      0.33967979452505
  O   2.03008037820170      1.13978847457629      1.03842377081991
  O   2.84682305603200     -0.45177287425707     -0.24029710425465
  N   0.63513166713445     -1.90786882872557      0.24338456146026
  O   1.16851692809930     -2.34913961946943      1.25552761704219
  O   0.14047118584634     -2.53786569360080     -0.68294555374286
