15
Coordinates from ORCA-job run
  C   -0.53084397065099      0.18777314728518     -0.05747301621518
  C   0.71800964784812     -0.22765659642886      0.16323538249786
  C   -1.26767551683971      0.30620360107652     -1.34188405208383
  H   -0.69556809463588     -0.08829200538508     -2.17706003383125
  H   -1.48406628187407      1.36094524053317     -1.53614243288530
  H   -2.21655726494749     -0.22496158621973     -1.24926603281353
  N   -1.31381808389526      0.60114034132671      1.12688534214494
  O   -0.82935639021801      1.47384584026188      1.84038863277681
  O   -2.40290361932660      0.05351576648827      1.25965732028709
  N   1.33827661294262     -0.31753951209661      1.48751625434157
  O   0.71765651290096     -0.91133245764776      2.36044859729109
  O   2.43832244483329      0.21699824041412      1.57580353336483
  N   1.61886294751502     -0.68796697121600     -0.89367285399255
  O   2.24170598035460     -1.71301536063346     -0.63251570851282
  O   1.66995507599341     -0.03065768775835     -1.92792093236972
