15
Coordinates from ORCA-job run
  C   -0.49186782132736      0.26054690307223     -0.10197584734175
  C   0.62209706417131     -0.42370480313006      0.16557993053572
  C   -0.65655376173963      1.70279184984916     -0.41701371034938
  H   0.29948161366065      2.21076430284903     -0.50869270731169
  H   -1.23104954294903      2.18205357276444      0.38126744202353
  H   -1.22305212200234      1.79354281035739     -1.34542874565416
  N   -1.75944122990642     -0.50111756205585     -0.08452703133381
  O   -2.45140126869370     -0.40269779644611     -1.09210860297383
  O   -2.02280790679727     -1.12413977357123      0.93923499679493
  N   0.66201819080834     -1.86142424330918      0.44628391662534
  O   1.27647059252375     -2.16794137396411      1.46220009651956
  O   0.09887091504986     -2.60545105809330     -0.34677750542113
  N   1.95887606074179      0.17058510366454      0.17232281968858
  O   2.82339387957106     -0.49181415333902     -0.39383161339367
  O   2.09796533688898      1.25700622135209      0.72446656159177
