15
Coordinates from ORCA-job run
  C   -0.51498677670127      0.22517535546051     -0.07469365256995
  C   0.69554571602519     -0.27196384097929      0.18672482784035
  C   -1.22079665308455      0.33807805039063     -1.37705140112074
  H   -1.35371059267689      1.39548765240127     -1.62427701655178
  H   -2.20846242879843     -0.11559189281914     -1.27884297598992
  H   -0.66708125910237     -0.13752107746645     -2.18187770363668
  N   -1.28213984589634      0.74834418025718      1.07597472187860
  O   -0.74020107602847      1.60591416709630      1.76620487578130
  O   -2.41498068135753      0.29732556720297      1.20683208475816
  N   1.28802327861329     -0.34992044623613      1.52457847636353
  O   0.61504488721180     -0.86301281032169      2.40964886656804
  O   2.42149486941590      0.11024073407154      1.60987529218938
  N   1.57503927263309     -0.84447714636943     -0.83265430302363
  O   2.11369143080082     -1.90144562060193     -0.51734283439144
  O   1.69251985894577     -0.23763287208633     -1.89209925809522
