15
Coordinates from ORCA-job run
  C   -0.47769455704381      0.27624489384595     -0.12916327555400
  C   0.60423742485625     -0.45000935838856      0.15917452155245
  C   -0.59596888507004      1.74159366802397     -0.34252495145886
  H   0.33880838112434      2.25831444690231     -0.14352614326506
  H   -0.88456855095710      1.93228663658408     -1.38046561694020
  H   -1.38533191522011      2.12493863881688      0.30620514049093
  N   -1.75368587176470     -0.45878302185698     -0.26656714273408
  O   -1.77772179967212     -1.39473402001368     -1.05981679352994
  O   -2.68667218967813     -0.03269263290517      0.40568883947164
  N   0.59567888678295     -1.90012045319164      0.36879187947603
  O   1.42293951442167     -2.51812097913153     -0.29237103403318
  O   -0.21193323992735     -2.34723800621197      1.17355085013744
  N   1.93898210018107      0.11861047652666      0.34641868624819
  O   2.31375473110766      0.97116277505366     -0.45185398858585
  O   2.56017597085942     -0.32345306405397      1.30845902872449
