15
Coordinates from ORCA-job run
  C   -0.48478914477671      0.27391581819736     -0.10613224994691
  C   0.61287745452334     -0.44726019630852      0.13072840142855
  C   -0.61809855326275      1.73754645503732     -0.32211147093806
  H   -0.96124209483958      1.92074059099149     -1.34469707385252
  H   -1.37323811508041      2.12340605321173      0.36481599167748
  H   0.32453278360756      2.25758862370552     -0.17576524605233
  N   -1.76386758985472     -0.46543402900306     -0.17249441383903
  O   -1.82812642234259     -1.40138140884524     -0.96345611325261
  O   -2.65974178868379     -0.04194009879586      0.54988321649447
  N   0.61971232086865     -1.89634328653821      0.34855551035179
  O   -0.14908314260162     -2.34228107652142      1.19103599684327
  O   1.41858394071310     -2.51491539705707     -0.34619487790491
  N   1.95372099145539      0.12673991369854      0.24519125818044
  O   2.62357474753955     -0.30440016178404      1.17910600488412
  O   2.28518461273458      0.97301820001147     -0.57846493407375
