15
Coordinates from ORCA-job run
  C   -0.48642457873332      0.25906317418591     -0.13102891111871
  C   0.61690874438167     -0.42995719186374      0.16696854861710
  C   -0.63765562913216      1.70698435506875     -0.42658360998979
  H   -0.97768766977498      1.82988175890137     -1.45913068270654
  H   0.29719794827416      2.24674887599226     -0.30358304285641
  H   -1.40194311496004      2.11934356548697      0.23448804217681
  N   -1.75260788792566     -0.50239031168142     -0.18428326709481
  O   -2.66645237960150     -0.05993610632529      0.50343603474258
  O   -1.79004867657214     -1.47347625685677     -0.93337364218239
  N   0.64191114660463     -1.86518528967138      0.46095427958809
  O   1.47360002711334     -2.50382131728180     -0.17477384544753
  O   -0.14644420401600     -2.28180003743801      1.30036074973076
  N   1.94535385593755      0.17255999425732      0.27900016651825
  O   2.28494497300584      0.97266410055623     -0.58638951888212
  O   2.59734744539861     -0.18967931333038      1.25393869890469
