15
Coordinates from ORCA-job run
  C   -0.47405016434370      0.27199083836933     -0.14564040893645
  C   0.59219667843466     -0.43544777375755      0.23362186352921
  C   -0.54522407463763      1.67235156715151     -0.63605515043799
  H   0.44112509845156      2.10984133025432     -0.76297291802852
  H   -1.08791876835524      1.68196716684360     -1.58280564931444
  H   -1.10388893653895      2.27786373560964      0.08384723688679
  N   -1.78406981606427     -0.41052968089951     -0.07309579132847
  O   -2.45749785493301     -0.37624265833320     -1.09740256440690
  O   -2.10149026239231     -0.89793761966149      1.00736893777885
  N   0.54396904991959     -1.82926188054106      0.68324460084405
  O   1.10328875006028     -2.04141935958458      1.75362693455376
  O   -0.03407702310997     -2.63334022490819     -0.03707764702007
  N   1.96075310710464      0.08082369484257      0.20751468582093
  O   2.79671202740919     -0.68991424408600     -0.25495255923565
  O   2.14917218899516      1.22025510870061      0.62077842929488
