15
Coordinates from ORCA-job run
  C   -0.48041634069030      0.27820662652706     -0.11295208288527
  C   0.60422101270916     -0.45093225041725      0.15735724098255
  C   -0.63399087064918      1.75522745885096     -0.14979651472535
  H   -1.31486599377437      2.06578415910004      0.64831717063480
  H   0.31507356261010      2.26601969247193     -0.01228384332708
  H   -1.07881267642211      2.03577570339158     -1.10602260980591
  N   -1.72214390530139     -0.46536874795632     -0.41636037471655
  O   -2.28018872596982     -0.16002807148422     -1.46476279421130
  O   -2.10181929238981     -1.28323214287452      0.41581700011101
  N   0.63862777430904     -1.91592396203743      0.14772539624296
  O   0.20421069234754     -2.48286252433533     -0.84697565547196
  O   1.11736432181185     -2.42336035721212      1.15616212878142
  N   1.91536598694121      0.12292818261013      0.45975134581806
  O   2.86046505335884     -0.41841830325005     -0.10639889387584
  O   1.95790940110926      1.07618453661551      1.23042248644844
