15
Coordinates from ORCA-job run
  C   -0.50459319143125      0.24631119320044     -0.07424449590540
  C   0.66727713272637     -0.33617244401622      0.18710901065424
  C   -1.17376713312969      0.46566397588683     -1.38214361340427
  H   -0.54485391614346      0.16615327384829     -2.21594472047957
  H   -2.09803069041639     -0.11877220669603     -1.41604810173037
  H   -1.43537294199472      1.52186208979247     -1.46625994299821
  N   -1.26899956380069      0.75026128894915      1.08703144399566
  O   -1.62050762299665      1.92327473736332      1.02232846552239
  O   -1.51609472965802     -0.05037111111959      1.98348640328391
  N   1.55643550572057     -0.87149685016408     -0.84391740954227
  O   1.05224910716465     -1.53226677146347     -1.74593991457219
  O   2.74327493211873     -0.59314479389703     -0.70017060323125
  N   1.23770862976018     -0.48045230967867      1.52912038322048
  O   1.60091744859329     -1.61708681549401      1.81149327018492
  O   1.30535703348710      0.52623674348860      2.22309982500193
