15
Coordinates from ORCA-job run
  C   -0.46675109417476      0.28577662623129     -0.14912838757398
  C   0.57853407814121     -0.45838438072650      0.21786791838085
  C   -0.53315963967928      1.74788214042754     -0.40334187490175
  H   0.44840013525986      2.21238911715778     -0.36708463311949
  H   -0.99179469956709      1.91012616506344     -1.38019491584995
  H   -1.16707500168753      2.21719185160018      0.35489061395651
  N   -1.75381275128806     -0.41933333350056     -0.32949304227665
  O   -2.16374010691229     -1.08397480558762      0.61709088818350
  O   -2.31231602938978     -0.23840624960201     -1.40605553548169
  N   0.53121446733730     -1.90793479854822      0.42463570087902
  O   0.99936128459156     -2.28853508936888      1.49219487465595
  O   0.04802469200850     -2.58887817713801     -0.47122916572155
  N   1.92403687007964      0.07767869761033      0.42209694167328
  O   2.82849470543917     -0.59180093904704     -0.06841594923020
  O   2.03158308984156      1.12820317542829      1.04616656642617
