15
Coordinates from ORCA-job run
  C   -0.48745776868232      0.26286570761834     -0.12410006082795
  C   0.61820770499565     -0.43193342422362      0.15202123802832
  C   -0.64794503352493      1.72332899729134     -0.34314182229267
  H   0.27060412264195      2.26758111843300     -0.14199106004577
  H   -1.45091877015478      2.08569451659735      0.30079743043111
  H   -0.93649912579978      1.90208344066867     -1.38327989346984
  N   -1.74385945765617     -0.50929623858879     -0.23710944799804
  O   -1.75383824147424     -1.44865352176829     -1.02655495198085
  O   -2.67719219166782     -0.10770906975489      0.44951097641054
  N   0.65170460699713     -1.88087250100849      0.36792840920550
  O   -0.12869890951117     -2.34573356342139      1.18917775059247
  O   1.48294927812717     -2.47959335477654     -0.30596234347311
  N   1.93934073725896      0.17402849069147      0.31786236113690
  O   2.27647443484248      1.03780986994043     -0.48507838790921
  O   2.58812861360787     -0.24960046769861      1.26991980219260
