15
Coordinates from ORCA-job run
  C   -0.47549007792539      0.27640295287767     -0.13530302856202
  C   0.60694971672306     -0.44926707161016      0.15171243190473
  C   -0.64507097680999      1.75219023188982     -0.12964022283168
  H   -0.84772206249222      2.09502073538652     -1.14861497457400
  H   0.24171951241069      2.26181038539086      0.23690695904067
  H   -1.50754881143226      2.00100286272779      0.49116263836340
  N   -1.69306117396584     -0.46898687573902     -0.52030543873197
  O   -1.59577417685519     -1.25044794202491     -1.46124807371551
  O   -2.70370918036181     -0.20044607108349      0.12014195838889
  N   1.88521228180811      0.12793141266026      0.56770130705650
  O   2.42183877095114     -0.43376714368125      1.51815732400043
  O   2.29978676913035      1.10328654128968     -0.04972878836447
  N   0.65072349659146     -1.91371024198201      0.12822403139228
  O   -0.22200229009305     -2.51295387176686      0.74380685014494
  O   1.58214820232095     -2.38806590433486     -0.51297297351221
