12

C	-0.469218	-0.053743	-1.453837
C	0.0	0.0	0.0
Cl	-0.156047	1.449003	-2.357268
H	1.094796	0.0	0.0
H	-1.545186	-0.240807	-1.504444
H	0.075038	-0.855852	-1.952362
N	-0.384268	-1.212526	0.721268
H	0.333032	-1.911168	0.578282
H	-1.278297	-1.569443	0.404604
C	-0.551864	1.171365	0.688418
N	-1.0541	2.087726	1.222843
Cl	3.318894	0.0	0.0
