12

C	-0.52873	-0.019965	-1.431754
C	0.0	0.0	0.0
Cl	-0.035236	-1.484302	-2.303459
H	1.094079	0.0	0.0
H	-0.133848	0.837846	-1.975223
H	-1.620275	0.01089	-1.439304
N	-0.454351	-1.148794	0.77187
H	-1.32808	-0.952584	1.243721
H	0.250755	-1.376009	1.463039
C	-0.44296	1.275491	0.596006
N	-0.870325	2.246043	1.103857
Cl	3.346116	0.0	0.0
