12

C	-0.524239	0.016455	-1.429268
C	0.0	0.0	0.0
Cl	-0.057802	-1.464447	-2.313868
H	1.100949	0.0	0.0
H	-1.613759	0.060228	-1.429354
H	-0.096853	0.859504	-1.970269
N	-0.565808	-1.140768	0.741253
H	-0.184483	-1.096104	1.681556
H	-0.152185	-1.971785	0.32823
C	-0.465332	1.242484	0.62753
N	-0.85793	2.236304	1.11464
Cl	3.370584	0.0	0.0
