15

C	0.0	0.0	0.0
C	-0.650872	0.009934	-1.356238
F	1.371674	0.0	0.0
H	-1.800132	0.072384	-1.00307
H	-0.303733	0.940747	0.475323
N	-0.475981	-1.182896	0.659999
H	-0.194495	-1.132922	1.63339
H	-1.502954	-1.078062	0.637288
N	-0.405889	-1.229222	-2.129111
O	0.761753	-1.588254	-2.272397
O	-1.388406	-1.813092	-2.584834
N	-0.274439	1.148461	-2.179719
O	-0.154394	0.987814	-3.399946
O	-0.178455	2.236881	-1.60304
H	-2.836	0.0	0.0
