16

C	-0.583151	0.029146	-1.427639
C	0.0	0.0	0.0
Br	0.111112	1.452842	-2.53089
H	1.088847	0.0	0.0
N	-0.172711	-1.312064	-2.079485
O	1.021578	-1.486914	-2.222495
O	-1.083723	-2.072568	-2.376274
C	-2.038784	0.096439	-1.41411
N	-3.211804	0.165745	-1.357938
N	-0.468834	-1.177962	0.63776
H	-1.369841	-1.035439	1.077551
H	0.217239	-1.488386	1.313814
N	-0.453262	1.274354	0.703351
O	-1.481938	1.198386	1.384538
O	0.217757	2.284752	0.538502
Br	3.390317	0.0	0.0
