13
Coordinates from ORCA-job run
  C   -0.65117328504410      0.67391997511589      0.21155451091001
  C   0.38343018059480     -0.09427520664556     -0.62637271407598
  Cl  0.13290561869333      1.71818067366557      1.41562131881791
  H   -0.14775216144820     -0.61961978189100     -1.42509507220473
  H   -1.15272407288837      1.36174172559556     -0.48179126261607
  N   -1.49153297675749     -0.27161584692522      0.89215867398209
  H   -1.95589569765836     -0.88900596186779      0.23589184820046
  H   -2.18688465071909      0.21060696176684      1.44688614310481
  N   1.01613600779581     -1.18606251567501      0.20293814498000
  O   0.50601202607645     -2.29454721959345      0.08629089470419
  O   1.94961554662638     -0.86981211684915      0.92720013569085
  C   1.40299723748142      0.77214014348475     -1.19777236800612
  N   2.19486622724743      1.48834916981858     -1.68551025348741
