13
Coordinates from ORCA-job run
  C   -0.86297277158420      0.40846052474047     -0.26107167393397
  C   0.60085051985204      0.08740361167790     -0.57103989488244
  Cl  -1.09942631506766      2.13796710867688     -0.61415108118185
  H   0.83718104678786      0.28130632094177     -1.62312091291521
  H   -1.48772599323512     -0.14086829756924     -0.96549802494945
  N   -1.13565964366566      0.08886201037624      1.11784598005769
  H   -1.55995343387098      0.86169094962996      1.60949621993792
  H   -1.73524330218460     -0.72197568339229      1.17936528211290
  N   0.83273947153766     -1.40398435000960     -0.38408095994382
  O   -0.15861378199343     -2.12532687795670     -0.43276364204582
  O   1.99438014065390     -1.76759987357262     -0.27464117567832
  C   1.52022819524780      0.82627870330447      0.28440835819871
  N   2.25621586752238      1.46678585315276      0.93625152522366
