14
Coordinates from ORCA-job run
  C   -0.68122468450439      0.88765432360793      0.32321469873432
  C   0.66038648429597      0.14430713223959      0.41484887451149
  Br  -0.53518788388765      2.49679602835212     -0.71873040512663
  H   1.37320891896989      0.87504487359038      0.81400928704213
  H   -1.04530701547094      1.16538659699835      1.31023958695373
  N   -1.73567298654194     -0.02885361146749     -0.24921837012439
  O   -2.43719190455974     -0.58764354601792      0.59097885181907
  O   -1.77284455414599     -0.18948843682787     -1.46208436087693
  C   1.19237921120856     -0.40557998665738     -0.91179540923375
  H   2.19024816495321     -0.81645478892853     -0.75099298260060
  H   0.55102198958729     -1.19678600979137     -1.29815444713419
  H   1.25530430134323      0.38871668698184     -1.65519864850847
  C   0.53454190619449     -0.93008413203734      1.40578846979085
  N   0.45133805255800     -1.80301513004233      2.18709485475338
