14
Coordinates from ORCA-job run
  C   -0.87350977424310      0.44724154566416      0.42992234978529
  C   0.62376633481740      0.18975429915378      0.27117016453018
  Br  -1.24789104950101      2.03455648957473      1.45014029151353
  H   1.06838047123754      1.09335467300619     -0.15828379148425
  H   -1.39480661125259     -0.38739313485859      0.89595064227596
  N   -1.46465085638476      0.59230979408353     -0.94650884477010
  O   -2.35396193225439     -0.20165935038556     -1.23994855335333
  O   -0.98069288845246      1.45323248807991     -1.67122214844243
  C   0.88538223220347     -1.01033896817621     -0.64917227316043
  H   0.37924182249042     -1.90422456544746     -0.27863164360319
  H   0.54116770530381     -0.79867260119709     -1.66231497517902
  H   1.95601843307696     -1.21433595771223     -0.69097518827217
  C   1.20599528736207     -0.04046522199864      1.59307815649975
  N   1.65756082559663     -0.25335948978648      2.65579581366026
