14
Coordinates from ORCA-job run
  C   -0.95181806155136      0.13647341499350      0.47815511818397
  C   0.56946538888716      0.20555646871337      0.35996288327463
  Br  -1.63545553184831      1.24770719877912      1.89172274040212
  H   0.84152239726662      1.25995411527972      0.24643708198192
  H   -1.31371369876147     -0.87794412660544      0.63807900399227
  N   -1.53732744961050      0.58646210711300     -0.83320053256070
  O   -2.25723803893117     -0.22317934526978     -1.41074766157467
  O   -1.21168093086360      1.69687117661225     -1.23518684390526
  C   1.06855036295400     -0.59762404849562     -0.84875791658810
  H   0.73542513654036     -1.63601426504010     -0.79182546781508
  H   2.15895967078393     -0.58738433728624     -0.87148503701427
  H   0.70641574412886     -0.15634831724634     -1.77826645880923
  C   1.16529401773818     -0.30471428983029      1.59456508832529
  N   1.66160099326728     -0.74881575171714      2.56154800210709
