14
Coordinates from ORCA-job run
  C   -0.73883951980070      0.66325647544809     -0.18850019738163
  C   0.44199652334494     -0.20008808219552      0.26311136234477
  Br  -1.17601179163048      0.45472988261168     -2.03994904182520
  H   0.55030348035259     -0.00336061729700      1.33626005522075
  H   -0.52219697749141      1.71515171574905     -0.00344083713701
  N   -1.92078257118725      0.34183209282038      0.71306808018687
  O   -1.76727991470850      0.75345894213177      1.86066388376200
  O   -2.86467970647646     -0.30097216735762      0.28330691396384
  C   1.74492985773281      0.17222135108142     -0.44764290428966
  H   2.57227710612964     -0.39402779067419     -0.01729758461210
  H   1.94984896141586      1.23746425993118     -0.31784214587026
  H   1.68784742184233     -0.05085263170472     -1.51248099636001
  C   0.13201838128489     -1.62180538934959      0.09982050171894
  N   -0.08743125080829     -2.76800804119496     -0.03007708972132
