14
Coordinates from ORCA-job run
  C   -0.69865849197407      0.87556443020659      0.32151034502915
  C   0.64577865624590      0.14110913308095      0.44010527320144
  Br  -0.53102060658388      2.51109160059059     -0.67495992841172
  H   1.34072505734223      0.86929981635162      0.87379712370266
  H   -1.09942162531423      1.12568031666650      1.30169159064110
  N   -1.72355708050606     -0.03631762037045     -0.30946210433817
  O   -1.72645691444434     -0.15833490963916     -1.52729543622065
  O   -2.43828909357444     -0.63191533746318      0.49356601583248
  C   1.21961942836347     -0.37847950781144     -0.88138418588165
  H   2.21721738343839     -0.78191904823658     -0.70132685917617
  H   1.29372503595662      0.42980590224164     -1.60853370350401
  H   0.59763729716717     -1.16934386762957     -1.29912051467850
  C   0.50066222651516     -0.95375355857616      1.40557995667964
  N   0.40203872736812     -1.84348734941138      2.16583242712439
