16

C	0.0	0.0	0.0
C	-0.356523	0.135961	-1.488357
Cl	1.783357	0.0	0.0
H	-0.11473	-0.828428	-1.954377
H	0.361671	0.863395	-1.882169
C	-0.581909	1.078362	0.872041
H	-0.21585	0.989235	1.89364
H	-0.308336	2.048144	0.455082
H	-1.672398	0.987006	0.857708
N	-0.390735	-1.376588	0.552518
O	-0.527468	-2.299074	-0.242942
O	-0.480903	-1.469748	1.771411
N	-1.683387	0.658633	-1.734711
H	-1.923148	0.495178	-2.704436
H	-2.425651	0.238481	-1.169984
Cl	-4.276271	0.0	0.0
