16

C	0.0	0.0	0.0
C	-0.56146	0.527557	-1.311634
Cl	1.785383	0.0	0.0
H	-1.64113	0.349476	-1.239663
H	-0.161159	-0.066648	-2.13504
C	-0.525861	0.733377	1.202699
H	-0.09042	0.338687	2.118301
H	-0.272738	1.785952	1.079972
H	-1.613444	0.611722	1.214416
N	-0.347383	-1.48811	0.109772
O	-0.458492	-1.962952	1.233409
O	-0.426553	-2.121464	-0.938857
N	-0.280591	1.956013	-1.437539
H	0.411041	2.119784	-2.155743
H	-1.130161	2.442296	-1.688817
Cl	-3.845242	0.0	0.0
