16

C	0.0	0.0	0.0
C	-0.542782	0.541407	-1.311395
Cl	1.773938	0.0	0.0
H	-1.633316	0.473981	-1.221409
H	-0.271628	1.601846	-1.321494
C	-0.557379	0.736712	1.191791
H	-1.642751	0.584783	1.193654
H	-0.116784	0.363664	2.116136
H	-0.340831	1.801957	1.087292
N	-0.392558	-1.474523	0.15638
O	-0.081116	-2.010384	1.2158
O	-0.994382	-2.009347	-0.764087
N	0.000652	-0.133004	-2.482705
H	0.291928	0.540691	-3.175817
H	-0.707287	-0.734508	-2.87868
Cl	-3.884176	0.0	0.0
