16

C	0.0	0.0	0.0
C	-0.409561	-0.203597	-1.479749
Cl	1.782949	0.0	0.0
H	-0.147018	0.74043	-1.97299
H	0.251264	-0.970064	-1.888049
C	-0.60236	1.208709	0.657121
H	-0.332242	2.0943	0.078601
H	-0.255136	1.320716	1.682449
H	-1.691732	1.089656	0.657017
N	-0.356196	-1.254663	0.79907
O	-0.319233	-2.324041	0.197296
O	-0.598205	-1.119259	1.99296
N	-1.763278	-0.559524	-1.784414
H	-1.964368	-1.494674	-1.457486
H	-2.475634	0.02854	-1.357022
Cl	-4.357855	0.0	0.0
