16

C	0.0	0.0	0.0
C	-0.398704	0.003758	-1.493907
Cl	1.779902	0.0	0.0
H	-0.053628	0.974346	-1.871113
H	0.208277	-0.757904	-1.985764
C	-0.603117	1.108273	0.814883
H	-1.691303	0.980859	0.821204
H	-0.236339	1.090942	1.83942
H	-0.351862	2.064627	0.352783
N	-0.366139	-1.346196	0.627524
O	-0.431969	-2.317013	-0.121231
O	-0.517751	-1.377615	1.843681
N	-1.771677	-0.197449	-1.847662
H	-2.082923	-1.121253	-1.579866
H	-2.425975	0.428344	-1.389127
Cl	-4.357873	0.0	0.0
