16

C	0.0	0.0	0.0
C	-0.534041	-0.594615	-1.31119
Cl	1.772518	0.0	0.0
H	-1.61957	-0.663024	-1.181191
H	-0.343279	0.173314	-2.067715
C	-0.53315	1.391195	0.238307
H	-1.626148	1.323369	0.268289
H	-0.152634	1.79412	1.175319
H	-0.224172	2.034206	-0.588496
N	-0.374821	-0.872098	1.202423
O	-0.291231	-0.354494	2.310219
O	-0.679232	-2.041412	0.992244
N	-0.006307	-1.856474	-1.792598
H	1.0056	-1.827279	-1.803407
H	-0.287478	-2.581393	-1.147846
Cl	-3.803528	0.0	0.0
