14

C	-0.518355	-0.055963	-1.40908
C	0.0	0.0	0.0
F	-0.255412	-1.265927	-1.986886
H	1.09363	0.0	0.0
H	-0.362888	-0.900871	0.50505
N	-2.053253	0.047869	-1.377996
O	-2.625747	-0.893238	-0.835245
O	-2.591642	1.047115	-1.844034
C	-0.020392	1.017153	-2.277875
N	0.398247	1.814235	-3.031008
N	-0.449701	1.252996	0.598681
H	-1.107834	1.092194	1.347745
H	0.369096	1.712606	0.983699
H	2.807861	0.0	0.0
