14

C	-0.551062	-0.04398	-1.396264
C	0.0	0.0	0.0
F	-1.924818	0.099024	-1.405688
H	1.09072	0.0	0.0
H	-0.347594	0.942044	0.439215
N	-0.015326	1.15288	-2.175437
O	-0.478131	2.238418	-1.840549
O	0.837608	0.952347	-3.030616
C	-0.231931	-1.272612	-2.131816
N	-0.055778	-2.271002	-2.72298
N	-0.4438	-1.195643	0.707495
H	-1.143505	-0.97887	1.401671
H	0.369974	-1.584344	1.172518
H	2.811721	0.0	0.0
