14

C	-0.630987	-0.081366	-1.364236
C	0.0	0.0	0.0
F	-1.978025	-0.349986	-1.273603
H	1.090379	0.0	0.0
H	-0.310682	-0.918325	0.5174
N	-0.510251	1.266735	-2.075504
O	0.622998	1.574092	-2.411797
O	-1.533636	1.91444	-2.233082
C	-0.036104	-1.093088	-2.245334
N	0.396143	-1.926728	-2.949864
N	-0.434923	1.229234	0.650689
H	0.381217	1.624058	1.104434
H	-1.148442	1.062703	1.344228
H	2.816686	0.0	0.0
