14

C	-0.50744	0.009395	-1.423085
C	0.0	0.0	0.0
F	-1.887136	0.122179	-1.466413
H	1.091185	0.0	0.0
H	-0.349098	-0.942813	0.437469
N	0.02221	1.231415	-2.163783
O	-0.598209	2.277046	-1.989936
O	1.046967	1.084607	-2.818308
C	-0.133761	-1.18513	-2.187499
N	0.075637	-2.182332	-2.772833
N	-0.435228	1.142719	0.778452
H	0.290518	1.848198	0.740511
H	-1.300092	1.538188	0.43618
H	2.810322	0.0	0.0
