14

C	-0.510808	-0.065665	-1.414574
C	0.0	0.0	0.0
F	-0.21223	-1.267676	-1.987897
H	1.095219	0.0	0.0
H	-0.361048	-0.903752	0.503508
N	-2.044919	0.003831	-1.387536
O	-2.605811	-0.997729	-0.950605
O	-2.593198	1.046605	-1.730609
C	-0.03427	1.021987	-2.278056
N	0.359755	1.85035	-3.010468
N	-0.443207	1.252164	0.598993
H	0.370665	1.696735	1.009669
H	-1.131748	1.102625	1.321878
H	2.79803	0.0	0.0
