14

C	-0.609539	-0.080732	-1.375517
C	0.0	0.0	0.0
F	-1.955284	-0.3742	-1.313371
H	1.090378	0.0	0.0
H	-0.312265	-0.921164	0.510844
N	-0.502287	1.278159	-2.067464
O	-1.532146	1.913785	-2.226812
O	0.631938	1.607103	-2.381837
C	0.01591	-1.073597	-2.259452
N	0.439801	-1.90026	-2.975596
N	-0.443036	1.225664	0.65163
H	-1.147708	1.045821	1.350806
H	0.371414	1.628484	1.102444
H	2.816571	0.0	0.0
