14

C	-0.482722	0.014839	-1.428681
C	0.0	0.0	0.0
F	0.012811	-1.020876	-2.142814
H	1.098705	0.0	0.0
H	-0.353011	0.911604	0.488546
N	-2.013588	-0.143983	-1.439616
O	-2.488791	-1.133757	-1.972458
O	-2.632567	0.748274	-0.866844
C	-0.208891	1.277409	-2.133977
N	-0.016014	2.280941	-2.711901
N	-0.491576	-1.221767	0.632766
H	-0.995438	-1.002268	1.480301
H	0.321865	-1.767918	0.887982
H	2.827226	0.0	0.0
