20
Coordinates from ORCA-job run
  C   -0.68358765477530     -0.03902502341988     -0.52109442744976
  C   0.82189756791880      0.13424138584079     -0.28873502183204
  F   -0.81100943902988     -0.59885728277945     -1.81325183957721
  H   1.16834857356708      0.72362318149303     -1.14816934651620
  C   -1.35509780986834     -1.01329437022021      0.42883301956430
  H   -1.26130472016382     -0.68738152715687      1.46678665528459
  H   -2.41787104533020     -1.08253190946680      0.18626290601959
  H   -0.92223866793763     -2.00930067368694      0.33102949327116
  C   -1.42016717302418      1.28746573864344     -0.56879643523433
  H   -1.51981379869556      1.72759520257309      0.42481096728465
  H   -2.42088900066693      1.12442789840237     -0.97444472053320
  H   -0.89703144277791      1.99398230665484     -1.21798056332849
  C   1.56618638010591     -1.19979403629995     -0.30673368607620
  H   1.26581347368756     -1.80549802380300     -1.16295368483727
  H   1.38339722852716     -1.77166482331898      0.60710426808275
  H   2.64352575767962     -1.02695041664706     -0.37424581162316
  C   1.14250963461146      0.91440994532040      0.98512074855677
  H   2.22566577146510      1.00377127970514      1.10232143583256
  H   0.76137062144514      0.40178655870268      1.87287241526320
  H   0.73029574326191      1.92499458946338      0.96926362784829
