20
Coordinates from ORCA-job run
  C   -0.66854747532230     -0.00784761131721     -0.35380634046165
  C   0.65397784278357      0.01538773859057      0.42951528449882
  F   -0.34485381911344     -0.14476613455752     -1.72266188763814
  H   0.38152213312766      0.12213718078056      1.48854801019943
  C   -1.53909312890547     -1.20137905936168     -0.00019962290828
  H   -1.05112641167199     -2.13425146485930     -0.28132640983936
  H   -1.75095924283478     -1.22276305947862      1.07208573837842
  H   -2.48624796213448     -1.14176736107546     -0.54052710140147
  C   -1.44804150810169      1.28981210278893     -0.22784571310152
  H   -2.40052660131356      1.20213941173778     -0.75481375473542
  H   -1.65080227981711      1.52015867550656      0.82142426682816
  H   -0.89564962178250      2.11859992453896     -0.66985115402777
  C   1.52959631146385      1.20561667822135      0.03326449529689
  H   2.49818089924822      1.14380440285610      0.53537930495178
  H   1.08227621922468      2.16293070347064      0.30563893114990
  H   1.70663744511619      1.20234436602325     -1.04473578789573
  C   1.43845903527317     -1.28713570385733      0.26106827119317
  H   0.92477556628014     -2.14438039999958      0.69923842306731
  H   1.60815652412717     -1.49186517989024     -0.79852013088565
  H   2.41226607435268     -1.20577521011777      0.75012517733112
