18

C	-0.365151	-0.156044	-1.479276
C	0.0	0.0	0.0
Br	0.16077	1.635015	-2.401102
H	1.095611	0.0	0.0
C	0.549572	-1.172529	-2.123716
H	0.253198	-2.170158	-1.784222
H	0.500404	-1.144712	-3.215098
H	1.563232	-0.955077	-1.764486
N	-1.750349	-0.375923	-1.646449
H	-2.233656	0.353971	-1.127831
H	-2.025124	-0.347085	-2.619681
N	-0.403418	-1.19884	0.737882
H	-1.183067	-1.658655	0.278944
H	0.396398	-1.821105	0.757488
N	-0.718957	1.145291	0.572963
H	-0.76966	0.948837	1.565922
H	-0.134382	1.966339	0.454559
F	2.73012	0.0	0.0
