18

C	-0.095393	0.02026	-1.514511
C	0.0	0.0	0.0
Br	-2.045703	-0.130124	-2.081363
H	1.104757	0.0	0.0
C	0.474009	1.306966	-2.06725
H	-0.097342	2.172339	-1.73833
H	1.485158	1.360715	-1.645672
H	0.515965	1.254865	-3.156619
N	0.624199	-1.099731	-2.078779
H	0.303664	-1.912098	-1.55687
H	1.575798	-0.932944	-1.722138
N	-0.444681	-1.286748	0.529523
H	-1.433208	-1.248085	0.76118
H	0.08179	-1.482372	1.373605
N	-0.537684	1.200192	0.613893
H	-0.138966	1.293155	1.540955
H	-1.546683	1.115392	0.704754
F	2.70339	0.0	0.0
