18

C	-0.070719	0.01428	-1.52347
C	0.0	0.0	0.0
Br	-1.953397	-0.222379	-2.187134
H	1.105243	0.0	0.0
C	0.484996	1.313917	-2.073061
H	0.588486	1.235426	-3.15627
H	1.474958	1.418468	-1.611838
H	-0.149433	2.169422	-1.834268
N	0.735282	-1.074474	-2.042483
H	0.398086	-1.907822	-1.566533
H	1.654357	-0.88734	-1.610294
N	-0.500912	-1.244593	0.53625
H	-1.489083	-1.134788	0.745061
H	-0.000656	-1.461187	1.390411
N	-0.626575	1.162177	0.649085
H	-0.145765	1.994363	0.320037
H	-0.373029	1.091048	1.631569
F	2.74088	0.0	0.0
