17

C	-0.408274	-0.004709	-1.491708
C	0.0	0.0	0.0
Br	0.175488	-1.69676	-2.31869
H	1.097189	0.0	0.0
C	-1.86259	0.039664	-1.642977
N	-3.032305	0.103481	-1.750206
C	0.277747	1.13616	-2.23813
H	0.059496	1.084259	-3.305956
H	1.354343	1.054323	-2.066541
H	-0.078264	2.092157	-1.845048
C	-0.52666	-1.167696	0.830654
H	-1.618481	-1.229377	0.793896
H	-0.215503	-1.031178	1.868201
H	-0.095213	-2.100994	0.469994
C	-0.459324	1.265521	0.574921
N	-0.857063	2.266762	1.045647
Br	3.462259	0.0	0.0
