17

C	-0.517622	-0.210904	-1.438068
C	0.0	0.0	0.0
Br	0.311958	1.126103	-2.618932
H	1.107187	0.0	0.0
C	-0.115999	-1.527751	-1.930649
N	0.099634	-2.612742	-2.329112
C	-2.03423	-0.071734	-1.570216
H	-2.340262	0.924063	-1.246306
H	-2.5314	-0.822833	-0.950851
H	-2.33673	-0.217325	-2.608143
C	-0.426675	-1.124679	0.952812
H	0.035138	-0.93979	1.924408
H	-0.047867	-2.080212	0.585428
H	-1.510062	-1.183649	1.085608
C	-0.476945	1.286178	0.500126
N	-0.912389	2.290405	0.928536
Br	3.436238	0.0	0.0
