17

C	-0.254155	0.027287	-1.523761
C	0.0	0.0	0.0
Cl	0.250693	-1.560834	-2.224901
H	1.096743	0.0	0.0
C	-1.671282	0.185055	-1.861662
N	-2.808465	0.33051	-2.124272
C	0.638453	1.101673	-2.138196
H	1.634614	0.915029	-1.717775
H	0.635511	1.041561	-3.227741
H	0.287822	2.0896	-1.827028
C	-0.592578	-1.183274	0.751791
H	-0.397935	-1.058555	1.819672
H	-1.674984	-1.276542	0.604549
H	-0.103773	-2.10257	0.429137
C	-0.47559	1.256667	0.555361
N	-0.865739	2.261727	1.027175
F	2.589758	0.0	0.0
