17

C	-0.252461	0.029222	-1.524034
C	0.0	0.0	0.0
Cl	0.239157	-1.564099	-2.223974
H	1.09672	0.0	0.0
C	-1.666939	0.201281	-1.865204
N	-2.803394	0.361953	-2.122022
C	0.649124	1.096307	-2.137717
H	1.64515	0.902602	-1.719286
H	0.307063	2.085518	-1.823311
H	0.640812	1.038772	-3.227789
C	-0.594091	-1.183205	0.751204
H	-0.404072	-1.056762	1.819384
H	-0.103041	-2.102157	0.432117
H	-1.675481	-1.277956	0.599797
C	-0.473631	1.257668	0.55543
N	-0.861712	2.263742	1.026986
F	2.591143	0.0	0.0
