17

C	-0.222854	-0.106129	-1.511658
C	0.0	0.0	0.0
Cl	-1.953974	-0.515609	-1.953265
H	1.098077	0.0	0.0
C	0.046375	1.186435	-2.146403
N	0.278083	2.216337	-2.662887
C	0.720597	-1.155638	-2.093004
H	1.70307	-0.933969	-1.652616
H	0.394868	-2.152391	-1.79194
H	0.735871	-1.105221	-3.182753
C	-0.403354	-1.249602	0.779888
H	0.224138	-2.085986	0.469083
H	-0.200864	-1.076262	1.839232
H	-1.458508	-1.510197	0.659142
C	-0.595695	1.192762	0.56486
N	-1.07691	2.142295	1.065744
F	2.582554	0.0	0.0
