17

C	-0.251111	0.024712	-1.525169
C	0.0	0.0	0.0
Cl	0.224658	-1.578798	-2.216551
H	1.096789	0.0	0.0
C	-1.663908	0.209494	-1.87043
N	-2.799313	0.376821	-2.131834
C	0.665622	1.078737	-2.143471
H	0.660011	1.015202	-3.231819
H	1.658553	0.874931	-1.72159
H	0.335355	2.075034	-1.835429
C	-0.600447	-1.177504	0.754589
H	-1.681829	-1.269912	0.600017
H	-0.413391	-1.046827	1.822747
H	-0.111922	-2.099138	0.440133
C	-0.471948	1.260931	0.54888
N	-0.86232	2.267299	1.017124
F	2.5923	0.0	0.0
