17

C	-0.213494	0.110267	-1.50933
C	0.0	0.0	0.0
Cl	-1.958409	-0.118751	-2.00788
H	1.103492	0.0	0.0
C	0.173921	1.442967	-1.981586
N	0.52404	2.47041	-2.431974
C	0.670583	-0.911608	-2.219744
H	1.658089	-0.797319	-1.754902
H	0.700713	-0.71904	-3.292908
H	0.285058	-1.918831	-2.051457
C	-0.437522	-1.332318	0.603445
H	-1.496705	-1.5478	0.43981
H	0.16924	-2.137842	0.188011
H	-0.24472	-1.307985	1.676533
C	-0.550766	1.116095	0.738169
N	-0.970339	1.98411	1.414571
F	2.574931	0.0	0.0
