17

C	-0.252374	0.062079	-1.524221
C	0.0	0.0	0.0
Cl	0.212676	-1.523652	-2.256553
H	1.103098	0.0	0.0
C	-1.665377	0.264003	-1.860404
N	-2.801793	0.450419	-2.099629
C	0.662538	1.129285	-2.118935
H	1.657708	0.915934	-1.707619
H	0.334502	2.11652	-1.78301
H	0.64873	1.094938	-3.210011
C	-0.598152	-1.197497	0.725041
H	-0.092101	-2.107739	0.405143
H	-1.674972	-1.300882	0.54936
H	-0.43336	-1.083209	1.798395
C	-0.471551	1.247525	0.579515
N	-0.857107	2.246613	1.068515
F	2.591804	0.0	0.0
