17

C	-0.211379	-0.023346	-1.514032
C	0.0	0.0	0.0
Cl	-1.94824	-0.342651	-1.994315
H	1.10637	0.0	0.0
C	0.119413	1.286695	-2.080068
N	0.414585	2.315396	-2.566078
C	0.698719	-1.074685	-2.141548
H	1.684281	-0.902731	-1.690231
H	0.720853	-0.970267	-3.226716
H	0.340217	-2.073275	-1.888725
C	-0.419875	-1.282096	0.71326
H	-0.257936	-1.153535	1.785287
H	0.224512	-2.099967	0.390066
H	-1.467343	-1.544589	0.544484
C	-0.566968	1.17998	0.619179
N	-1.000427	2.12965	1.161239
F	2.57916	0.0	0.0
