17

C	-0.355944	-0.004421	-1.492787
C	0.0	0.0	0.0
Cl	0.133318	1.578148	-2.215087
H	1.105962	0.0	0.0
C	0.439279	-1.038168	-2.168593
N	0.974911	-1.904971	-2.753509
C	-1.832953	-0.212777	-1.808159
H	-2.160049	-1.179569	-1.418396
H	-2.006268	-0.190546	-2.885941
H	-2.412913	0.581743	-1.334362
C	-0.320458	-1.336197	0.678218
H	0.097536	-1.304435	1.686531
H	0.20206	-2.135277	0.146736
H	-1.388026	-1.572978	0.746883
C	-0.646994	1.096033	0.679987
N	-1.208966	1.952714	1.260799
F	2.515016	0.0	0.0
