17

C	-0.430976	0.195849	-1.45805
C	0.0	0.0	0.0
Cl	0.230791	1.76735	-2.055096
H	1.107563	0.0	0.0
C	0.161148	-0.860637	-2.286719
N	0.53794	-1.73294	-2.978146
C	-1.939598	0.221281	-1.686452
H	-2.376484	1.025303	-1.090963
H	-2.376133	-0.732346	-1.379801
H	-2.167995	0.391445	-2.740517
C	-0.361818	-1.385115	0.543008
H	0.050609	-1.464863	1.55077
H	-1.437658	-1.590652	0.589102
H	0.132932	-2.146558	-0.063929
C	-0.569114	1.040579	0.827891
N	-1.055285	1.855104	1.525937
F	2.517096	0.0	0.0
