15
Coordinates from ORCA-job run
  C   0.67672175730355     -0.58711942890051     -0.28990640423030
  C   -0.60448260829550     -0.10127861244131      0.34320132092051
  H   0.81719507989632     -1.62048767090397      0.03425266852300
  H   -0.57614551657323     -0.09442546467991      1.43286094281826
  H   0.54742315778874     -0.58519442759060     -1.37453784231735
  C   1.86646966360888      0.27679624851744      0.11675942296813
  H   2.78849786644827     -0.14131058613122     -0.29024405718268
  H   1.97277300647390      0.32268258601856      1.20362185870399
  H   1.76795576527714      1.29362821581990     -0.26621228352398
  N   -1.76393483561206     -0.99321288927621     -0.03619447781838
  O   -2.69420459135657     -0.51088208460955     -0.66845013046758
  O   -1.65086271798877     -2.15255782148279      0.34320103942623
  N   -0.95645434143487      1.29030432129747     -0.08106055159056
  O   -0.72078885191395      1.59942943310519     -1.24418939446320
  O   -1.46916283362186      2.00262818125750      0.77889788823391
