15
Coordinates from ORCA-job run
  C   0.66798257209652     -0.60967080922191      0.26267997307900
  C   -0.62436064075999     -0.08144571986382     -0.31106277164806
  H   0.59381658443975     -0.59214431338045      1.35233154769719
  H   -0.65088762642659     -0.08633836651615     -1.40077772154117
  H   0.75285275345580     -1.65078813136768     -0.05596361339922
  C   1.86737326374473      0.20410187294830     -0.21320992998442
  H   1.92027135508509      0.23521807775723     -1.30449716506541
  H   2.79237325996245     -0.24493266987000      0.15195212032128
  H   1.82671342805179      1.22766238087141      0.16227485315736
  N   -0.90178974824827      1.32665187400765      0.11400030682049
  O   -0.59607235819806      1.63797102799658      1.26011699998502
  O   -1.43022047498645      2.04954975250866     -0.72741862685340
  N   -1.79592669377335     -0.92467689561543      0.13637998806208
  O   -1.74601268780199     -2.09110176155934     -0.23479402816535
  O   -2.67411298664140     -0.40105631869505      0.80898806753461
