15
Coordinates from ORCA-job run
  C   0.60957837160107     -0.28848601996375     -0.83847680370704
  C   -0.81398392770544     -0.01015661215003     -0.40269132641942
  H   0.60151590481574     -1.28162166136582     -1.29661449286755
  H   -1.55904954718180     -0.31622533323404     -1.13638163331558
  H   0.85328266900227      0.43036489159398     -1.62448899021011
  C   1.64096699992697     -0.23585850183700      0.28488505022774
  H   1.47658379963738     -1.03405981386419      1.01154700898628
  H   1.61879514473663      0.72050634010218      0.80467326483795
  H   2.63955128879766     -0.37417610002902     -0.13315108965779
  N   -1.10924029642500      1.43413492230674     -0.10691178329875
  O   -2.29254708690545      1.68388256344391      0.09958637128777
  O   -0.18057971089759      2.23527584963311     -0.10393058992990
  N   -1.11410014576155     -0.78529233123297      0.84957495560125
  O   -1.04154681011688     -0.20038135403621      1.92270167869621
  O   -1.32822665352404     -1.97890683936688      0.66967837976895
