15

C	0.0	0.0	0.0
C	-0.501829	0.006515	-1.437107
Cl	1.804383	0.0	0.0
H	-0.180153	-0.947483	-1.887469
H	-1.599149	0.013063	-1.274628
C	-0.400499	1.238965	0.677566
N	-0.648053	2.248189	1.222515
C	-0.500493	-1.222816	0.746844
H	-0.140581	-1.218945	1.779005
H	-1.598997	-1.123805	0.68084
H	-0.129676	-2.122082	0.246041
N	-0.045098	1.184539	-2.158811
H	0.86893	1.026549	-2.565756
H	-0.695684	1.400376	-2.900943
F	-2.854545	0.0	0.0
