15

C	0.0	0.0	0.0
C	-0.311995	0.21822	-1.537502
Cl	1.798054	0.0	0.0
H	0.368633	-0.471493	-2.051017
H	0.04837	1.231129	-1.759249
C	-0.423459	1.160639	0.78286
N	-0.680783	2.128437	1.397471
C	-0.611227	-1.27336	0.533027
H	-1.701491	-1.100453	0.469381
H	-0.30645	-1.457501	1.565922
H	-0.304853	-2.11684	-0.091609
N	-1.650765	0.026877	-2.016533
H	-1.771195	-0.952954	-2.247194
H	-2.355537	0.18515	-1.239636
F	-3.170949	0.0	0.0
