15

C	0.0	0.0	0.0
C	-0.489183	-0.145912	-1.454118
Cl	1.802371	0.0	0.0
H	-0.047164	0.663032	-2.045
H	-1.577419	-0.021507	-1.335943
C	-0.408161	1.30862	0.519159
N	-0.596178	2.385488	0.949426
C	-0.49117	-1.116292	0.90507
H	-0.15549	-0.947683	1.930873
H	-1.589188	-1.048926	0.809431
H	-0.085135	-2.070243	0.559469
N	-0.183674	-1.421523	-2.083836
H	0.781881	-1.677808	-1.907691
H	-0.774845	-2.13254	-1.67241
F	-2.810638	0.0	0.0
