15

C	0.0	0.0	0.0
C	-0.526642	-0.141169	-1.439286
Cl	1.802234	0.0	0.0
H	-0.068262	0.641247	-2.053408
H	-1.607813	0.027098	-1.292693
C	-0.386934	1.32097	0.510647
N	-0.590125	2.389182	0.954708
C	-0.519951	-1.08563	0.923224
H	-0.158504	-2.060178	0.585947
H	-0.174815	-0.917619	1.946263
H	-1.618178	-0.981222	0.828671
N	-0.308124	-1.439244	-2.057095
H	-0.946118	-2.101782	-1.634288
H	0.639443	-1.760825	-1.889028
F	-2.863754	0.0	0.0
