15

C	0.0	0.0	0.0
C	-0.515636	-0.179716	-1.435776
Cl	1.801324	0.0	0.0
H	-0.048221	-1.087027	-1.835886
H	-1.597624	-0.313371	-1.270314
C	-0.402988	1.310918	0.521803
N	-0.617539	2.374733	0.970789
C	-0.506514	-1.114927	0.898088
H	-1.603635	-0.999928	0.840516
H	-0.17399	-2.075659	0.494008
H	-0.122949	-1.002987	1.915388
N	-0.286879	0.934928	-2.34037
H	0.665984	1.270943	-2.25135
H	-0.906179	1.688274	-2.064995
F	-2.84569	0.0	0.0
