15

C	0.0	0.0	0.0
C	-0.344293	-0.228893	-1.525625
Cl	1.798088	0.0	0.0
H	-0.153445	-1.299851	-1.686139
H	0.418655	0.317002	-2.091216
C	-0.394018	1.360211	0.379539
N	-0.634762	2.471885	0.673123
C	-0.633021	-1.027951	0.905588
H	-1.721827	-0.875926	0.765984
H	-0.347086	-0.871105	1.948651
H	-0.323272	-2.028353	0.590833
N	-1.643687	0.137063	-2.009579
H	-1.661596	1.145472	-2.112593
H	-2.381072	-0.05835	-1.274782
F	-3.196937	0.0	0.0
