14
Coordinates from ORCA-job run
  C   -0.44481532162492     -0.22526952275126      0.43589198845117
  C   0.96555387827024      0.35421638524171      0.19151058178005
  Br  -0.65604123740066     -0.67029767030270      2.30682980519719
  H   1.08774556580870      1.23309810917719      0.83111398120253
  N   -1.44138726996001      0.96486097612826      0.19491193468418
  O   -2.49989163777502      0.66740671891030     -0.34014236921473
  O   -1.08639936137785      2.07536072518153      0.56761119342323
  N   -0.69672929419371     -1.34210072753080     -0.36415994546185
  H   -1.60465785649235     -1.74794265891546     -0.17943655755336
  H   -0.60902649967548     -1.12802471391068     -1.35217478596631
  C   1.06167544990522      0.77515795883232     -1.21120202746835
  N   1.08135524670633      1.08327902696472     -2.34463948572478
  C   1.99511751312867     -0.63703170254859      0.50525991959195
  N   2.84850082468083     -1.40271290447653      0.75762576705907
