14
Coordinates from ORCA-job run
  C   -0.51557051436244     -0.09968881217825      0.39711766837748
  C   0.83527896048421      0.10619579259925     -0.36093026084594
  Br  -0.25376817152139      0.16277284170408      2.27725239154528
  H   0.60002720012219     -0.00195766224920     -1.42756029566220
  N   -1.45345766538263      0.97439493182662     -0.19475380716428
  O   -1.63876154627921      0.81412045890422     -1.39951439878868
  O   -1.92445416741600      1.84474706510010      0.51339168124729
  N   -1.16248868884573     -1.34212247810248      0.16658231385822
  H   -1.24575945230381     -1.53973822836819     -0.82387712592780
  H   -0.71161822604403     -2.10220930118933      0.65821544888254
  C   1.77060920394398     -0.94980235574591      0.02245297890961
  N   2.48504103320506     -1.83368105254227      0.31820558945620
  C   1.39491784955567      1.44108288698485     -0.14908121829928
  N   1.81900418484413      2.52588591325652      0.00249903441155
