14
Coordinates from ORCA-job run
  C   -0.58150864749939     -0.15815229892454      0.40003476496175
  C   0.87608376535510      0.40742534492802      0.29593034125584
  Br  -0.97499287749868     -0.41921902098618      2.27962703294165
  H   0.95180511352633      1.30581089793518      0.91649040874979
  N   -1.46396615904968      0.99600153996154     -0.12453785126196
  O   -2.20638113367467      0.74644795089572     -1.06247887050944
  O   -1.29818137965990      2.07804652876804      0.42239424735223
  N   -0.88617025094221     -1.32349973454572     -0.31687355971449
  H   -0.36667782690557     -2.12875807956652      0.00495311365873
  H   -0.83468064337631     -1.20063438248566     -1.32027963712846
  C   1.13284048981974      0.75442051552481     -1.10470318904523
  N   1.27240034901654      1.00894824941756     -2.24313466169251
  C   1.82215089182311     -0.60997677854296      0.75086902702892
  N   2.55627830906558     -1.45686073237931      1.10170883340316
