14
Coordinates from ORCA-job run
  C   -0.47819033063797     -0.05980270544628      0.43644954063555
  C   1.02600589628060     -0.03453221614272      0.09613695101153
  Br  -0.72679334454141      0.92601936352654      2.14955368772274
  H   1.50832119212091     -0.66545296912018      0.85521929142516
  N   -1.28174355411116      0.72962406578156     -0.59687662989719
  O   -2.48468831561278      0.51002322166061     -0.60985635641032
  O   -0.66207566201764      1.50974591343683     -1.30614381960895
  N   -0.96583430852957     -1.36904470299710      0.41463823381858
  H   -1.97743614225345     -1.38872816100238      0.46972662822634
  H   -0.55490585544897     -1.95119617027421      1.13282184929933
  C   1.65184454338339      1.28759170147995      0.17426562443339
  N   2.22687389284764      2.30755753634196      0.25848041323646
  C   1.25504766123805     -0.64805991711646     -1.21717573620877
  N   1.46157432728237     -1.15174496012812     -2.25723967768387
