14
Coordinates from ORCA-job run
  C   -0.54286288581656     -0.16164085436469      0.44948038022316
  C   0.91585690436963      0.36270241006795      0.22320242616089
  Br  -0.75119677448580     -0.51166332164545      2.34442187625416
  H   1.08715170052472      1.22365346239885      0.87697755044108
  N   -1.43156569639999      1.04620064338565      0.07975318056019
  O   -1.17075930876160      2.09136913101742      0.66023674238342
  O   -2.27569328543491      0.87134598531313     -0.78637050820105
  N   -0.96248764084834     -1.27631645972462     -0.28971519485538
  H   -0.44165175612197     -2.11321084028248     -0.06544938967409
  H   -1.00978389389095     -1.10061955085688     -1.28543109375697
  C   1.04149980824689      0.77733688310966     -1.17695892170709
  N   1.07406382171301      1.09001145882807     -2.30900196339422
  C   1.86635868680510     -0.70589686145518      0.52583929362213
  N   2.60107032010076     -1.59327208579143      0.75401562194376
