14
Coordinates from ORCA-job run
  C   -0.43227110683638     -0.17168817031880      0.40707122935334
  C   0.87954731118346      0.05453238527118     -0.38346681801155
  Br  -0.16313494868674      0.07796094800675      2.28674973261750
  H   0.63306891348532     -0.10615337698543     -1.44137157079307
  N   -1.39680412113536      0.94145799680609     -0.14295522221397
  O   -1.64306649576115      0.78292102930469     -1.33771644747442
  O   -1.82113294768261      1.82279083138729      0.58289894821429
  N   -0.91922363296591     -1.46857750442824      0.14187381562940
  H   -1.67828449121826     -1.72930609249983      0.75819034231987
  H   -1.19966756652264     -1.55835649971517     -0.82869157528732
  C   1.89488630664521     -0.91852538550441      0.01882278948282
  N   2.73104255051440     -1.68724713602610      0.31533064424956
  C   1.36747857214486      1.42768137896191     -0.23792005237140
  N   1.74756165683575      2.53450959574006     -0.14081581571509
