14
Coordinates from ORCA-job run
  C   -0.50976234435857     -0.08520016479823      0.40764579743404
  C   0.83060936004564      0.08764818972968     -0.37706296402734
  Br  -0.21032454138807      0.20087959199601      2.27863209470758
  H   0.57437305696781     -0.03234097749859     -1.43756678665434
  N   -1.44069705745918      0.99503277063459     -0.18416657938816
  O   -1.65137672089530      0.81879524906667     -1.38241560006826
  O   -1.88432538956232      1.88409095205246      0.51850779045647
  N   -1.18034820937866     -1.32013714008388      0.20732185260615
  H   -1.28633079219887     -1.53045987461200     -0.77826597515557
  H   -0.73309003801362     -2.08036713374838      0.70194538361419
  C   1.75532889972517     -0.97815140931244      0.00504006440637
  N   2.46023333590952     -1.86981897206110      0.30059945490226
  C   1.41575203859954      1.41585296380560     -0.19485466371183
  N   1.86095476865669      2.49517532615279     -0.06635988351611
