14
Coordinates from ORCA-job run
  C   -0.47752005393555     -0.06305180371768      0.27751325782015
  C   0.87432172795187      0.10520244591741     -0.45041804078166
  Br  -0.25514004265671      0.44782848301042      2.18170497353502
  H   0.65753098072476      0.02524547435458     -1.52240237058248
  N   -1.49141332723730      0.92692020200772     -0.29966296581347
  O   -1.07342966465426      1.76925581423439     -1.08412585427805
  O   -2.64650553039767      0.76708284819144      0.06555793416119
  N   -1.00975922056411     -1.33889625543702      0.04330292094846
  H   -0.43181617439218     -2.07456943472312      0.43248616332199
  H   -1.95468374122987     -1.40668466636519      0.40431863540767
  C   1.74890959209438     -1.00664657498413     -0.06674502133928
  N   2.40813187147475     -1.93036378343620      0.23565964633560
  C   1.53603145725481      1.38603909342473     -0.19733721772598
  N   2.11434212556706      2.39163815752269     -0.01785206100914
