14
Coordinates from ORCA-job run
  C   -0.51565749856614     -0.11712943218330      0.31570318465928
  C   0.91435473338299      0.45242923394947      0.21778877175581
  Br  -0.96655603167634     -0.21450298401709      2.26609766891426
  H   0.96495304239338      1.36933358449880      0.81131775296594
  N   -1.49682313008979      0.92140642502050     -0.23136960962233
  O   -2.55436978498147      0.48572116894421     -0.66245598237580
  O   -1.15356246117508      2.09323011043575     -0.15613650424887
  N   -0.66647408375191     -1.28832058193849     -0.41418352636307
  H   -1.63419456151185     -1.57420971101192     -0.49278792781923
  H   -0.07886788286886     -2.04305037825421     -0.08287970274428
  C   1.23376215761767      0.76690345394663     -1.17939222307844
  N   1.49419390784986      1.03437660078275     -2.29245603927061
  C   1.85983017029060     -0.53368750924767      0.74635203935451
  N   2.59841142308692     -1.35049998092549      1.15440209787285
