14
Coordinates from ORCA-job run
  C   -0.43459183133651     -0.21388574582314      0.45083020709151
  C   0.97756904648579      0.33860636086195      0.15883905253956
  Br  -0.59552094442944     -0.64247593233043      2.33074356572072
  H   1.13564411359228      1.21863546337271      0.78889914631235
  N   -1.41711595755876      0.99191369041628      0.23255794220812
  O   -2.49687311932814      0.70995100121926     -0.26740467084483
  O   -1.03200851590656      2.09824415247116      0.58773946560837
  N   -0.73087152151275     -1.33141868297917     -0.33276404650381
  H   -0.67075589739109     -1.12581888153302     -1.32462924389741
  H   -1.63922179086624     -1.72049378131421     -0.11636835257846
  C   1.03707006481713      0.74974676700591     -1.24877327609320
  N   1.02754784499549      1.04803809886871     -2.38496550762493
  C   1.99776517307098     -0.66997782703215      0.44689581889486
  N   2.84336333536782     -1.45006468320394      0.68039989916718
