14
Coordinates from ORCA-job run
  C   -0.46482388064951     -0.13402550627199      0.50187955437984
  C   1.04071808829528      0.04851507097936      0.20830690347780
  Br  -0.87787422267040      0.59899162565361      2.24301464317043
  H   1.54173493547539     -0.59081832793733      0.94558437795551
  N   -1.29567711170693      0.70773903081202     -0.51184172035149
  O   -0.70823143300280      1.57018857933707     -1.15324173886099
  O   -2.47937203133443      0.40863074368141     -0.58503936350388
  N   -0.80214773882661     -1.50118037961570      0.46445265483433
  H   -1.77494170078495     -1.64045974258024      0.70956414517103
  H   -0.62327690349168     -1.89958881531161     -0.45263709305214
  C   1.54576234725570      1.41154025794240      0.37588099094767
  N   2.02159768464463      2.46925382731439      0.55708622395621
  C   1.33922480577024     -0.47935847874536     -1.12762009292277
  N   1.53730716102610     -0.96942788525800     -2.17638948520153
