14
Coordinates from ORCA-job run
  C   -0.52462245522822     -0.15301986408532      0.28317275466091
  C   0.90505740142350      0.42523649454445      0.29852380488435
  Br  -1.03708658968827     -0.47671410821888      2.19388673837682
  H   0.93261671524009      1.26763182569450      0.99497266778090
  N   -1.49280348325162      0.94104686387932     -0.17067273130358
  O   -2.53378858990825      0.55732416085482     -0.68353954299768
  O   -1.15801973980197      2.09647161237632      0.05216406411442
  N   -0.64673835236036     -1.23177907087611     -0.58186199908349
  H   -1.61004281146292     -1.50775223270554     -0.72401964665060
  H   -0.06564132351097     -2.01886808383800     -0.32221408284569
  C   1.26755479414886      0.89859361896313     -1.04242713016673
  N   1.55986293222480      1.29177763105720     -2.10934536885707
  C   1.83749050950850     -0.61504767655654      0.73939518355795
  N   2.56616099266677     -1.47390117108937      1.07196528852950
