14
Coordinates from ORCA-job run
  C   -0.45992892927378     -0.20740054378340      0.48146096256158
  C   1.04607881625579     -0.03842541533644      0.18229155211718
  Br  -0.79917579390593      0.19579836460443      2.34184437217790
  H   1.53112068644166     -0.82872051081938      0.76827893249941
  N   -1.26997711903057      0.84900751128024     -0.32785911073596
  O   -0.65521897026066      1.79323799400008     -0.80833892798487
  O   -2.46791565236872      0.62088878134229     -0.42237760210271
  N   -0.86440947032115     -1.52570984280718      0.19441511146731
  H   -0.72568980645014     -1.74834388369261     -0.78683917212452
  H   -1.83667801193646     -1.66800509892152      0.43957299496326
  C   1.62131768179155      1.24348672253702      0.59119656186223
  N   2.15451689220428      2.22454618173766      0.95343205888177
  C   1.28910429083510     -0.31156155243638     -1.23849348881906
  N   1.43585538601904     -0.59579870770480     -2.36858424476350
