14
Coordinates from ORCA-job run
  C   -0.51825350806574     -0.19322227696035      0.34125968081886
  C   1.01115450303885     -0.05928850643640      0.19279792886450
  Br  -0.97929295069979      0.21481872917582      2.23626584903523
  H   1.43490083499614     -0.89332690868654      0.76877243379704
  N   -1.23860041379099      0.87441940836654     -0.48149684777452
  O   -2.42368923977021      0.66438800450269     -0.69797330496849
  O   -0.57901559200684      1.84053331744416     -0.83834342757804
  N   -0.95211439538805     -1.43347451446874     -0.13375984464893
  H   -0.59959341916503     -2.20691634001389      0.41492816583488
  H   -1.96228493263523     -1.47123364654703     -0.20304786183981
  C   1.57754445380302      1.17481042095646      0.74204713423712
  N   2.10520923082527      2.11877132270550      1.19876494164316
  C   1.39668098827379     -0.23627045272284     -1.21201650226115
  N   1.72734592503250     -0.39500881521921     -2.32719717934577
