14
Coordinates from ORCA-job run
  C   -0.57162776552359      0.12942098121785      0.42444784488830
  C   0.81362835006108      0.57797975187986     -0.15345549211500
  Br  -0.98986908569206      1.29776429235853      1.91340935593236
  H   0.76592587147713      1.64380521761723     -0.39767834635098
  N   -1.56412628093226      0.42922526107083     -0.72063661441665
  O   -2.24360328962969     -0.50203580473324     -1.12595573048169
  O   -1.54087770693262      1.57333651219106     -1.15402624389311
  N   -0.71910232659061     -1.20931292720415      0.81239001802598
  H   -0.11632784380811     -1.46317767193592      1.58310188740675
  H   -0.65958191112439     -1.85870447055289      0.03843699479864
  C   1.07330669925386     -0.19455526407918     -1.37173015805509
  N   1.22213340945696     -0.84705215460216     -2.33732057058935
  C   1.85693319546332      0.32762817629666      0.83952743096491
  N   2.67418868452097      0.09567810047556      1.65048962388490
