14
Coordinates from ORCA-job run
  C   -0.41602176312674     -0.04043381168890      0.55813165350124
  C   1.05742125088770      0.02244675890207      0.09857585370482
  Br  -0.62047620404611      0.94339873177483      2.21040306914619
  H   1.60617689100903     -0.53677062357472      0.86630417751915
  N   -1.31388198402932      0.69722439877138     -0.47903341232156
  O   -0.76349211012688      1.43609772877514     -1.28608227023593
  O   -2.50897940281772      0.45050997696517     -0.39671885331621
  N   -0.80652320490032     -1.38070444591958      0.74624398203425
  H   -1.75346872440883     -1.43511493744318      1.10138500296119
  H   -0.73858718642685     -1.90872067688072     -0.11886498109061
  C   1.62928793971886      1.36710295147936      0.02411395257960
  N   2.16330974019940      2.41231772225210      0.00448381685378
  C   1.19713716473640     -0.69624151802883     -1.17281369262554
  N   1.26709759333130     -1.33311225538412     -2.15712829871040
