14
Coordinates from ORCA-job run
  C   -0.43153352354920     -0.18570711219395      0.40189157098132
  C   0.88060921466567      0.07278953688561     -0.37841379336287
  Br  -0.17280460597866      0.02718723384622      2.28743233416908
  H   0.64007475680019     -0.06783446848374     -1.44049169971950
  N   -1.40670215166692      0.92806854985799     -0.12842682931944
  O   -1.84379667011966      1.78931442893511      0.61376792494864
  O   -1.64653875239210      0.79177489956584     -1.32733118271108
  N   -0.90251614451819     -1.48186419986423      0.10721833130245
  H   -1.66037224658864     -1.76513054605616      0.71483059623216
  H   -1.17712879860724     -1.55469821091399     -0.86638769286093
  C   1.90574432663156     -0.89712988012532      0.00632711219701
  N   2.74850319981913     -1.66482642639006      0.28665297177064
  C   1.35120225671265      1.44820812079030     -0.20042323545610
  N   1.71425913879140      2.55784807414635     -0.07464640817140
