14
Coordinates from ORCA-job run
  C   -0.59113401767952     -0.13560219695191      0.47668514832366
  C   0.95858992428210     -0.00475482302461      0.26268876270365
  Br  -0.96320565863044      0.34003727295734      2.30612617894539
  H   1.41720081264394     -0.64570069557604      1.02566230853373
  N   -1.23239042416125      0.88063933862594     -0.48750583823673
  O   -1.43494362205183      2.01870711314745     -0.09698854413497
  O   -1.41563640451672      0.43894608472909     -1.61793236364651
  N   -1.15446911113398     -1.39854751060127      0.18550502830254
  H   -1.00266254678633     -1.66962706071582     -0.77856031464338
  H   -0.85664123632485     -2.11304681226956      0.83484857415340
  C   1.45555587800090      1.35981518020933      0.44636151318640
  N   1.86682050720132      2.45023781710421      0.59376876448361
  C   1.33195219724743     -0.52760643583183     -1.05503812009298
  N   1.61996370190935     -0.99049727180221     -2.09562109787776
