14
Coordinates from ORCA-job run
  C   -0.43340998072931     -0.17058494077370      0.40505544405176
  C   0.88397676097708      0.06082567489689     -0.37473347439000
  Br  -0.19000938986757      0.11994304969832      2.28238480624760
  H   0.65235452770816     -0.12396110758390     -1.43203448091322
  N   -1.40883784535897      0.91650170284850     -0.17711018616038
  O   -1.85782851238331      1.80312318103558      0.52700911715719
  O   -1.63669274689819      0.73221008158259     -1.37196481301636
  N   -0.89784847870856     -1.47958556472628      0.16008581314588
  H   -1.66093577440468     -1.73912993836399      0.77191908355322
  H   -1.16402193492979     -1.59326227864012     -0.81194464757584
  C   1.90922576408522     -0.88874822228752      0.05749519580346
  N   2.75214854076222     -1.64105068531509      0.37656663623351
  C   1.34793553211356      1.44412033097321     -0.24914265229841
  N   1.70494353763414      2.55959871665549     -0.16458584183838
