14
Coordinates from ORCA-job run
  C   -0.50966545615659     -0.11008069347822      0.32795045458366
  C   0.92947839056981      0.42990342015864      0.20035124075045
  Br  -0.91181535140622     -0.22522873531618      2.28799187504692
  H   1.01563866875773      1.33702679777772      0.80458401425055
  N   -1.48172963317137      0.95701712791545     -0.17905035023950
  O   -2.55922011233034      0.55033137286480     -0.58842822973499
  O   -1.11109967033214      2.12000301055834     -0.09660932264705
  N   -0.70498427005446     -1.26725026930153     -0.41354131585674
  H   -1.68018242157939     -1.53215458069006     -0.46964275152203
  H   -0.12415351846376     -2.03848536453558     -0.10948105768221
  C   1.21933890541065      0.75633062074848     -1.20058339353417
  N   1.45532305638862      1.03115368928562     -2.31737739915373
  C   1.86617851275087     -0.58449854486421      0.68980952880764
  N   2.59589289961665     -1.42506785112330      1.06402670693118
