14
Coordinates from ORCA-job run
  C   -0.54959280284582     -0.15208468508197      0.44583414498549
  C   0.91970554431034      0.34742572931007      0.22921954573623
  Br  -0.77592539966976     -0.50207205967491      2.33774407998791
  H   1.10112653169472      1.20449055704420      0.88538911152498
  N   -1.41352800782253      1.07275828905379      0.07096865551091
  O   -2.25080341587091      0.91504962924429     -0.80520096434582
  O   -1.13982153105111      2.11220524320906      0.65587107179374
  N   -0.98432004988845     -1.25774665785197     -0.29822854231611
  H   -1.01246423968950     -1.08273496368586     -1.29473532657644
  H   -0.48685481443930     -2.10626546803315     -0.06516254408808
  C   1.06167639824785      0.75953774209307     -1.17016833796080
  N   1.10938883327500      1.05634017446470     -2.30595555467545
  C   1.85060058589071     -0.73684262314638      0.53707120656843
  N   2.57181236785880     -1.63206090694496      0.77735345385497
