14
Coordinates from ORCA-job run
  C   -0.53161786911162     -0.09342419360900      0.33137200177354
  C   0.86094926800728      0.16758409088821     -0.32739525547056
  Br  -0.39891494089871      0.27283829101893      2.23409427031707
  H   0.70599833373843      0.14366780078907     -1.41304720692621
  N   -1.53208903346254      0.90902729800221     -0.27552652710468
  O   -1.07576951052649      1.73283700069252     -1.06378732688214
  O   -2.69583079280575      0.78332119956008      0.06590573102132
  N   -1.08144509301916     -1.37709735032936      0.12993241345563
  H   -1.39263614581906     -1.53212180781444     -0.82126006076255
  H   -0.47880868921586     -2.12263280850066      0.45283111374796
  C   1.74523104688583     -0.94120268641090      0.04035356477218
  N   2.41193258050722     -1.86174076402921      0.33605445995789
  C   1.47184626018651      1.45053488549538      0.02049849386480
  N   1.99215458553392      2.46840904424718      0.28897432823577
