19

C	0.0	0.0	0.0
C	-0.3372	0.222694	-1.516371
Cl	1.843222	0.0	0.0
H	0.574362	0.639582	-1.947108
N	-0.20426	1.362457	0.802276
O	-0.626374	1.262214	1.94982
O	0.120856	2.41391	0.263059
N	-0.645077	-1.043778	0.602299
H	-1.701133	-0.76066	0.409468
H	-0.467302	-1.020547	1.60052
C	-1.459695	1.181551	-1.926556
H	-2.416783	0.803223	-1.571594
H	-1.428156	1.258258	-3.020667
H	-1.298491	2.178517	-1.518416
C	-0.574219	-1.151015	-2.142051
H	0.22878	-1.851935	-1.902931
H	-1.514455	-1.551727	-1.764194
H	-0.639551	-1.046454	-3.230061
F	-2.868122	0.0	0.0
