19

C	0.0	0.0	0.0
C	-0.417126	0.356504	-1.479743
Cl	1.771645	0.0	0.0
H	0.515007	0.619872	-1.985715
N	-0.239874	1.277814	0.947627
O	-0.751076	1.058162	2.040107
O	0.155968	2.374342	0.567486
N	-0.63651	-1.106476	0.516741
H	-1.676251	-0.831301	0.393054
H	-0.425934	-1.189485	1.504766
C	-1.377934	1.535538	-1.678466
H	-0.899815	2.489979	-1.462218
H	-2.255947	1.366948	-1.051891
H	-1.681426	1.539125	-2.732155
C	-0.991461	-0.88899	-2.156347
H	-1.974383	-1.073977	-1.724394
H	-1.093353	-0.69321	-3.229571
H	-0.355031	-1.764786	-2.016921
F	-2.906879	0.0	0.0
