19

C	0.0	0.0	0.0
C	-0.494979	0.231409	-1.452121
Cl	1.764548	0.0	0.0
H	-1.500786	0.62634	-1.284111
N	-0.356679	1.264286	0.845227
O	-0.518342	2.321511	0.246385
O	-0.380716	1.136824	2.059572
N	-0.561801	-1.081025	0.704523
H	-1.601816	-0.865208	0.566523
H	-0.310288	-1.937304	0.224778
C	-0.680992	-1.116135	-2.143336
H	0.229209	-1.727526	-2.113371
H	-0.934818	-0.951012	-3.196893
H	-1.510652	-1.645173	-1.675097
C	0.354332	1.153696	-2.32311
H	0.641808	2.06345	-1.800933
H	-0.234471	1.442176	-3.200982
H	1.260788	0.652904	-2.679294
F	-2.78586	0.0	0.0
