19

C	0.0	0.0	0.0
C	-0.296782	0.130173	-1.556205
Cl	1.771834	0.0	0.0
H	0.548969	-0.428741	-1.968023
N	-0.33477	1.269279	0.891455
O	-0.688591	1.02267	2.037682
O	-0.152083	2.39752	0.449362
N	-0.606317	-1.131022	0.520701
H	-0.403457	-1.196386	1.512517
H	-1.651696	-0.862514	0.388346
C	-0.197938	1.539477	-2.135383
H	0.717827	2.055608	-1.846746
H	-0.217315	1.452778	-3.227658
H	-1.050273	2.141714	-1.822303
C	-1.520227	-0.582917	-2.131898
H	-2.443836	-0.115116	-1.804688
H	-1.404115	-0.573649	-3.224532
H	-1.546971	-1.62142	-1.801699
F	-2.843137	0.0	0.0
