15

C	0.0	0.0	0.0
C	-0.259032	0.06398	-1.542385
F	1.351993	0.0	0.0
H	0.263514	0.967966	-1.860247
H	-0.410931	0.905174	0.475245
N	-0.602923	-1.105221	0.71273
O	-0.30725	-1.181682	1.931629
O	-1.782684	-1.373519	0.208088
N	-1.546387	0.010315	-2.155055
H	-2.0884	-0.662228	-1.617332
H	-2.006189	0.898177	-1.98903
N	0.568513	-1.039545	-2.167619
O	1.516348	-0.708841	-2.880854
O	0.218217	-2.194181	-1.946931
H	-2.911811	0.0	0.0
