15

C	0.0	0.0	0.0
C	-0.469566	0.203558	-1.446544
F	1.353468	0.0	0.0
H	-1.553496	0.333264	-1.412415
H	-0.396976	0.773165	0.676074
N	-0.569438	-1.261115	0.473004
O	-0.259084	-1.589177	1.64566
O	-1.754629	-1.44287	-0.069359
N	-0.096739	-0.847339	-2.354235
H	-0.670014	-1.637071	-2.07977
H	0.87579	-1.09116	-2.198712
N	0.083526	1.502828	-1.955437
O	1.090207	1.476267	-2.659889
O	-0.512271	2.527575	-1.614838
H	-2.833264	0.0	0.0
