15

C	0.0	0.0	0.0
C	-0.53727	0.084262	-1.447086
F	1.347222	0.0	0.0
H	0.213609	0.704723	-1.955848
H	-0.387446	0.839028	0.580723
N	-0.419862	-1.243091	0.751289
O	0.161614	-1.428663	1.820115
O	-1.29393	-1.946393	0.261716
N	-1.83158	0.529921	-1.661264
H	-1.866539	1.521259	-1.863231
H	-2.603107	0.256021	-0.915464
N	-0.296968	-1.30876	-2.12105
O	0.749401	-1.884193	-1.818392
O	-1.113128	-1.71069	-2.932286
H	-3.589859	0.0	0.0
