13

C	0.0	0.0	0.0
C	-0.255171	-0.11442	-1.523386
Br	1.96549	0.0	0.0
H	-0.098844	-1.148344	-1.833165
H	-0.295807	0.991281	0.341598
H	0.423405	0.543009	-2.066628
N	-0.578022	-0.975852	0.832395
H	-0.437374	-1.887857	0.406681
H	-1.624152	-0.693181	0.684369
N	-1.592878	0.279502	-2.071322
O	-1.832431	1.482022	-2.106357
O	-2.244038	-0.595511	-2.632096
F	-2.713757	0.0	0.0
