13

C	0.0	0.0	0.0
C	-0.514761	0.109418	-1.424325
Br	1.958729	0.0	0.0
H	-0.217608	-0.741742	-2.036623
H	-0.285231	0.904268	0.531885
H	-1.616728	0.163726	-1.243907
N	-0.54785	-1.12747	0.689145
H	-1.572681	-0.886515	0.626953
H	-0.391214	-1.957368	0.122783
N	-0.063436	1.323241	-2.132216
O	0.281251	1.213392	-3.31262
O	-0.088469	2.388358	-1.514824
F	-2.803467	0.0	0.0
