13

C	0.0	0.0	0.0
C	-0.510102	-0.016479	-1.438861
Br	1.974011	0.0	0.0
H	-0.216959	0.874315	-1.991526
H	-0.276484	0.984599	0.377939
H	-1.612801	-0.079781	-1.263546
N	-0.528024	-0.977774	0.891523
H	-1.550365	-0.749651	0.806492
H	-0.393081	-1.88827	0.466017
N	-0.038889	-1.160609	-2.241425
O	-0.117361	-2.290668	-1.753811
O	0.390642	-0.933568	-3.375809
F	-2.790847	0.0	0.0
