13

C	0.0	0.0	0.0
C	-0.525334	-0.077017	-1.431859
Br	1.950336	0.0	0.0
H	-1.627539	-0.137318	-1.241407
H	-0.287409	0.995785	0.338247
H	-0.24565	0.793738	-2.022789
N	-0.527054	-0.943948	0.935808
H	-1.548097	-0.7273	0.841856
H	-0.383673	-1.869704	0.548046
N	-0.053258	-1.247389	-2.194135
O	-0.082112	-2.353255	-1.650368
O	0.332431	-1.066736	-3.352291
F	-2.79751	0.0	0.0
