16

C	-0.398307	0.051243	-1.47559
C	0.0	0.0	0.0
F	0.009202	-1.172635	-2.032708
H	1.093735	0.0	0.0
N	-1.804082	0.234781	-1.64741
H	-2.286008	-0.589258	-1.305123
H	-1.97656	0.328812	-2.642184
N	0.307235	1.078599	-2.183499
H	1.298157	0.882598	-2.028273
H	0.114678	1.932044	-1.666864
C	-0.548903	-1.179252	0.666519
N	-1.043927	-2.091807	1.221249
N	-0.360073	1.261648	0.641695
H	-1.29884	1.236363	1.016711
H	0.304077	1.428947	1.389737
H	2.777915	0.0	0.0
