16

C	-0.404181	0.083092	-1.469499
C	0.0	0.0	0.0
F	-1.774351	0.492246	-1.504146
H	1.09337	0.0	0.0
N	0.328867	1.099176	-2.166627
H	1.313804	0.853835	-2.03507
H	0.184434	1.949526	-1.629151
N	-0.228487	-1.151219	-2.131612
H	-0.7989	-1.875198	-1.710795
H	-0.470112	-1.02809	-3.106218
C	-0.532572	-1.193201	0.65288
N	-0.987128	-2.142618	1.180071
N	-0.351009	1.248312	0.671276
H	0.339304	1.413184	1.39522
H	-1.274257	1.20572	1.081359
H	2.753017	0.0	0.0
