16

C	-0.298506	-0.02353	-1.50591
C	0.0	0.0	0.0
F	-0.012563	1.269583	-1.99885
H	1.096582	0.0	0.0
N	0.551612	-0.994724	-2.099632
H	1.502823	-0.858694	-1.736817
H	0.554576	-0.889538	-3.106198
N	-1.713852	-0.181915	-1.784356
H	-1.875125	0.002762	-2.768137
H	-1.95304	-1.148122	-1.605525
C	-0.509055	-1.229741	0.601049
N	-0.946883	-2.210481	1.079164
N	-0.505653	1.167984	0.699438
H	0.18424	1.89766	0.569653
H	-1.363424	1.464439	0.247235
H	2.792464	0.0	0.0
