16

C	-0.400387	0.034866	-1.475164
C	0.0	0.0	0.0
F	0.010252	-1.194022	-2.020067
H	1.093726	0.0	0.0
N	-1.808219	0.21216	-1.646819
H	-1.984382	0.293681	-2.64177
H	-2.287394	-0.608719	-1.292524
N	0.300681	1.057789	-2.196238
H	0.105064	1.916827	-1.69127
H	1.292385	0.869634	-2.039805
C	-0.546124	-1.174332	0.678926
N	-1.039095	-2.082361	1.24263
N	-0.364417	1.267008	0.628296
H	0.293713	1.440068	1.37953
H	-1.305927	1.245078	0.996254
H	2.77898	0.0	0.0
