16

C	-0.205474	0.158599	-1.507789
C	0.0	0.0	0.0
F	-1.5693	0.339509	-1.791197
H	1.104624	0.0	0.0
N	0.500232	1.333874	-1.91033
H	0.609733	1.287807	-2.916945
H	1.432511	1.283114	-1.489976
N	0.204595	-1.000256	-2.270769
H	1.182596	-1.164427	-2.032426
H	-0.325716	-1.808173	-1.959629
C	-0.54036	-1.270555	0.467624
N	-0.95298	-2.308556	0.8344
N	-0.470242	1.113086	0.816826
H	0.324361	1.728691	0.945935
H	-1.168348	1.626172	0.291158
H	2.731345	0.0	0.0
