19

C	0.0	0.0	0.0
C	-0.35817	-0.054382	-1.502899
F	1.398257	0.0	0.0
H	0.370274	0.649644	-1.931912
C	-0.532433	1.220875	0.711421
H	-0.247724	2.117893	0.155756
H	-1.625637	1.149	0.765131
H	-0.113772	1.274763	1.719756
C	-0.389189	-1.230718	0.715953
N	-0.590753	-2.242053	1.277959
C	-1.765894	0.41202	-1.849805
H	-1.980078	0.166023	-2.897759
H	-2.563112	-0.007035	-1.21013
H	-1.859314	1.497116	-1.740354
C	-0.058975	-1.439119	-2.074718
H	-0.070554	-1.397543	-3.167291
H	-0.819268	-2.15701	-1.756004
H	0.922035	-1.802159	-1.755931
H	-4.072148	0.0	0.0
