19

C	0.0	0.0	0.0
C	-0.370799	0.017823	-1.50268
F	1.398532	0.0	0.0
H	0.405897	0.676174	-1.916528
C	-0.52276	1.186945	0.775789
H	-0.104542	1.180308	1.785651
H	-1.616142	1.121525	0.824378
H	-0.226874	2.110154	0.271486
C	-0.384722	-1.258567	0.669672
N	-0.584012	-2.280501	1.212325
C	-1.741943	0.600045	-1.822801
H	-1.760016	1.682412	-1.658324
H	-1.965871	0.425614	-2.881643
H	-2.565054	0.186811	-1.209686
C	-0.188588	-1.367169	-2.121068
H	-0.994858	-2.03405	-1.804128
H	-0.221545	-1.292082	-3.211824
H	0.768969	-1.814065	-1.836944
H	-4.027764	0.0	0.0
