16

C	-0.488167	0.017114	-1.436237
C	0.0	0.0	0.0
F	-0.121216	-1.22353	-1.982503
H	1.100428	0.0	0.0
H	0.05785	0.780035	-1.994009
C	-1.985793	0.157301	-1.581154
H	-2.298115	1.157528	-1.272531
H	-2.276754	0.00244	-2.624904
H	-2.472453	-0.592205	-0.953597
N	-0.493767	-1.170921	0.713057
H	0.195529	-1.895602	0.530599
H	-0.410817	-0.940375	1.699125
N	-0.355449	1.215878	0.677957
O	-0.483183	1.198341	1.917803
O	-0.352715	2.266781	0.007424
H	2.544107	0.0	0.0
