16

C	-0.487836	0.036003	-1.4448
C	0.0	0.0	0.0
F	-0.234002	-1.236409	-1.988362
H	1.091321	0.0	0.0
H	0.121153	0.74284	-2.010391
C	-1.968853	0.305149	-1.621907
H	-2.207469	1.323474	-1.314046
H	-2.238862	0.181671	-2.674544
H	-2.563849	-0.393769	-1.025866
N	-0.478078	-1.122441	0.754068
H	-0.994819	-1.749627	0.157594
H	0.337578	-1.626274	1.085988
N	-0.360344	1.283363	0.658786
O	-0.543291	1.311207	1.876695
O	-0.318733	2.297663	-0.057892
H	2.662565	0.0	0.0
