16

C	-0.488654	0.022668	-1.437877
C	0.0	0.0	0.0
F	-0.149817	-1.229037	-1.982059
H	1.094701	0.0	0.0
H	0.076288	0.769143	-1.997362
C	-1.982703	0.198626	-1.585818
H	-2.275142	0.039369	-2.627663
H	-2.491709	-0.527637	-0.950973
H	-2.269808	1.208051	-1.290013
N	-0.518879	-1.159805	0.712367
H	-0.257551	-1.023102	1.68259
H	0.043116	-1.936146	0.374102
N	-0.357697	1.220091	0.683899
O	-0.499588	1.187959	1.918561
O	-0.336264	2.274689	0.021447
H	2.58762	0.0	0.0
