16

C	-0.442782	-0.008998	-1.443579
C	0.0	0.0	0.0
F	-1.851549	-0.121542	-1.50205
H	1.09153	0.0	0.0
H	-0.043964	-0.943398	-1.847354
C	-0.010342	1.162729	-2.286432
H	1.067559	1.296376	-2.167756
H	-0.513164	2.075325	-1.968439
H	-0.253439	0.96876	-3.334618
N	-0.479791	-1.159171	0.681245
H	-1.455768	-1.041402	0.918515
H	0.052007	-1.267466	1.535619
N	-0.45072	1.282813	0.654642
O	-1.347262	1.232788	1.507607
O	0.119775	2.322273	0.320695
H	2.770464	0.0	0.0
