16

C	0.0	0.0	0.0
C	-0.526897	-0.071452	-1.453147
Cl	1.860367	0.0	0.0
H	0.32304	0.095851	-2.123057
H	-0.19373	-0.933373	0.530154
N	-0.548427	1.067229	0.696192
H	-0.231822	1.196496	1.641416
H	-0.663543	1.904804	0.149354
N	-1.468364	1.02037	-1.6748
H	-2.329375	0.820558	-1.157109
H	-1.710125	1.038811	-2.65866
C	-1.100587	-1.467121	-1.701295
H	-1.41175	-1.567419	-2.745859
H	-1.983963	-1.608764	-1.073708
H	-0.358602	-2.245664	-1.488392
Br	-4.394424	0.0	0.0
