16

C	0.0	0.0	0.0
C	-0.459559	-0.044196	-1.449398
Cl	1.856635	0.0	0.0
H	-1.546284	-0.171752	-1.35868
H	-0.272397	-0.936618	0.482194
N	-0.516237	1.099342	0.699133
H	-0.094681	1.978878	0.445327
H	-0.548411	0.975577	1.697187
N	0.090939	-1.240167	-2.088514
H	1.05188	-1.064264	-2.362438
H	-0.440634	-1.431128	-2.929341
C	-0.174333	1.257243	-2.195645
H	-0.496925	1.157991	-3.235169
H	0.896341	1.487139	-2.193087
H	-0.727533	2.092376	-1.7597
Br	-4.107913	0.0	0.0
