16

C	0.0	0.0	0.0
C	-0.348872	0.021328	-1.538273
Cl	1.803465	0.0	0.0
H	0.457518	0.592283	-2.015047
H	-0.307412	-0.948974	0.441132
N	-0.520424	1.056282	0.811639
H	-1.517376	0.872871	0.934459
H	-0.434499	1.939573	0.321833
N	-1.586231	0.648469	-1.940853
H	-1.591115	1.627581	-1.683414
H	-2.398812	0.234912	-1.481102
C	-0.327152	-1.406845	-2.069991
H	-0.393045	-1.398731	-3.158499
H	-1.197637	-1.945443	-1.682597
H	0.580505	-1.937391	-1.770451
Br	-4.232204	0.0	0.0
