16

C	0.0	0.0	0.0
C	-0.350899	-0.112778	-1.534636
Cl	1.79709	0.0	0.0
H	0.462192	0.395998	-2.064723
H	-0.302685	-0.907227	0.525931
N	-0.520244	1.120192	0.722926
H	-1.520196	0.961938	0.851567
H	-0.405808	1.966963	0.175824
N	-1.580595	0.491323	-1.991635
H	-2.396797	0.121417	-1.500696
H	-1.58092	1.487904	-1.810508
C	-0.349519	-1.583492	-1.932916
H	-0.456261	-1.672884	-3.015704
H	-1.204202	-2.083784	-1.465788
H	0.567864	-2.086892	-1.619596
Br	-4.225474	0.0	0.0
