16

C	0.0	0.0	0.0
C	-0.475266	0.148987	-1.458991
Cl	1.800043	0.0	0.0
H	-1.565822	0.174877	-1.365631
H	-0.297612	-0.992369	0.34648
N	-0.494162	0.957323	0.948318
H	-0.351097	1.893532	0.5869
H	-1.504612	0.798876	0.996451
N	-0.141978	-0.9957	-2.307313
H	-0.70352	-1.786991	-2.011844
H	0.832278	-1.241954	-2.167243
C	-0.008618	1.429722	-2.133218
H	-0.260801	2.31622	-1.545488
H	-0.510403	1.510672	-3.099
H	1.071092	1.423069	-2.306348
Br	-3.791528	0.0	0.0
