15

C	0.0	0.0	0.0
C	-0.64672	-0.014243	-1.358118
F	1.372266	0.0	0.0
H	-0.377888	0.87002	-1.935873
H	-1.764834	0.023802	-1.075671
N	-0.316326	1.36519	0.640165
O	-0.358487	2.339794	-0.105778
O	-0.384308	1.412148	1.863673
C	-0.500131	-1.101772	0.883918
H	-1.594326	-0.995981	0.929936
H	-0.047276	-1.027134	1.871029
H	-0.236051	-2.056669	0.425152
C	-0.33157	-1.222532	-2.093958
N	-0.097976	-2.199873	-2.705833
H	-3.096025	0.0	0.0
