15

C	0.0	0.0	0.0
C	-0.635327	0.018787	-1.364285
F	1.363477	0.0	0.0
H	-0.554124	-0.985433	-1.789144
H	-1.737543	0.17848	-1.12781
N	-0.318444	1.323684	0.720725
O	-0.702424	2.275862	0.050556
O	-0.077798	1.351938	1.926391
C	-0.531702	-1.135315	0.824242
H	-0.247016	-2.077633	0.349055
H	-0.119554	-1.088223	1.831266
H	-1.629822	-1.02536	0.827707
C	-0.068274	0.969655	-2.304557
N	0.383533	1.688198	-3.115732
H	-3.138707	0.0	0.0
