15

C	-0.190784	-0.179344	-0.015527
C	-0.34089	0.167557	-1.51681
Br	1.121532	1.016659	0.85031
H	0.64092	0.101638	-2.005032
H	-1.206943	0.072644	0.411357
C	0.247815	-1.537601	0.232918
N	0.58611	-2.651929	0.405716
N	-0.902932	1.495654	-1.706461
H	-1.743411	1.477683	-1.100247
H	-0.263414	2.173854	-1.304746
C	-1.321899	-0.838985	-2.113605
H	-2.250544	-0.727765	-1.548744
H	-0.960191	-1.868594	-2.054067
H	-1.496682	-0.576802	-3.159537
F	-2.696218	0.686077	0.156744
