15

C	-0.190327	-0.183068	0.000164
C	-0.339932	-0.006254	-1.530491
Br	1.124802	1.099964	0.72652
H	0.641283	-0.128694	-2.008743
H	-1.206246	0.115413	0.395424
C	0.246496	-1.505396	0.399885
N	0.585226	-2.593506	0.695064
N	-0.899414	1.293473	-1.867381
H	-0.255115	2.011275	-1.551234
H	-1.735927	1.348552	-1.257636
C	-1.323534	-1.071347	-2.010007
H	-2.251446	-0.89548	-1.460477
H	-1.499375	-0.927774	-3.078469
H	-0.964001	-2.088598	-1.835288
F	-2.696771	0.696625	0.071033
