18

C	-0.545674	-0.033015	-1.426052
C	0.0	0.0	0.0
F	-0.364867	-1.26417	-1.979372
H	1.100631	0.0	0.0
N	-1.915004	0.348565	-1.544732
H	-2.196767	0.756221	-0.657904
H	-2.468009	-0.46424	-1.779849
N	0.248682	0.930595	-2.324745
O	0.62205	0.537614	-3.419855
O	0.371326	2.068727	-1.883149
C	-0.465161	-1.247982	0.737707
H	-0.074648	-2.146624	0.26263
H	-1.557381	-1.300738	0.787132
H	-0.071342	-1.218094	1.757114
N	-0.556805	1.181718	0.680991
H	-0.059796	1.995556	0.333817
H	-0.319189	1.095774	1.663422
Br	3.588167	0.0	0.0
