18

C	-0.433255	0.098137	-1.46015
C	0.0	0.0	0.0
F	-1.771965	0.394887	-1.511617
H	1.094365	0.0	0.0
N	0.280377	1.044133	-2.244844
H	1.250669	0.734785	-2.276913
H	0.27132	1.895451	-1.688889
N	-0.286214	-1.262501	-2.129943
O	-1.280603	-1.980684	-2.179557
O	0.836298	-1.557484	-2.525539
C	-0.545668	-1.212277	0.737279
H	-0.148887	-2.144232	0.32848
H	-1.638816	-1.248119	0.687702
H	-0.235927	-1.155596	1.783664
N	-0.37406	1.29413	0.582841
H	0.303836	1.52548	1.297202
H	-1.292543	1.24152	1.005444
Br	3.548326	0.0	0.0
