18

C	-0.49623	0.028592	-1.441293
C	0.0	0.0	0.0
F	-1.898967	0.187432	-1.410833
H	1.090775	0.0	0.0
N	0.120234	0.993943	-2.234661
H	0.447002	1.786396	-1.707765
H	-0.424216	1.237929	-3.048322
N	-0.340215	-1.278249	-2.224956
O	0.422233	-2.136868	-1.804257
O	-0.961185	-1.32437	-3.285346
C	-0.566678	-1.157442	0.807907
H	-0.238724	-2.122879	0.427972
H	-1.659968	-1.117215	0.822186
H	-0.206771	-1.04152	1.83005
N	-0.3771	1.263226	0.653014
H	-1.231094	1.648172	0.272798
H	0.376033	1.934836	0.585312
Br	3.5822	0.0	0.0
