18

C	-0.549666	-0.048287	-1.407341
C	0.0	0.0	0.0
F	0.084657	-1.061347	-2.129787
H	1.095252	0.0	0.0
N	-1.953741	-0.172897	-1.455849
H	-2.211556	-1.107228	-1.165424
H	-2.274392	0.002275	-2.399951
N	-0.180455	1.21172	-2.192286
O	-0.936105	1.522502	-3.116385
O	0.869767	1.762839	-1.913583
C	-0.421471	-1.252216	0.767984
H	0.113015	-1.268476	1.720018
H	-1.498003	-1.256795	0.977795
H	-0.152588	-2.160721	0.222903
N	-0.460661	1.24918	0.602753
H	0.283042	1.625908	1.172325
H	-1.27497	1.09283	1.17733
Br	3.63888	0.0	0.0
