18

C	-0.300854	0.294151	-1.468642
C	0.0	0.0	0.0
F	-0.271871	1.655758	-1.655811
H	1.100438	0.0	0.0
N	0.568419	-0.312848	-2.40098
H	1.515891	-0.308195	-2.025332
H	0.273131	-1.252344	-2.620995
N	-1.732721	-0.121343	-1.812635
O	-1.895152	-1.273916	-2.215402
O	-2.624225	0.689243	-1.605489
C	-0.434653	-1.398292	0.414579
H	-1.523293	-1.474663	0.465217
H	-0.021769	-1.610103	1.403984
H	-0.046439	-2.155106	-0.267813
N	-0.619631	0.988963	0.881746
H	-0.324799	1.907862	0.565885
H	-0.203098	0.860305	1.798967
Br	3.580427	0.0	0.0
