18

C	-0.560829	-0.015214	-1.419183
C	0.0	0.0	0.0
F	-0.191023	-1.15892	-2.04939
H	1.091624	0.0	0.0
N	-1.982978	0.134324	-1.54509
H	-2.275407	0.747785	-0.789383
H	-2.389494	-0.778372	-1.384417
N	0.043079	1.133876	-2.229841
O	-0.342219	2.257762	-1.908577
O	0.819911	0.869233	-3.131833
C	-0.435241	-1.269144	0.721971
H	-0.114499	-2.15692	0.177584
H	-1.519897	-1.28853	0.872078
H	0.050188	-1.295138	1.70184
N	-0.571634	1.151403	0.7141
H	-0.232255	1.089096	1.668711
H	-0.171661	2.001982	0.331238
Br	3.587715	0.0	0.0
