18

C	-0.475551	0.014177	-1.443322
C	0.0	0.0	0.0
F	0.09382	-1.044879	-2.135089
H	1.094952	0.0	0.0
N	-1.886166	0.029743	-1.571106
H	-2.269344	-0.788942	-1.117253
H	-2.133813	0.027336	-2.553398
N	0.004443	1.235412	-2.233754
O	0.760822	2.037118	-1.704355
O	-0.419832	1.301568	-3.388302
C	-0.458533	-1.292557	0.672922
H	-1.533216	-1.27451	0.889823
H	-0.214171	-2.172329	0.074466
H	0.066139	-1.365072	1.625505
N	-0.46945	1.145516	0.771166
H	-1.386102	1.427025	0.442924
H	0.171886	1.91255	0.617401
Br	3.625851	0.0	0.0
