18

C	-0.22461	0.148786	-1.50912
C	0.0	0.0	0.0
F	-0.149472	1.511953	-1.861267
H	1.098116	0.0	0.0
N	0.653551	-0.66113	-2.215306
H	1.600295	-0.564213	-1.846934
H	0.613245	-0.506608	-3.211983
N	-1.659316	-0.159118	-1.95555
O	-2.560046	0.200425	-1.199849
O	-1.833171	-0.682463	-3.052168
C	-0.497961	-1.339141	0.514576
H	-0.18606	-2.153728	-0.140355
H	-0.070931	-1.500665	1.504609
H	-1.588266	-1.34197	0.602992
N	-0.478084	1.091637	0.824855
H	0.098874	1.905917	0.650097
H	-1.430383	1.317341	0.563103
Br	3.576929	0.0	0.0
