18

C	-0.302824	0.075485	-1.505384
C	0.0	0.0	0.0
F	-0.276973	1.36418	-1.920425
H	1.09932	0.0	0.0
N	0.552999	-0.697156	-2.336349
H	0.277147	-1.668282	-2.315139
H	1.505768	-0.603462	-1.984424
N	-1.743216	-0.396794	-1.734653
O	-1.921058	-1.575814	-2.044328
O	-2.634141	0.411814	-1.494109
C	-0.430736	-1.336613	0.598874
H	-0.068799	-2.188907	0.021472
H	-0.005741	-1.411614	1.601645
H	-1.521848	-1.410874	0.676155
N	-0.490142	1.156565	0.726194
H	-1.362176	0.944513	1.193689
H	0.199641	1.419118	1.419083
Br	3.53881	0.0	0.0
