16

C	0.0	0.0	0.0
C	-0.559556	0.720179	-1.229249
Cl	1.783922	0.0	0.0
H	-1.397738	1.32331	-0.910659
H	0.219552	1.298055	-1.732258
N	-0.361384	0.887587	1.200166
O	-0.486288	0.35488	2.291469
O	-0.387715	2.097473	1.000413
C	-0.42567	-1.426887	0.281832
H	-0.014111	-1.720147	1.246321
H	-1.51911	-1.393796	0.287746
H	-0.025271	-2.07159	-0.495573
N	-1.134355	-0.148534	-2.295836
O	-0.618272	-1.238392	-2.538783
O	-2.0381	0.354957	-2.954088
F	-2.612097	0.0	0.0
