16

C	0.0	0.0	0.0
C	-0.592156	-0.05836	-1.395162
Cl	1.773844	0.0	0.0
H	-0.286848	0.802431	-1.979103
H	-1.700226	-0.109175	-1.161846
N	-0.406249	1.367286	0.57498
O	-0.480256	1.458752	1.792417
O	-0.545296	2.295133	-0.212682
C	-0.487133	-1.088465	0.926843
H	-0.088011	-0.924005	1.92635
H	-0.146658	-2.051283	0.547982
H	-1.581555	-1.008479	0.891199
N	-0.117389	-1.247545	-2.132129
O	-0.531902	-2.357696	-1.793878
O	0.655103	-1.061405	-3.07877
F	-2.828626	0.0	0.0
