16

C	0.0	0.0	0.0
C	-0.586245	-0.064956	-1.398967
Cl	1.773885	0.0	0.0
H	-1.694429	-0.110819	-1.159632
H	-0.269577	0.787473	-1.987717
N	-0.418992	1.363187	0.565612
O	-0.487281	1.463241	1.781375
O	-0.577364	2.282352	-0.226083
C	-0.482866	-1.090391	0.927067
H	-0.094693	-0.913715	1.92841
H	-0.124798	-2.051319	0.560558
H	-1.576779	-1.018669	0.882866
N	-0.114117	-1.263925	-2.121236
O	-0.5622	-2.365392	-1.79472
O	0.693195	-1.093784	-3.042629
F	-2.812944	0.0	0.0
