16

C	0.0	0.0	0.0
C	-0.484997	0.361747	-1.408755
Cl	1.783897	0.0	0.0
H	-0.915959	1.35297	-1.392496
H	0.358542	0.327945	-2.106973
N	-0.409124	1.108645	0.969872
O	-0.460969	2.253087	0.532976
O	-0.534375	0.804273	2.147373
C	-0.365917	-1.358205	0.574454
H	-1.451973	-1.37934	0.62779
H	0.023148	-2.131176	-0.086104
H	0.102046	-1.451431	1.554486
N	-1.509342	-0.504504	-2.06401
O	-1.380878	-1.724174	-2.013278
O	-2.288641	0.081421	-2.807372
F	-2.475524	0.0	0.0
