16

C	0.0	0.0	0.0
C	-0.2944	0.499881	-1.414572
Cl	1.783867	0.0	0.0
H	-0.035723	1.553573	-1.470511
H	0.336755	-0.079499	-2.088376
N	-0.45168	0.996805	1.047124
O	-0.581301	0.573094	2.18778
O	-0.54542	2.170403	0.709213
C	-0.445115	-1.405523	0.325953
H	-1.540875	-1.333032	0.35776
H	-0.005648	-1.715439	1.274105
H	-0.102252	-2.065914	-0.47322
N	-1.656698	0.369944	-2.025063
O	-2.270308	1.410496	-2.221635
O	-1.923133	-0.723742	-2.516211
F	-2.580327	0.0	0.0
