16

C	0.0	0.0	0.0
C	-0.304075	0.217426	-1.482292
Cl	1.784063	0.0	0.0
H	0.367978	-0.437428	-2.041069
H	-0.099012	1.258176	-1.72563
N	-0.453179	1.177906	0.837904
O	-0.566622	0.983306	2.040154
O	-0.556239	2.263697	0.279894
C	-0.420602	-1.321747	0.602603
H	-1.512607	-1.283775	0.624552
H	0.02253	-1.423571	1.594327
H	-0.052908	-2.12275	-0.043576
N	-1.644639	-0.101534	-2.067036
O	-1.885666	-1.290796	-2.254186
O	-2.266353	0.837961	-2.554248
F	-2.53012	0.0	0.0
