16

C	0.0	0.0	0.0
C	-0.322227	0.432497	-1.432697
Cl	1.783995	0.0	0.0
H	-0.192388	1.507946	-1.505972
H	0.387097	-0.076464	-2.086798
N	-0.450201	1.037054	1.009405
O	-0.554934	2.196137	0.628693
O	-0.55901	0.659779	2.167694
C	-0.409609	-1.400588	0.406297
H	-1.500856	-1.376448	0.44298
H	-0.045054	-2.095869	-0.352281
H	0.045077	-1.638948	1.368147
N	-1.63776	0.113207	-2.062847
O	-2.291034	1.064345	-2.478459
O	-1.830203	-1.06272	-2.354119
F	-2.516627	0.0	0.0
