16

C	0.0	0.0	0.0
C	-0.66977	0.069267	-1.344057
Cl	1.760739	0.0	0.0
H	-1.776547	0.233281	-1.039766
H	-0.608735	-0.90136	-1.835644
N	-0.416874	1.205728	0.863812
O	-0.975966	2.146488	0.323813
O	-0.136897	1.130769	2.057382
C	-0.495797	-1.246959	0.712627
H	-0.146866	-2.126352	0.166262
H	-0.096887	-1.269145	1.725386
H	-1.590528	-1.165947	0.696118
N	-0.15969	1.044676	-2.321664
O	-0.497664	0.848551	-3.493124
O	0.5331	1.992287	-1.952991
F	-2.887603	0.0	0.0
