15

C	0.0	0.0	0.0
C	-0.537125	-0.206241	-1.414456
F	1.386496	0.0	0.0
H	0.327373	-0.215667	-2.096333
H	-0.343399	0.972386	0.336068
C	-0.38488	-1.082259	0.991765
H	-1.472671	-1.089791	1.03931
H	0.018816	-2.046545	0.668241
H	0.063064	-0.830753	1.958099
N	-1.346561	0.968835	-1.911148
O	-2.168035	0.746247	-2.788605
O	-1.000951	2.079607	-1.528075
C	-1.287169	-1.439818	-1.615104
N	-1.688908	-2.522041	-1.832987
F	-2.554903	0.0	0.0
