15

C	0.0	0.0	0.0
C	-0.536906	-0.191066	-1.416367
F	1.386301	0.0	0.0
H	0.328427	-0.196788	-2.097285
H	-0.343831	0.968109	0.347332
C	-0.384309	-1.094193	0.979452
H	0.067067	-0.855156	1.946977
H	-1.471973	-1.100012	1.028838
H	0.016974	-2.054903	0.642438
N	-1.340789	0.991914	-1.902796
O	-0.991139	2.096207	-1.50521
O	-2.159521	0.783244	-2.785889
C	-1.289396	-1.420722	-1.630939
N	-1.691981	-2.499614	-1.863871
F	-2.553681	0.0	0.0
