15

C	0.0	0.0	0.0
C	-0.4606	0.133255	-1.443859
F	1.388292	0.0	0.0
H	-0.200406	-0.775956	-1.99339
H	-0.341719	0.860014	0.571948
C	-0.405998	-1.313693	0.634019
H	-0.016269	-2.13863	0.028533
H	-1.490401	-1.338179	0.690398
H	0.047278	-1.378268	1.627326
N	0.398904	1.199153	-2.087249
O	1.053143	0.881843	-3.078712
O	0.387562	2.312025	-1.570701
C	-1.873226	0.495682	-1.729144
N	-2.583657	0.897841	-2.59067
F	-2.620368	0.0	0.0
