15

C	0.0	0.0	0.0
C	-0.537776	-0.060927	-1.427744
F	1.3874	0.0	0.0
H	0.325348	-0.006599	-2.109298
H	-0.343999	0.932056	0.435031
C	-0.383283	-1.179863	0.874719
H	0.067155	-1.030683	1.860722
H	-1.470986	-1.192455	0.923467
H	0.019856	-2.104915	0.451083
N	-1.34708	1.15918	-1.803021
O	-1.007893	2.225208	-1.304184
O	-2.164015	1.026719	-2.702764
C	-1.29317	-1.266747	-1.748586
N	-1.683469	-2.313061	-2.113701
F	-2.553813	0.0	0.0
