15

C	0.0	0.0	0.0
C	-0.625156	-0.011362	-1.383461
F	1.383536	0.0	0.0
H	-1.760089	-0.0186	-1.045248
H	-0.343091	0.933225	0.451967
C	-0.446968	-1.17389	0.848737
H	-0.086858	-1.022131	1.869692
H	-0.019841	-2.102837	0.464808
H	-1.536711	-1.187643	0.815831
N	-0.243038	-1.257245	-2.111336
O	-0.938199	-2.253406	-1.916769
O	0.759007	-1.233503	-2.830252
C	-0.218965	1.140373	-2.167356
N	0.083152	2.111623	-2.756457
F	-2.816774	0.0	0.0
