15

C	0.0	0.0	0.0
C	-0.477548	0.163668	-1.442262
F	1.380584	0.0	0.0
H	-0.371642	-0.783496	-1.976599
H	-0.342088	0.848768	0.588515
C	-0.399626	-1.32343	0.618725
H	0.042601	-1.389312	1.61712
H	0.013031	-2.137389	0.012823
H	-1.48402	-1.360413	0.660787
N	0.510917	1.084985	-2.125314
O	1.167998	0.625989	-3.058645
O	0.601969	2.226295	-1.687001
C	-1.824175	0.723098	-1.686408
N	-2.516382	1.306746	-2.451529
F	-2.59859	0.0	0.0
