15

C	0.0	0.0	0.0
C	-0.537894	-0.341083	-1.386778
F	1.38878	0.0	0.0
H	0.324665	-0.416102	-2.067258
H	-0.344484	0.999569	0.24217
C	-0.382394	-0.981445	1.092382
H	0.013955	-1.974193	0.858758
H	0.074673	-0.641916	2.026291
H	-1.469688	-0.979461	1.147394
N	-1.351568	0.778031	-1.99321
O	-2.171907	0.468292	-2.845062
O	-1.009912	1.922444	-1.721054
C	-1.287072	-1.589512	-1.463751
N	-1.68664	-2.685001	-1.603389
F	-2.550426	0.0	0.0
