16
Coordinates from ORCA-job run
  C   -0.46650855264967      0.21658423746494     -0.43839367730514
  C   0.88861073666629     -0.42928321158255     -0.12922222618481
  F   -0.37596799932017      0.68374073450331     -1.72164141253999
  H   1.02038626523601     -1.18386198785456     -0.92227093874540
  N   -0.62210679818319      1.42911210986670      0.46444125983899
  O   -0.75361114094577      1.16355850381977      1.65346550734491
  O   -0.60719432691450      2.53581545737503     -0.05078923993804
  C   -1.66934544283237     -0.67508612447266     -0.29798268793891
  H   -2.55615031021655     -0.12836397824723     -0.62401134513972
  H   -1.54538112133167     -1.55237593123326     -0.93598469985420
  H   -1.79588742201326     -0.98949813146390      0.73647704031587
  C   0.87977038042048     -1.14802396437349      1.14719093420502
  N   0.92049163332232     -1.78573267016056      2.13166078971506
  N   1.90260996269253      0.61355940577769     -0.11537209342210
  H   1.97703921022697      1.02100515069474     -1.04007908131728
  H   2.80324492584254      0.22985039988601      0.14151187096573
