16
Coordinates from ORCA-job run
  C   -0.34799662646722      0.49632551166418     -0.18690415067975
  C   0.69612959090021     -0.48708827154843      0.36809894181404
  F   0.30153604219206      1.52997273502003     -0.78089960618817
  H   0.16044546375853     -1.23818642019493      0.95457757587243
  N   -1.11238308657246      1.06218286139618      1.00074874452691
  O   -1.64666835261310      0.21662975743799      1.71563358880260
  O   -1.15152459286098      2.27499367831796      1.14288694675255
  C   -1.32946051691923     -0.12043871498483     -1.14535911798248
  H   -0.77389544996934     -0.49010922199930     -2.00571138188084
  H   -2.03907469110919      0.64300212451891     -1.46978278359702
  H   -1.87184795964323     -0.93689734288423     -0.66870018746956
  C   1.59163738469651      0.23353510789287      1.28565055640295
  N   2.33788809403024      0.79984330224082      1.99361280409871
  N   1.41070163848657     -1.09897790914093     -0.74380395489049
  H   2.36712902522335     -0.77955864947312     -0.79883223424341
  H   1.40638403686729     -2.10522854826315     -0.66121574133847
