16
Coordinates from ORCA-job run
  C   -0.46404495750715      0.26676861328643     -0.52772171727456
  C   0.97904294239585     -0.15278610222814     -0.23799845732131
  F   -0.66290378566235      0.19517444301595     -1.88129766055399
  H   1.60428460056531      0.50176953810384     -0.85064077081329
  N   -0.52890877108261      1.75387257012298     -0.18447811360988
  O   -1.37666511639884      2.12731850540638      0.61670617533743
  O   0.28188372076926      2.46314516403201     -0.77055064778217
  C   -1.52546227398270     -0.50730672665364      0.19416923446389
  H   -1.40782223965578     -0.41335597852375      1.27242987619014
  H   -1.45676970635389     -1.55516148812996     -0.10366483159909
  H   -2.50748254617892     -0.12244420682610     -0.07776811444848
  C   1.18142050900041     -1.54221252612910     -0.68079265876133
  N   1.34370583108581     -2.67018463513348     -0.96562869044537
  N   1.27033169763959      0.09122624979017      1.16327234182735
  H   2.25690817833273      0.26738265784051      1.29698492071866
  H   1.01148191703324     -0.70220607797411      1.73597911407201
