16
Coordinates from ORCA-job run
  C   -0.32217297122300      0.16312036401664     -0.61988683434145
  C   1.06473063734576     -0.22380708546840     -0.05646960285239
  F   -0.27421508098958      0.02059203083027     -1.97825250443312
  H   1.78678926358706      0.29429143510314     -0.69651610385162
  N   -0.43126757730235      1.65889428487517     -0.35457607262922
  O   0.34079152816386      2.36852941929857     -0.99125323071132
  O   -1.22063600936044      2.03231475182151      0.50830570537189
  C   -1.50540970229274     -0.57733870511468     -0.06896365632324
  H   -1.55821706066330     -0.49870845459001      1.01553774529143
  H   -2.42358604597225     -0.16432583581867     -0.48669364917331
  H   -1.42046576747084     -1.62571441417668     -0.35745811547190
  C   1.24314591627893     -1.66896227961592     -0.24131018069598
  N   1.34465297115820     -2.83063718733663     -0.37448092815903
  N   1.32989421970723      0.14017726052382      1.31591682356241
  H   0.64090311124031     -0.23019813465157      1.95623588411382
  H   1.40506256779315      1.14177255030346      1.42986472030306
