17

C	0.0	0.0	0.0
C	-0.420747	0.101571	-1.499067
Br	1.970232	0.0	0.0
H	0.409561	0.573503	-2.033255
H	-0.280629	-0.978864	0.392687
C	-0.496427	1.100709	0.918846
H	-0.143867	0.936385	1.939512
H	-0.144049	2.079369	0.586568
H	-1.590328	1.08967	0.916879
C	-1.658588	0.950813	-1.742705
H	-2.552532	0.563494	-1.247893
H	-1.505373	1.979806	-1.41018
H	-1.841381	0.962276	-2.820088
N	-0.627704	-1.207108	-2.117809
H	0.125379	-1.836135	-1.864314
H	-1.495252	-1.591136	-1.756054
Cl	-4.555183	0.0	0.0
