17

C	0.0	0.0	0.0
C	-0.457668	0.168935	-1.446996
Br	1.973296	0.0	0.0
H	-0.022806	1.115629	-1.813461
H	-0.266653	-1.007372	0.325279
C	-0.512983	1.055181	0.956479
H	-0.274746	2.058174	0.593276
H	-1.59826	0.957902	1.046587
H	-0.070879	0.931366	1.946668
C	-1.974542	0.25369	-1.53073
H	-2.470088	-0.591527	-1.05411
H	-2.282776	0.27258	-2.581011
H	-2.380893	1.148093	-1.06292
N	-0.008614	-0.98988	-2.224246
H	-0.478713	-0.978867	-3.121295
H	0.988328	-0.928231	-2.394686
Cl	-5.057732	0.0	0.0
