17

C	0.0	0.0	0.0
C	-0.523249	-0.294073	-1.414884
Br	1.966315	0.0	0.0
H	-1.614479	-0.271709	-1.293861
H	-0.26945	-0.829304	0.65698
C	-0.5152	1.301862	0.571685
H	-1.608234	1.238545	0.572931
H	-0.157605	1.454301	1.591961
H	-0.193222	2.15092	-0.035001
C	-0.124834	-1.674023	-1.91546
H	-0.656264	-1.873999	-2.847695
H	0.949444	-1.731914	-2.112813
H	-0.388957	-2.446905	-1.187748
N	-0.175106	0.706068	-2.42328
H	-0.704941	1.552637	-2.253565
H	0.811132	0.933822	-2.347213
Cl	-3.853007	0.0	0.0
