17

C	0.0	0.0	0.0
C	-0.440868	0.102668	-1.489774
Br	1.966785	0.0	0.0
H	0.338919	-0.401725	-2.071364
H	-0.238537	-1.010045	0.34238
C	-0.600877	1.009057	0.949306
H	-1.692264	0.930792	0.873176
H	-0.309517	0.795998	1.980286
H	-0.293209	2.027032	0.7046
C	-0.524038	1.548414	-1.959987
H	0.391384	2.102413	-1.735063
H	-0.692891	1.557455	-3.038564
H	-1.371809	2.049305	-1.487343
N	-1.685146	-0.570116	-1.798014
H	-2.481354	-0.205071	-1.270695
H	-1.618415	-1.552521	-1.557364
Cl	-4.330321	0.0	0.0
