15

C	0.0	0.0	0.0
C	-0.508327	0.178106	-1.425429
F	1.374945	0.0	0.0
H	-1.558166	0.48976	-1.350362
H	-0.366486	-0.958206	0.371645
C	-0.407143	1.04467	0.959162
N	-0.529796	1.800255	1.848881
C	-0.387734	-1.101913	-2.222326
H	-1.051178	-1.835942	-1.761811
H	0.641052	-1.471279	-2.226482
H	-0.707298	-0.947809	-3.251372
N	0.243866	1.30424	-2.073271
O	0.402227	2.325094	-1.407974
O	0.623089	1.163717	-3.236319
Cl	-3.33345	0.0	0.0
