15

C	0.0	0.0	0.0
C	-0.489205	0.080166	-1.447188
F	1.377617	0.0	0.0
H	-1.510207	0.472313	-1.436889
H	-0.369342	-0.925158	0.443067
C	-0.406453	1.128154	0.856135
N	-0.557755	2.007709	1.61708
C	-0.437103	-1.270256	-2.122228
H	0.559043	-1.711779	-2.050307
H	-1.172326	-1.908617	-1.627811
H	-0.702094	-1.187646	-3.176006
N	0.368719	1.087126	-2.158273
O	1.01885	0.726995	-3.137136
O	0.354853	2.231479	-1.709243
Cl	-3.308909	0.0	0.0
