15

C	0.0	0.0	0.0
C	-0.506147	0.122658	-1.427875
F	1.37552	0.0	0.0
H	-1.600033	0.037354	-1.38252
H	-0.368914	-0.951962	0.390036
C	-0.433489	1.073219	0.91111
N	-0.616266	1.909218	1.714755
C	0.132614	-0.920648	-2.331955
H	1.211739	-0.762446	-2.398323
H	-0.050534	-1.917656	-1.92548
H	-0.302999	-0.864194	-3.328515
N	-0.216366	1.467843	-2.020951
O	0.500532	2.257883	-1.407942
O	-0.707939	1.678932	-3.128934
Cl	-3.382472	0.0	0.0
