15

C	0.0	0.0	0.0
C	-0.376977	0.53708	-1.399857
F	1.37521	0.0	0.0
H	0.580957	0.524854	-1.932988
H	-0.371973	-1.009829	0.148429
C	-0.406666	0.885371	1.101914
N	-0.492275	1.631029	2.00525
C	-0.940224	1.938532	-1.477191
H	-0.211878	2.624835	-1.032143
H	-1.093569	2.215248	-2.51981
H	-1.884559	1.993802	-0.938152
N	-1.153538	-0.474168	-2.208474
O	-1.826076	-0.050398	-3.140158
O	-0.914906	-1.658134	-1.994125
Cl	-3.107689	0.0	0.0
