15

C	0.0	0.0	0.0
C	-0.491229	-0.025378	-1.435905
F	1.380399	0.0	0.0
H	-0.005414	0.777129	-1.995039
H	-0.354622	-0.880507	0.537943
C	-0.433364	1.234593	0.671991
N	-0.676973	2.24994	1.207993
C	-2.001665	0.008354	-1.552289
H	-2.304634	-0.134502	-2.589337
H	-2.486493	-0.751401	-0.942166
H	-2.405117	0.958526	-1.205445
N	0.027508	-1.289054	-2.064429
O	-0.039147	-2.32393	-1.405816
O	0.43853	-1.203794	-3.218903
Cl	-4.929031	0.0	0.0
