15

C	0.0	0.0	0.0
C	-0.366247	0.32346	-1.469536
F	1.382129	0.0	0.0
H	0.597662	0.236588	-1.985289
H	-0.376173	-0.974617	0.296387
C	-0.406533	1.043715	0.951515
N	-0.499712	1.918336	1.73002
C	-0.943281	1.691192	-1.760789
H	-1.04186	1.828328	-2.837411
H	-0.253696	2.446479	-1.372061
H	-1.915317	1.789128	-1.282314
N	-1.13367	-0.800054	-2.122179
O	-0.879753	-1.93799	-1.739571
O	-1.819936	-0.521588	-3.096942
Cl	-3.103775	0.0	0.0
