15

C	0.0	0.0	0.0
C	-0.363246	0.108693	-1.507746
Br	1.994615	0.0	0.0
H	0.387988	-0.457417	-2.055654
H	-0.21263	1.168062	-1.741331
N	-0.591861	0.957779	0.813206
H	-0.504992	0.706617	1.790332
H	-1.588537	1.007881	0.582499
N	-0.273131	-1.454725	0.497607
O	-0.161449	-2.363615	-0.317193
O	-0.549946	-1.585244	1.684472
N	-1.656843	-0.32061	-1.953869
H	-2.439851	0.11071	-1.466868
H	-1.756232	-1.317365	-1.814781
Br	-4.276906	0.0	0.0
