15

C	0.0	0.0	0.0
C	-0.319044	-0.303965	-1.483148
Br	2.003859	0.0	0.0
H	0.115786	-1.279528	-1.701613
H	0.252368	0.440692	-2.042141
N	-0.57761	1.173695	0.480351
H	-0.410443	1.271411	1.475229
H	-1.590037	1.102522	0.330131
N	-0.30995	-1.221033	0.917126
O	-0.454429	-2.317945	0.391841
O	-0.372749	-0.985533	2.119225
N	-1.679928	-0.267715	-1.929135
H	-2.073797	0.66227	-1.880657
H	-2.299896	-0.845296	-1.374472
Br	-4.267836	0.0	0.0
