17

C	0.0	0.0	0.0
C	-0.350154	0.061416	-1.547661
F	1.356662	0.0	0.0
H	0.617236	-0.187629	-1.999447
C	-0.479951	1.099255	0.837801
N	-0.62193	2.087572	1.458606
N	-0.344666	-1.317637	0.666705
O	-0.102116	-2.323364	0.001951
O	-0.689006	-1.312212	1.839655
C	-0.718228	1.496388	-1.90046
H	0.029183	2.218809	-1.558546
H	-0.817405	1.565701	-2.985656
H	-1.677034	1.707771	-1.42679
N	-1.340153	-0.828678	-2.102935
H	-1.018658	-1.778839	-1.968435
H	-2.137979	-0.682167	-1.463203
F	-2.433981	0.0	0.0
