17

C	0.0	0.0	0.0
C	-0.336431	0.093938	-1.549826
F	1.363851	0.0	0.0
H	0.629507	-0.166505	-1.999217
C	-0.485892	1.081089	0.855441
N	-0.581907	2.047158	1.519894
N	-0.345213	-1.330822	0.635604
O	-0.128399	-2.322074	-0.059295
O	-0.667971	-1.351605	1.815423
C	-0.670569	1.543862	-1.874483
H	0.08509	2.243369	-1.50225
H	-0.749833	1.643215	-2.958663
H	-1.633783	1.765146	-1.412791
N	-1.33905	-0.763673	-2.134356
H	-2.136586	-0.625357	-1.493621
H	-1.031803	-1.721281	-2.023687
F	-2.414875	0.0	0.0
