17

C	0.0	0.0	0.0
C	-0.226027	0.262443	-1.54524
F	1.361756	0.0	0.0
H	0.648117	0.914158	-1.714863
C	-0.48922	1.123346	0.795895
N	-0.563623	2.134883	1.393771
N	-0.388837	-1.295472	0.663003
O	-0.322057	-2.323251	-0.002105
O	-0.567308	-1.24977	1.874002
C	-1.416329	1.048599	-2.061367
H	-1.199578	1.290843	-3.113965
H	-1.550131	1.980744	-1.510281
H	-2.314669	0.453397	-1.961476
N	-0.090764	-0.964979	-2.347818
H	0.527571	-1.623909	-1.893196
H	0.338788	-0.690471	-3.224303
F	-2.264178	0.0	0.0
