17

C	0.0	0.0	0.0
C	-0.427619	0.11644	-1.478761
F	1.356675	0.0	0.0
H	-1.494261	0.338805	-1.394395
C	-0.464523	1.165395	0.76664
N	-0.569529	2.163653	1.377811
N	-0.383594	-1.254063	0.764832
O	-0.222741	-2.32498	0.185124
O	-0.660592	-1.131417	1.949776
C	-0.213703	-1.130803	-2.326134
H	-0.900971	-1.923776	-2.039619
H	0.810638	-1.511438	-2.252786
H	-0.407499	-0.856204	-3.369094
N	0.310712	1.283087	-1.977082
H	1.188018	0.998105	-2.396086
H	-0.24794	1.737445	-2.686244
F	-2.44996	0.0	0.0
