13

C	-0.412306	-0.00149	-1.471231
C	0.0	0.0	0.0
F	0.059211	-1.160149	-2.073472
H	1.095693	0.0	0.0
H	-1.505505	-0.016726	-1.590348
C	0.113306	1.16001	-2.207814
N	0.491135	2.074839	-2.839281
N	-0.409769	-1.209998	0.699046
H	-1.263758	-1.60263	0.318591
H	0.341641	-1.878173	0.577447
C	-0.562785	1.187086	0.630431
N	-1.037886	2.143335	1.123926
F	2.530248	0.0	0.0
