13

C	-0.518876	-0.018222	-1.425414
C	0.0	0.0	0.0
F	-0.00467	-1.133447	-2.073802
H	1.101257	0.0	0.0
H	-1.610208	-0.123736	-1.44009
C	-0.14269	1.183436	-2.190658
N	0.081963	2.137948	-2.834904
N	-0.486761	-1.254583	0.632592
H	-0.388569	-1.133899	1.637004
H	0.226546	-1.937411	0.386522
C	-0.547343	1.154414	0.685862
N	-0.987979	2.081384	1.258733
F	2.54442	0.0	0.0
