17

C	0.0	0.0	0.0
C	-0.276656	0.063042	-1.547684
Cl	1.770332	0.0	0.0
H	0.331997	-0.760861	-1.926579
N	-0.427631	1.187749	0.841689
O	-0.409483	2.285708	0.307405
O	-0.605667	0.970695	2.029718
C	-0.48383	-1.232876	0.603311
N	-0.603109	-2.296438	1.090392
C	0.12261	1.339842	-2.272701
H	-0.5642	2.143904	-2.04011
H	1.137964	1.639251	-2.022671
H	0.074012	1.141014	-3.34603
N	-1.647067	-0.338585	-2.066575
O	-2.381757	0.526389	-2.520413
O	-1.823517	-1.547964	-2.183931
F	-2.240344	0.0	0.0
