17

C	0.0	0.0	0.0
C	-0.225911	-0.04198	-1.566128
Cl	1.763925	0.0	0.0
H	0.400471	0.767264	-1.937658
N	-0.438104	1.343281	0.557067
O	-0.569135	1.417584	1.767787
O	-0.488009	2.274761	-0.237858
C	-0.53203	-1.072534	0.820629
N	-0.630911	-1.983335	1.561008
C	-1.560154	0.009642	-2.281526
H	-1.33469	-0.001336	-3.357791
H	-2.079146	0.921485	-2.009836
H	-2.191049	-0.821255	-1.989337
N	0.454997	-1.279641	-2.094717
O	0.129768	-2.36337	-1.617482
O	1.238683	-1.127754	-3.033238
F	-2.291611	0.0	0.0
