15
Coordinates from ORCA-job run
  C   -0.65737908225044      0.26166174577145      0.13180650908065
  C   0.72003935623583      0.24594212086610     -0.55939639373594
  H   -0.84747953336961      1.30516292511451      0.41146604082403
  H   0.70182563118652      0.85758842950703     -1.46596365883867
  N   -0.55358785986159     -0.50313278716270      1.34404756096588
  H   -1.28593872246210     -0.26543351248383      1.99901903102520
  H   -0.59257275484179     -1.49597800303939      1.14094331758139
  N   -1.61340215480757     -0.29127894529171     -0.82059678386673
  H   -1.75881546720044      0.34052307746671     -1.60135602456589
  H   -2.50603783071909     -0.42082347640802     -0.35911885332455
  C   1.14433520730692     -1.11309004618623     -0.86559166436120
  N   1.45317954060914     -2.21663870332912     -1.11928331147166
  N   1.70489689359627      0.92215933672244      0.36232336238258
  O   2.60500209813570      0.25799003288339      0.85452135600045
  O   1.48593467844225      2.11534780556938      0.54817951230445
