15
Coordinates from ORCA-job run
  C   -0.64631052054673      0.28029363606701      0.14945754264482
  C   0.70840146416924      0.22388700518847     -0.58312596710624
  H   -0.80079205196198      1.33019324169811      0.42651640754328
  H   0.67928234405201      0.82840701029465     -1.49425316367250
  N   -0.52507337816652     -0.47841912194506      1.36336630278569
  H   -1.22881506095924     -0.21738673378600      2.03994266767573
  H   -0.59360212474789     -1.47140618430388      1.17002228198168
  N   -1.64429356766117     -0.25422463132943     -0.76992291406596
  H   -1.80391126212527      0.37965235433639     -1.54596904442148
  H   -2.52291233993052     -0.36847028830048     -0.27904323614840
  C   1.08835622560539     -1.14772543460518     -0.89174111465607
  N   1.36125100101880     -2.26003295713215     -1.14849938515960
  N   1.73859560422237      0.88074565110130      0.30241989707918
  O   1.55535125019090      2.07990448451251      0.48722489510135
  O   2.63547241684063      0.19658196820374      0.77260483041850
