15
Coordinates from ORCA-job run
  C   -0.46970033709726     -0.10488352341679      0.46440689914265
  C   0.70118240721589     -0.12368804706293     -0.53072821275061
  H   -0.03107318809590     -0.08448665324384      1.46525834472365
  H   0.33440413452397     -0.15725227956149     -1.56053734851244
  N   -1.16856054193416     -1.36690063614085      0.30903625815343
  H   -1.73941021363586     -1.36057318464872     -0.52873505271841
  H   -1.77227920680132     -1.54530177552346      1.10128708434199
  N   -1.17671334810119      1.14653377792382      0.27498514813236
  H   -1.80188326663656      1.32828712939635      1.04950849315669
  H   -1.72098018825731      1.13460317449216     -0.58035042228865
  C   1.61265536549274     -1.23240233475652     -0.27829884554848
  N   2.35970677955840     -2.11585560000280     -0.08044859879343
  N   1.44998291243867      1.17724677717234     -0.40407238060611
  O   1.42124298313831      1.92714613929332     -1.37183350660630
  O   2.00142570819157      1.37852703607941      0.67052214017367
