15
Coordinates from ORCA-job run
  C   -0.50717188330672     -0.05277857147972      0.40975558029880
  C   0.67502868984833     -0.05592694819880     -0.57587287913132
  H   -0.08120745239496     -0.01337934234284      1.42041800366163
  H   0.29919210838953      0.00269963366585     -1.59857958853134
  N   -1.29690964479166     -1.24613847141863      0.12642286478285
  H   -0.78601722039097     -2.08959131065054      0.36826426828952
  H   -2.13555454215453     -1.22584247271247      0.69514317820478
  N   -1.23858729002184      1.16749289247334      0.19219918672388
  H   -1.77240616596626      1.43119331697513      1.00884755706849
  H   -1.86642716828687      1.05650147669442     -0.59592029679938
  C   1.51864173722847     -1.23136720129023     -0.39637902644153
  N   2.14537334233676     -2.20915369358432     -0.22281482313797
  N   1.48958868666072      1.18498805481743     -0.33908712334465
  O   1.99492911777082      1.29549090160638      0.77247479085322
  O   1.56152768507919      1.98381173544500     -1.26387169249698
