14

C	-0.520292	0.020396	-1.415655
C	0.0	0.0	0.0
Cl	-0.073979	-1.524441	-2.174094
H	1.089702	0.0	0.0
H	-0.356497	-0.886299	0.520171
N	-2.065625	0.055145	-1.431276
O	-2.621882	-0.495049	-0.491223
O	-2.602758	0.57062	-2.400722
C	-0.03248	1.117083	-2.24148
N	0.36626	1.986156	-2.924075
N	-0.495879	1.168529	0.763898
O	-1.045119	2.07813	0.137912
O	-0.31978	1.143161	1.974132
Cl	3.197033	0.0	0.0
