14

C	-0.49546	-0.040833	-1.426976
C	0.0	0.0	0.0
Cl	-2.282493	0.009683	-1.509116
H	1.090505	0.0	0.0
H	-0.371618	0.893891	0.494305
N	-0.018901	1.279731	-2.090249
O	-0.207692	2.293725	-1.436095
O	0.45778	1.200626	-3.211815
C	-0.018055	-1.153002	-2.235524
N	0.332025	-2.034153	-2.929971
N	-0.469693	-1.161632	0.788698
O	-0.679544	-2.222997	0.205127
O	-0.582007	-0.980842	1.997636
Cl	3.180369	0.0	0.0
