14

C	-0.514278	-0.021499	-1.429679
C	0.0	0.0	0.0
Cl	0.156205	1.259058	-2.411804
H	1.089424	0.0	0.0
H	-0.351475	-0.886634	0.527372
N	-0.056066	-1.414123	-1.998777
O	-0.484035	-2.365259	-1.357595
O	0.634952	-1.443064	-2.998832
C	-1.972629	-0.046372	-1.534482
N	-3.141505	-0.10584	-1.642655
N	-0.50103	1.165572	0.770717
O	-0.157131	1.207023	1.946421
O	-1.217067	1.991788	0.206419
Cl	3.20803	0.0	0.0
