14

C	-0.518504	0.157602	-1.408404
C	0.0	0.0	0.0
Cl	-0.135875	-1.335874	-2.293389
H	1.091041	0.0	0.0
H	-0.366617	-0.92331	0.441785
N	-2.06058	0.258067	-1.412854
O	-2.57996	0.899143	-2.312814
O	-2.634336	-0.361126	-0.528714
C	0.017177	1.29596	-2.142386
N	0.445724	2.179543	-2.787668
N	-0.476428	1.106527	0.862949
O	-0.962069	2.097378	0.312786
O	-0.342791	0.955704	2.071012
Cl	3.197633	0.0	0.0
