14

C	-0.512903	0.197601	-1.405171
C	0.0	0.0	0.0
Cl	-0.137668	-1.273791	-2.329428
H	1.107917	0.0	0.0
H	-0.363754	-0.937279	0.414057
N	-2.055418	0.307837	-1.411759
O	-2.566448	0.977036	-2.297076
O	-2.63714	-0.337281	-0.550899
C	0.028665	1.351955	-2.109689
N	0.468375	2.247208	-2.730514
N	-0.480234	1.079646	0.890901
O	-0.374183	0.885781	2.095141
O	-0.938425	2.097665	0.366166
Cl	3.192131	0.0	0.0
