13

C	0.0	0.0	0.0
C	-0.575179	-0.167729	-1.397518
Br	1.941391	0.0	0.0
H	-1.691968	-0.150794	-1.215053
H	-0.34521	0.953785	0.397198
C	-0.413169	-1.098762	0.868001
N	-0.613117	-1.995236	1.600948
C	-0.155008	-1.383554	-2.068625
N	0.146964	-2.3848	-2.604185
N	-0.266631	1.032708	-2.240778
O	-0.213409	2.112427	-1.660433
O	-0.156278	0.86336	-3.451701
Cl	-3.301804	0.0	0.0
