13

C	0.0	0.0	0.0
C	-0.290171	-0.131351	-1.523512
Br	1.944911	0.0	0.0
H	0.223218	0.709611	-1.995561
H	-0.369714	0.961768	0.347013
C	-0.437763	-1.074429	0.881825
N	-0.564327	-1.924044	1.685107
C	-1.631456	-0.198876	-2.127963
N	-2.271153	-0.270841	-3.121675
N	0.42015	-1.35011	-2.091003
O	0.224128	-2.418573	-1.52626
O	1.09512	-1.171437	-3.099301
Cl	-2.989852	0.0	0.0
