13

C	0.0	0.0	0.0
C	-0.275267	0.019701	-1.533116
Br	1.94523	0.0	0.0
H	0.271355	0.884187	-1.916092
H	-0.370581	0.92511	0.434182
C	-0.442125	-1.154959	0.770998
N	-0.516589	-2.078236	1.496639
C	-1.604223	0.060112	-2.163429
N	-2.264464	0.110354	-3.143017
N	0.405668	-1.161554	-2.20581
O	0.181049	-2.271172	-1.740741
O	1.089304	-0.909621	-3.192864
Cl	-2.972091	0.0	0.0
