15

C	0.0	0.0	0.0
C	-0.581129	0.070311	-1.416881
Br	1.947454	0.0	0.0
H	-1.706136	-0.008181	-1.131441
N	-0.504358	1.158646	0.681924
H	-1.5338	0.978213	0.63998
H	-0.191459	1.130095	1.647182
C	-0.352626	-1.26274	0.684747
N	-0.527971	-2.189274	1.388144
N	-0.169304	-1.084444	-2.26443
O	-0.493582	-2.197443	-1.855771
O	0.442178	-0.862987	-3.310087
C	-0.249268	1.322756	-2.067881
N	-0.037431	2.333308	-2.628943
F	-2.732587	0.0	0.0
