15

C	0.0	0.0	0.0
C	-0.568938	0.027811	-1.437287
Br	1.958423	0.0	0.0
H	-1.689274	-0.075317	-1.143304
N	-0.484085	1.101245	0.781694
H	-0.225688	1.971089	0.325263
H	-1.514831	0.955801	0.718903
C	-0.38096	-1.244264	0.689884
N	-0.566969	-2.217961	1.32007
N	-0.105909	-1.096396	-2.295579
O	-0.367859	-2.227461	-1.89363
O	0.490283	-0.83421	-3.341059
C	-0.287307	1.298333	-2.07628
N	-0.10498	2.363681	-2.539075
F	-2.708101	0.0	0.0
