15

C	0.0	0.0	0.0
C	-0.400301	-0.005127	-1.503959
Br	1.956765	0.0	0.0
H	0.058046	-0.889416	-1.950762
N	-0.47002	1.140775	0.708328
H	-1.503184	1.003011	0.617578
H	-0.197455	1.049524	1.681015
C	-0.37885	-1.313262	0.560687
N	-0.564192	-2.359879	1.063887
N	0.254484	1.148126	-2.235496
O	-0.148083	2.27792	-1.99145
O	1.12974	0.853125	-3.0495
C	-1.823322	0.02294	-1.894896
N	-2.604332	0.027051	-2.783653
F	-2.594771	0.0	0.0
