15

C	0.0	0.0	0.0
C	-0.255403	-0.102139	-1.554451
Br	2.042902	0.0	0.0
H	0.476448	0.556019	-2.029135
N	-0.468333	1.140613	0.666856
H	-1.519198	0.921781	0.613958
H	-0.261077	1.961028	0.109397
C	-0.396609	-1.226483	0.693532
N	-0.56397	-2.246363	1.253535
N	-1.564732	0.477005	-2.066796
O	-2.3272	-0.250042	-2.680173
O	-1.635191	1.697555	-1.970857
C	-0.069447	-1.453876	-2.062758
N	0.132802	-2.529817	-2.490349
F	-2.537924	0.0	0.0
