16

C	0.0	0.0	0.0
C	-0.512715	0.121077	-1.435738
Cl	1.793189	0.0	0.0
H	-1.605766	0.224046	-1.305817
H	-0.224924	-0.770676	-1.986753
C	-0.428976	1.172019	0.879095
H	-0.077141	0.985117	1.899062
H	-0.02344	2.123642	0.535698
H	-1.522083	1.164142	0.839481
N	-0.544623	-1.26114	0.444355
H	-1.570128	-1.052365	0.379468
H	-0.320316	-1.356819	1.431726
N	0.031775	1.271518	-2.185814
O	0.814144	1.034761	-3.112093
O	-0.332189	2.405037	-1.863956
F	-2.893488	0.0	0.0
