17
Coordinates from ORCA-job run
  C   -0.65686240245818     -0.06816481430263      0.17602789642917
  C   0.86421273191430     -0.29732495644044      0.18695460250206
  Br  -1.34780046026202     -0.78640890272891      1.94579904251664
  H   1.06923644339948     -1.36377151917375      0.27625479046808
  N   -0.96805235456422      1.29200292148259     -0.03904094639963
  H   -0.58455494009749      1.89245514823358      0.68008187174312
  H   -1.96374715938397      1.44025107398417     -0.13654657725590
  C   -1.29816808836991     -0.93458090081831     -0.89525765599599
  H   -2.38338249834414     -0.81883609962500     -0.86856958180911
  H   -1.06797794048201     -1.98852865237265     -0.73740114343221
  H   -0.93760751668841     -0.62004590069096     -1.87712537122688
  N   1.49250027927213      0.29626384927676      1.43417560688204
  O   1.29601493938531      1.49226634583172      1.64041410644565
  O   2.19193980872454     -0.44300362002347      2.11575452396803
  N   1.53216348123878      0.27445957321910     -0.93773930394483
  H   1.76010481818130     -0.41015102597273     -1.64107506897427
  H   1.00198085853450      1.04411748012094     -1.32370679191598
