17
Coordinates from ORCA-job run
  C   -0.69274960097251      0.41789221419149     -0.05239830753350
  C   0.85288084111065      0.41217655467945     -0.02314524353472
  Br  -1.16713585384245      2.18091855258471      0.79112868509267
  H   1.21414714921377      1.26286737178906     -0.61296898935101
  N   -1.23746196267144      0.40898038721311     -1.36474153614459
  H   -1.43176686055906     -0.52923127430240     -1.68675182351802
  H   -0.67316329642314      0.90610718582328     -2.04074032357847
  C   -1.32183643288021     -0.67552083585460      0.78800384922736
  H   -2.40622572459386     -0.56518063155046      0.75308543339272
  H   -0.98413482248998     -0.63322863432891      1.82052648387436
  H   -1.03893372232726     -1.65119909050440      0.38482441462292
  N   1.29545471690553     -0.77842344816628     -0.86623621483012
  O   1.56365885070691     -0.52237357418616     -2.04117971108770
  O   1.32066507753875     -1.89062536190556     -0.35271379675201
  N   1.38820315790241      0.27197572269994      1.29136570124320
  H   2.38405993086463      0.45411396759309      1.29838184060683
  H   0.93633855251725      0.93075089422464      1.91255953827009
