17
Coordinates from ORCA-job run
  C   -0.75621576010459     -0.12934606427326      0.23461603021524
  C   0.76179710623820     -0.37981911175361      0.07670442576324
  Br  -1.29630242223932     -1.00567590188123      1.92754509178168
  H   0.95859150251101     -1.44828206397720     -0.01342611452202
  N   -1.15989356630019      1.23925624415036      0.29160904028979
  H   -0.57104458028455      1.79533106560868      0.89739491359905
  H   -1.22276660052764      1.64278097707510     -0.63366561055742
  C   -1.48856007783514     -0.82951226991824     -0.89771556688326
  H   -2.56094942985606     -0.67723423035467     -0.77292869845320
  H   -1.16203439729010     -0.40887053829064     -1.85135568821596
  H   -1.28146389603796     -1.89997086701678     -0.89600884712093
  N   1.51258306992417      0.02926068524394      1.33465778182635
  O   2.11532270869374     -0.84005115352360      1.95443982091600
  O   1.49195315691182      1.22952003857041      1.61604811634858
  N   1.24004130448430      0.32733355629441     -1.06778581772586
  H   1.24243522541633      1.32308387912976     -0.88403922244651
  H   2.17650665629596      0.03419575491658     -1.31608965481475
