17
Coordinates from ORCA-job run
  C   -0.64603138558675      0.20309082433321      0.04747324080232
  C   0.88177976335992      0.06765008347676     -0.08819072479098
  Br  -1.11870538824859      0.90937487290950      1.84656886860429
  H   1.02862104281846     -0.37830415933233     -1.07860442737372
  N   -1.06994504214269      1.10525898115244     -0.99324773997345
  H   -1.06460293997969      2.06616360451275     -0.67497281984487
  H   -2.01718752372887      0.88788230426991     -1.27790841822210
  C   -1.33431934216684     -1.14059778815146     -0.11879313324065
  H   -1.03124833147637     -1.84849392337482      0.65023823926977
  H   -2.41503822078965     -1.00459301647844     -0.04474880215688
  H   -1.08725605892985     -1.55772527000796     -1.09898643071670
  N   1.41035024178918     -1.00804058521261      0.83954058626399
  O   1.56361232045846     -2.11698881558092      0.32098091651033
  O   1.63269113945344     -0.72710834285663      2.00981198791156
  N   1.58550414834794      1.28419002643750      0.16045676392923
  H   2.54052648969741      1.21323539788090     -0.16856489559099
  H   1.14124908712448      2.04700580602220     -0.33205321138116
