17
Coordinates from ORCA-job run
  C   -0.64530214552259     -0.04122882565409      0.22146744807981
  C   0.85130350064017     -0.37070218516636      0.08827362003590
  Br  -1.25327140108372     -0.88200960211441      1.96798072038634
  H   0.98332970273795     -1.45198409793967      0.06229241778984
  N   -0.87081177586902      1.35090685545624      0.15873483226368
  H   -0.39158101429169      1.85139095795528      0.89672896724022
  H   -1.85745452149370      1.57331027100565      0.15717466862824
  C   -1.42636963224008     -0.75475543335097     -0.86950309419234
  H   -1.26412871719367     -1.83207291719356     -0.82825440882055
  H   -1.11721426057031     -0.37067908105185     -1.84413812922351
  H   -2.49507564409963     -0.56970259676833     -0.74507360431084
  N   1.61297381021650      0.05564634421590      1.32960920218088
  O   2.30710697295198     -0.79066680312582      1.87934208879464
  O   1.51932569177262      1.23563620665462      1.66180301158402
  N   1.47424225248914      0.26226940953897     -1.02950223524359
  H   1.59866895534695     -0.36383326279487     -1.80911715083459
  H   0.97525822620912      1.09947476033323     -1.29881835435813
