17
Coordinates from ORCA-job run
  C   -0.71274623629077     -0.00028395040673      0.12292848736225
  C   0.76513501051025     -0.39981507990993      0.22394760233659
  Br  -1.49324618138157     -0.32506933216228      1.97365827582289
  H   0.84752303105753     -1.44332707282210      0.52811502708940
  N   -0.85515094201661      1.33496888316464     -0.31106239782327
  H   -1.82365352797703      1.56988774578505     -0.48326204484103
  H   -0.43656117633669      1.99837687468246      0.32820637700410
  C   -1.44198198244353     -0.95008377201355     -0.81044628110429
  H   -1.02408361245973     -0.84538816009601     -1.81212477687337
  H   -1.33486069091317     -1.98202319645822     -0.47635909694083
  H   -2.50664810666214     -0.70774730515455     -0.82803125495615
  N   1.45551475497172      0.34924084407225      1.36680173321393
  O   2.01881876464125     -0.32772543449377      2.22070387030225
  O   1.45985107853347      1.57965423240417      1.31049634459066
  N   1.40173800550708     -0.17707688839872     -1.02606099094330
  H   2.37209672113600     -0.46222936064314     -1.01837764390428
  H   1.30625509012390      0.78964097245042     -1.30913323033551
