17
Coordinates from ORCA-job run
  C   -0.67256287668675      0.27725007655357     -0.12986661586908
  C   0.85526633602707      0.41634172688190     -0.05641208466131
  Br  -1.32982135313241      2.12258109745191      0.55139218709892
  H   1.16660964859313      1.24645664400132     -0.70122754693545
  N   -1.05495870567491      0.04077955666751     -1.45496380655087
  H   -0.69388364896142      0.71367624226624     -2.11850300963166
  H   -2.05338559250691     -0.07049068752340     -1.56478469362201
  C   -1.26805313235516     -0.74608435125597      0.81260615439943
  H   -0.91616544726668     -1.73567521463687      0.51781467798814
  H   -0.96764016447334     -0.56087037212989      1.84067351526373
  H   -2.35779646094503     -0.71167948006500      0.74971527140400
  N   1.44899856205174     -0.79442063154155     -0.76529945763831
  O   1.45446377647491     -1.86825229119828     -0.17774399701485
  O   1.87213407092941     -0.58642104250914     -1.90104221733871
  N   1.33903364294434      0.44164110874274      1.28807747184304
  H   2.32897462785566      0.65469318611522      1.30392678233232
  H   0.84978671712635      1.16147443217972      1.80563736893264
