17
Coordinates from ORCA-job run
  C   -0.69232925846100      0.13086640311008     -0.02337919653514
  C   0.83131366003769      0.10779448848616     -0.23138671287271
  Br  -0.99947825459504      0.77076648850915      1.90774884396040
  H   0.99834493592499     -0.29439855073772     -1.23365830900140
  N   -1.20335170767030      1.03175237409806     -0.97353703299086
  H   -2.20349241621907      1.15461932279515     -0.89095819821693
  H   -0.71751058489257      1.91927892229557     -0.94636630919961
  C   -1.38789702145165     -1.21163467181888     -0.11964183783604
  H   -1.16854045774298     -1.65391913007830     -1.09445397185454
  H   -1.07409773718971     -1.89683530757693      0.66303183572180
  H   -2.46597878648341     -1.05988786500902     -0.03391609406633
  N   1.49075030300405     -0.92418068703466      0.68651233474260
  O   2.12955454968026     -0.50824531570872      1.64732813938415
  O   1.34765614844121     -2.10291922131427      0.36925572154184
  N   1.38878685720157      1.40644534535080     -0.11581972781989
  H   1.38602767888802      1.70177266231599      0.85352591729121
  H   2.33824209152788      1.42872474231753     -0.46328540224852
