17
Coordinates from ORCA-job run
  C   -0.68112149754187      0.17389559679283      0.12263832857705
  C   0.84557068823452      0.08518739658183     -0.16533539359180
  Br  -0.93043525872716      0.84496927225276      1.96123530615688
  H   0.93175777595033     -0.24252923135365     -1.20453608320862
  N   -1.31963799727890      1.12756569256885     -0.74916211039981
  H   -1.37959475290615      0.75487980618533     -1.69081313912711
  H   -0.82540814599818      2.01123106528798     -0.76022122659592
  C   -1.38997912170245     -1.16118159149021     -0.00273191705810
  H   -2.46184232747907     -0.99656499636549      0.10922172344547
  H   -1.19136981635791     -1.59290086261975     -0.98933405564608
  H   -1.05635989766383     -1.87418629331476      0.74836660408585
  N   1.45830750479948     -1.04659678767545      0.62714221849462
  O   1.92649996357536     -0.77803879238106      1.72677006285923
  O   1.41255817582095     -2.16327183901448      0.11020652954825
  N   1.63588295893036      1.25164489760035      0.03023831092745
  H   1.61374390005518      1.87284693064845     -0.76310885486752
  H   1.41242784828934      1.73304973629648      0.89042369640016
