17
Coordinates from ORCA-job run
  C   -0.68139024312172      0.43775943950466     -0.13693536530329
  C   0.85380854941896      0.52586882428178     -0.05819595870684
  Br  -1.31661481843141      2.26241086740286      0.22916334014726
  H   1.18511023757502      1.40834315901575     -0.60185162406640
  N   -1.02671181963590      0.14593397615288     -1.51891622101623
  H   -1.97511637326358      0.44490207382106     -1.70950151879961
  H   -0.98097033617865     -0.85902334290587     -1.66132429566476
  C   -1.31935126727417     -0.47539401454732      0.89983957778195
  H   -2.40351205742575     -0.45232593582253      0.77646135442057
  H   -1.08433879272790     -0.15507498743910      1.91539932094856
  H   -0.96877409055543     -1.49822171137127      0.74491958407573
  N   1.44413454397845     -0.62417597114510     -0.87557617404281
  O   1.07290959968043     -1.76451078340921     -0.58658594955997
  O   2.29496445066403     -0.34335381258747     -1.71270120624996
  N   1.35013093506113      0.52705435024888      1.27359657860125
  H   2.32440893513193      0.79661922424434      1.30663755484899
  H   1.23231254710455     -0.37581135544436      1.71557100258560
