17
Coordinates from ORCA-job run
  C   -0.64506358157233      0.07506112627281      0.21274345582401
  C   0.81547246681053     -0.40698586882186      0.19810479949981
  Br  -1.31514170002798     -0.21854881151209      2.10847382733078
  H   0.85097926368226     -1.46379452490633      0.46109709809365
  N   -0.74669881009939      1.41532802528807     -0.21829661652042
  H   -0.22044545754616      2.04921363331300      0.36990328509423
  H   -1.70970864685372      1.71432734623990     -0.29620495286102
  C   -1.49285973011429     -0.83031410402201     -0.66516964502377
  H   -2.54012109683105     -0.52642054891959     -0.61282773346508
  H   -1.42662727939172     -1.86831389883265     -0.33837438947005
  H   -1.15665885208438     -0.74592061115676     -1.70095608751906
  N   1.61944320598072      0.26429463725230      1.29625646332000
  O   1.63267232313664      1.49364004396967      1.30403030168108
  O   2.23927798646871     -0.46381190297469      2.06174294199443
  N   1.48575875961274     -0.14865680720552     -1.03588650367238
  H   1.54831047232507     -0.96726873924049     -1.62016973845539
  H   1.06041067650438      0.62717100525624     -1.52546650585081
