17
Coordinates from ORCA-job run
  C   -0.66205064959584      0.39361076120430     -0.16506576048280
  C   0.86370244679236      0.40946848231039      0.00046952670404
  Br  -1.23420174111606      2.16584883059195      0.51927471638205
  H   1.24772174629850      1.25873565217391     -0.57811916036786
  N   -0.96398838453610      0.41300442548548     -1.58207228564316
  H   -1.92960920823641      0.68503054194961     -1.72333688454777
  H   -0.83820588885388     -0.52610486741407     -1.94464712493763
  C   -1.37591868102139     -0.66177311460576      0.66437266878910
  H   -1.11110647860652     -0.59627532865120      1.71893580721557
  H   -1.09264052130623     -1.64839634620988      0.29412119242872
  H   -2.45545086310095     -0.53900482811233      0.55727168960645
  N   1.52712354584295     -0.78701970593431     -0.66369048624474
  O   2.75316197308967     -0.75350379028065     -0.64620547311527
  O   0.85059247566903     -1.69009473427126     -1.14931651660437
  N   1.28428401624708      0.33440619820034      1.37722187737463
  H   0.84694694260927      1.08465469831639      1.89773832914096
  H   2.28863926982450      0.45841312524711      1.42404788430206
