17
Coordinates from ORCA-job run
  C   -0.78023124488944     -0.12815575385020      0.27144635801036
  C   0.75164755580228     -0.26945156067457      0.19951857441468
  Br  -1.34044830467353     -1.03009507510900      1.92766626065402
  H   1.02984741309522     -1.32294795084245      0.32638480149058
  N   -1.31307102262227      1.20829400187959      0.27270427985946
  H   -0.97454769345295      1.67431656140838     -0.56423410628865
  H   -0.95656457271671      1.71509527611878      1.07326310767051
  C   -1.39189712585830     -0.89841160714093     -0.89156443970750
  H   -1.19597861414839     -0.37017623309321     -1.82971472102665
  H   -2.47140354311926     -0.93909252024656     -0.75312306366321
  H   -1.00167240391247     -1.91661887134196     -0.95573100830368
  N   1.50473697694389      0.42448423524281      1.31361744779009
  O   2.69588885169233      0.12507701930487      1.37548210306538
  O   0.93841632830272      1.23282410092044      2.04012819397739
  N   1.24603547962688      0.35054488853414     -1.01775376610406
  H   2.25996267820478      0.37492420990533     -0.97894861382887
  H   0.99727924172523     -0.23061072101548     -1.80914140800982
