17
Coordinates from ORCA-job run
  C   -0.71924745565768     -0.01678442462569      0.23146657240433
  C   0.79617555856433     -0.28787787805809      0.20701443969976
  Br  -1.39909762942608     -0.91785207034545      1.95069198723632
  H   0.97641140762434     -1.28697008750276      0.62545848501398
  N   -1.04341657026868      1.34387957341432      0.14824190620239
  H   -0.73942166786027      1.86986250489366      0.95521741272879
  H   -2.03025456826511      1.48678626272501     -0.01758990302767
  C   -1.38680734385732     -0.79057014303863     -0.89416208842728
  H   -2.47123435255600     -0.73781472222281     -0.78432455010234
  H   -1.10539010619465     -1.84488048648021     -0.87315776212934
  H   -1.09881108296182     -0.33889415120407     -1.84498253078599
  N   1.58169752461874      0.62081429796199      1.13688832858724
  O   2.79836351138985      0.62461706351871      0.97203700755999
  O   0.98902344583498      1.23554040792136      2.01655673394988
  N   1.33419816327026     -0.08479821986429     -1.11989812414423
  H   2.33642067846629      0.04536791617414     -1.04040548165648
  H   1.18039048727885     -0.92042584326716     -1.67005243310940
