17
Coordinates from ORCA-job run
  C   -0.60045797761715      0.22520095611876      0.00722614435953
  C   0.94010796929644      0.07764404717637     -0.10741936853066
  Br  -1.06653789880347      1.06332476219467      1.71588124473885
  H   1.12247629572260     -0.29880382817047     -1.11889930635095
  N   -0.94059619257068      1.18907095793430     -1.03458116466649
  H   -1.86456052139208      1.56986926661196     -0.86576580898874
  H   -0.96688415209547      0.70201400123258     -1.92689159104131
  C   -1.34748535969225     -1.09561283348409     -0.09202007736821
  H   -1.05248752597416     -1.60958013400257     -1.01266627252440
  H   -2.42175746701561     -0.90369401810664     -0.12234482149594
  H   -1.13687227716038     -1.75792584610311      0.74750966256347
  N   1.41840948064130     -1.02329590123928      0.79031516471009
  O   1.75238082181478     -0.71474157495642      1.93006909137547
  O   1.40857144735280     -2.16172854734720      0.32404804549824
  N   1.73838075449770      1.23889201464999      0.12534474048098
  H   1.36558464865006      1.98297073335444     -0.45367904439466
  H   1.65172795434554      1.51439594413672      1.09687336163467
