17
Coordinates from ORCA-job run
  C   -0.70503582174181      0.34136812611233     -0.14236672630505
  C   0.82931268776824      0.49334690602107     -0.12195669495132
  Br  -1.37935288925204      2.23087315084354      0.20293207109969
  H   1.12726221741605      1.30706300654043     -0.78342727142571
  N   -1.11914740787776     -0.15522879479269     -1.39573960706033
  H   -2.12343434413358     -0.26186221030128     -1.44609459362799
  H   -0.79521078956435      0.40302233779587     -2.17586085633208
  C   -1.24876133751019     -0.51717587352506      0.98168232570160
  H   -0.98965703703020     -0.09733794226909      1.95185467562730
  H   -0.84521069705302     -1.52786597413234      0.88527367843252
  H   -2.33749643764615     -0.56342642019592      0.91475212132127
  N   1.40021187236746     -0.75627642505209     -0.80670464894276
  O   1.69970068473467     -0.65623741964846     -1.99216800444248
  O   1.51772228272624     -1.76368272356024     -0.11290012511085
  N   1.34800823483438      0.68307301341736      1.18241271347293
  H   1.32227541914651     -0.18331041903550      1.70543169316777
  H   2.29981336281561      1.02265766178208      1.15187924937551
