17
Coordinates from ORCA-job run
  C   -0.66807909632879      0.23945143476584      0.07613820932605
  C   0.84399067114670      0.18238687860649     -0.22029968023388
  Br  -0.95784780669962      0.86532564843868      1.93427394630579
  H   0.95444753680298     -0.17492288573928     -1.25029622444126
  N   -1.22529363591628      1.25622103435940     -0.78158696298442
  H   -2.23352741156233      1.27771754007674     -0.68046394237805
  H   -0.99499896247075      1.06122337690447     -1.75009134926929
  C   -1.34545839986260     -1.12160416888124     -0.03107333534640
  H   -2.41955590909652     -0.98843093424184      0.11209114827307
  H   -1.17109584770300     -1.53210417593352     -1.03033336466619
  H   -0.98840485407181     -1.84010854191954      0.70483570973111
  N   1.46670617290817     -0.97708233106397      0.58328720333772
  O   1.98197452365963     -0.70308717877407      1.66221017178575
  O   1.41831988864262     -2.09236313499640      0.06662406797726
  N   1.50368873189042      1.41109063715087     -0.04585413710406
  H   1.33925668505976      1.79844762793901      0.87300533930495
  H   2.49587771360138      1.33883917330832     -0.22246679961817
