17
Coordinates from ORCA-job run
  C   -0.69230030625378      0.13168962804363     -0.01387680256601
  C   0.82851329983123      0.10767616414358     -0.24160389678297
  Br  -0.97137343905588      0.75488688890318      1.92890515635602
  H   0.98180739449533     -0.28768073410173     -1.24881233407415
  N   -1.21379831204625      1.04210689404572     -0.94772845134754
  H   -2.21275803223836      1.16551680514459     -0.85398557926327
  H   -0.72526594315699      1.92806020676850     -0.92131173881140
  C   -1.39256270979112     -1.20815056535083     -0.11147260915815
  H   -1.06956094344565     -1.90061126874869      0.66093710405974
  H   -2.46888923037381     -1.05432364310680     -0.00894494442516
  H   -1.18825268703978     -1.64275638307669     -1.09301593074024
  N   1.49848369550514     -0.93179064913488      0.66003220692134
  O   1.34806010573708     -2.10802896365945      0.33688727984237
  O   2.15341994442925     -0.52382024433355      1.61332619927818
  N   1.38932717602430      1.40473312608317     -0.12378582594108
  H   1.39995591673485      1.69213380050876      0.84792371361059
  H   2.33419407064443      1.42835893787144     -0.48347354695826
