16

C	0.0	0.0	0.0
C	-0.230253	-0.015554	-1.577096
Br	1.970882	0.0	0.0
H	0.540794	0.68541	-1.930426
C	-0.511793	1.229815	0.582469
N	-0.584097	2.32139	1.036581
C	-0.482167	-1.178235	0.698796
N	-0.549409	-2.195204	1.299661
C	-1.535842	0.484033	-2.173309
H	-2.339987	-0.231768	-2.025652
H	-1.367888	0.624907	-3.254804
H	-1.825947	1.443244	-1.746003
N	-0.00372	-1.381601	-2.047206
H	0.100416	-1.35182	-3.054942
H	0.877888	-1.71684	-1.671759
H	-1.910863	0.0	0.0
