16

C	0.0	0.0	0.0
C	-0.229753	0.222742	-1.56186
Br	1.970775	0.0	0.0
H	0.550022	0.958323	-1.809276
C	-0.523126	1.125294	0.758619
N	-0.583019	2.142042	1.365243
C	-0.474277	-1.273115	0.515007
N	-0.542569	-2.3575	0.983139
C	-1.530925	0.821792	-2.073863
H	-1.810899	1.707556	-1.503685
H	-1.356287	1.12445	-3.120569
H	-2.344154	0.100489	-2.036081
N	-0.020543	-1.060679	-2.226781
H	0.909422	-1.400886	-2.00387
H	-0.055113	-0.904794	-3.229679
H	-1.911011	0.0	0.0
