16

C	0.0	0.0	0.0
C	-0.307818	0.083095	-1.596523
Br	1.966807	0.0	0.0
H	0.633275	-0.217968	-2.059477
C	-0.477962	1.117426	0.792329
N	-0.555154	2.099838	1.446845
C	-0.437602	-1.281572	0.532267
N	-0.526852	-2.399206	0.905878
C	-0.592143	1.52582	-1.975816
H	0.199666	2.189928	-1.618622
H	-0.656948	1.59331	-3.064287
H	-1.540242	1.845781	-1.538161
N	-1.305021	-0.806095	-2.156955
H	-1.008458	-1.765386	-1.998771
H	-2.142369	-0.670605	-1.590251
H	-2.051891	0.0	0.0
