16

C	0.0	0.0	0.0
C	-0.297606	-0.049886	-1.562443
Br	1.976272	0.0	0.0
H	-1.38695	-0.089281	-1.600121
C	-0.7305	1.149489	0.568177
N	-0.737281	2.259844	1.006403
C	-0.428243	-1.236647	0.653238
N	-0.503198	-2.283288	1.194345
C	0.236693	-1.279032	-2.274551
H	-0.090819	-2.193398	-1.772327
H	-0.17196	-1.292188	-3.291914
H	1.323407	-1.269406	-2.344573
N	0.232694	1.168196	-2.187162
H	-0.20179	1.242598	-3.101894
H	-0.090959	1.967561	-1.647188
H	-2.111572	0.0	0.0
