16

C	0.0	0.0	0.0
C	-0.340935	-0.228132	-1.536846
Br	1.959081	0.0	0.0
H	0.608832	-0.495182	-2.00207
C	-0.495855	1.260528	0.536806
N	-0.558788	2.360041	0.969831
C	-0.405868	-1.113553	0.853974
N	-0.484795	-2.024361	1.599145
C	-0.813408	1.06494	-2.200005
H	-0.915405	0.88815	-3.277963
H	-1.778892	1.36206	-1.787825
H	-0.094323	1.877911	-2.053323
N	-1.185777	-1.399634	-1.744423
H	-1.292185	-1.5325	-2.74639
H	-2.087798	-1.183741	-1.324419
H	-2.085131	0.0	0.0
