16

C	0.0	0.0	0.0
C	-0.267691	0.0203	-1.564618
Br	1.988697	0.0	0.0
H	-1.346603	0.126774	-1.636134
C	-0.445498	1.231855	0.64537
N	-0.516935	2.264584	1.213113
C	-0.587309	-1.171308	0.642792
N	-0.62119	-2.226503	1.18844
C	0.128112	-1.292142	-2.237009
H	-0.25536	-1.277461	-3.261894
H	-0.303329	-2.153217	-1.721802
H	1.211065	-1.418651	-2.27957
N	0.314806	1.217284	-2.15655
H	1.287714	1.06779	-2.395953
H	-0.198527	1.439285	-3.003719
H	-2.080608	0.0	0.0
