16

C	0.0	0.0	0.0
C	-0.222789	0.001682	-1.579479
Br	1.970413	0.0	0.0
H	0.553622	0.699395	-1.923737
C	-0.500738	1.224713	0.604707
N	-0.577608	2.300102	1.095296
C	-0.4861	-1.188007	0.681149
N	-0.549659	-2.219325	1.2572
C	-1.523215	0.510706	-2.181483
H	-1.809501	1.474134	-1.75852
H	-2.333453	-0.200997	-2.036056
H	-1.348335	0.649573	-3.263185
N	0.000391	-1.362873	-2.06042
H	0.083386	-1.324998	-3.070102
H	0.889235	-1.699346	-1.698706
H	-1.908813	0.0	0.0
