16

C	0.0	0.0	0.0
C	-0.309933	0.407723	-1.545245
Br	1.966597	0.0	0.0
H	0.638138	0.25325	-2.056085
C	-0.456095	0.930444	1.015134
N	-0.572056	1.754937	1.853955
C	-0.448169	-1.360035	0.268517
N	-0.517544	-2.530067	0.426212
C	-0.643062	1.885232	-1.624825
H	0.146252	2.489948	-1.163624
H	-0.733977	2.158979	-2.680348
H	-1.583725	2.095173	-1.112993
N	-1.27573	-0.387488	-2.275661
H	-0.935056	-1.341377	-2.317763
H	-2.11117	-0.404931	-1.690306
H	-2.038679	0.0	0.0
