16

C	0.0	0.0	0.0
C	-0.291598	-0.257346	-1.538119
Br	1.959407	0.0	0.0
H	-1.366069	-0.110983	-1.614073
C	-0.455709	1.32779	0.413837
N	-0.535824	2.435667	0.812261
C	-0.597545	-1.023564	0.853758
N	-0.606434	-1.94247	1.607456
C	0.024662	-1.693181	-1.946079
H	-0.503048	-2.40923	-1.310628
H	-0.307107	-1.836801	-2.980386
H	1.095751	-1.904576	-1.896459
N	0.339704	0.771875	-2.352379
H	1.28225	0.505845	-2.611729
H	-0.206215	0.897522	-3.195167
H	-2.12438	0.0	0.0
