16

C	0.0	0.0	0.0
C	-0.343987	-0.232749	-1.535113
Br	1.959288	0.0	0.0
H	0.60687	-0.490281	-2.005413
C	-0.491303	1.265084	0.53105
N	-0.554102	2.366863	0.957089
C	-0.407063	-1.107155	0.861242
N	-0.48597	-2.012328	1.613619
C	-0.83218	1.053661	-2.201459
H	-1.795347	1.351092	-1.783355
H	-0.114729	1.871027	-2.068105
H	-0.942616	0.866975	-3.276233
N	-1.177026	-1.414624	-1.735541
H	-1.286438	-1.551893	-2.736536
H	-2.080714	-1.206778	-1.313407
H	-2.08478	0.0	0.0
