16

C	0.0	0.0	0.0
C	-0.34877	-0.113283	-1.547738
Br	1.959234	0.0	0.0
H	0.602843	-0.314256	-2.04286
C	-0.481399	1.224592	0.626225
N	-0.551951	2.289654	1.135596
C	-0.410531	-1.16515	0.77917
N	-0.481408	-2.118518	1.470195
C	-0.871696	1.208931	-2.109624
H	-0.16999	2.029083	-1.926671
H	-1.834102	1.448419	-1.656677
H	-0.994163	1.100856	-3.193737
N	-1.163457	-1.29117	-1.829458
H	-1.288088	-1.350523	-2.835903
H	-2.06244	-1.126846	-1.380106
H	-2.085568	0.0	0.0
