15

C	0.0	0.0	0.0
C	-0.374017	-0.708274	-1.34038
F	1.407723	0.0	0.0
H	-0.670211	-1.729705	-1.089782
H	0.568114	-0.75985	-1.895655
N	-0.439228	1.375951	-0.037148
H	-0.157168	1.807412	0.839675
H	-1.462896	1.254306	-0.005595
N	-0.462839	-0.787509	1.112941
H	-0.274534	-0.261486	1.963744
H	-1.485151	-0.749053	0.959099
N	-1.396963	-0.121611	-2.190849
H	-1.111536	0.836316	-2.364253
H	-2.221651	-0.067025	-1.577406
F	-2.873585	0.0	0.0
