15

C	0.0	0.0	0.0
C	-0.418271	0.125369	-1.465822
F	1.379539	0.0	0.0
H	0.036981	-0.71786	-2.002581
H	-1.505741	0.023776	-1.443634
N	-0.500551	1.142078	0.713861
H	-0.295776	0.973073	1.695115
H	-1.524972	1.015027	0.590704
N	-0.471222	-1.220924	0.610336
H	-1.495164	-1.08803	0.542982
H	-0.220578	-1.998611	0.004611
N	0.052653	1.395025	-2.057271
H	0.097169	2.047894	-1.277995
H	-0.688172	1.740155	-2.6583
F	-2.871227	0.0	0.0
