15

C	0.0	0.0	0.0
C	-0.281132	0.174179	-1.566954
F	1.410397	0.0	0.0
H	0.586033	-0.27046	-2.065729
H	-0.258066	1.25523	-1.747924
N	-0.399965	1.177528	0.722765
H	0.310957	1.894564	0.614814
H	-0.523916	0.974153	1.715226
N	-0.62374	-1.182165	0.4661
H	-1.64145	-0.918008	0.343978
H	-0.451681	-1.275214	1.46639
N	-1.502264	-0.37496	-2.105784
H	-2.266996	-0.039251	-1.485647
H	-1.473662	-1.373772	-1.915386
F	-3.041538	0.0	0.0
