15

C	0.0	0.0	0.0
C	-0.236303	-0.091434	-1.533279
F	1.408121	0.0	0.0
H	-0.048043	-1.147712	-1.797537
H	0.574483	0.493236	-1.991837
N	-0.615402	1.105823	0.647379
H	-1.625911	0.825978	0.606718
H	-0.555096	1.898522	0.017326
N	-0.424751	-1.20038	0.663632
H	0.323664	-1.87899	0.600789
H	-0.612021	-0.98227	1.634191
N	-1.517591	0.432629	-1.974788
H	-2.256078	0.177377	-1.270305
H	-1.749565	-0.002442	-2.859295
F	-3.113965	0.0	0.0
