14

C	0.0	0.0	0.0
C	-0.591326	0.097501	-1.426411
F	1.393078	0.0	0.0
H	-0.423014	1.076954	-1.887024
H	-1.682099	-0.055268	-1.246518
C	-0.465308	1.200878	0.722299
N	-0.416499	2.266085	1.226439
N	-0.441387	-1.202084	0.581839
H	-0.531347	-1.961316	-0.082695
H	0.093398	-1.453089	1.394737
N	-0.106302	-0.905972	-2.435852
O	1.078016	-0.89041	-2.790484
O	-0.976034	-1.600313	-2.971975
H	-2.825015	0.0	0.0
