14

C	0.0	0.0	0.0
C	-0.551603	0.08246	-1.400659
F	1.400611	0.0	0.0
H	-0.372518	-0.855079	-1.920925
H	-1.657516	0.231409	-1.234696
C	-0.325384	1.199804	0.830696
N	-0.483469	2.066242	1.608362
N	-0.526648	-1.201956	0.555541
H	-0.326484	-1.206653	1.552391
H	-1.564148	-1.05191	0.463449
N	0.014342	1.159451	-2.223526
O	0.107294	0.943351	-3.435435
O	0.31075	2.225299	-1.682591
H	-2.909477	0.0	0.0
