14

C	0.0	0.0	0.0
C	-0.506398	-0.040754	-1.433011
F	1.382522	0.0	0.0
H	-1.611336	-0.021512	-1.349194
H	-0.08286	0.786353	-2.001287
C	-0.338574	1.359298	0.54219
N	-0.47826	2.433182	0.999362
N	-0.542776	-1.078272	0.730105
H	-0.349648	-0.945446	1.718431
H	-1.582637	-0.952541	0.596211
N	-0.058532	-1.284414	-2.104056
O	1.00673	-1.229531	-2.727397
O	-0.768988	-2.282006	-2.018468
H	-2.939565	0.0	0.0
