12
Coordinates from ORCA-job run
  C   0.05246276186854      0.03687830491935      0.24353089348780
  C   -0.99536397748109     -0.78151796976054     -0.48176495000894
  Br  0.04161521139638     -0.58530334361610      2.18026898612925
  H   -1.96387734065014     -0.63972357137008     -0.00688833112980
  H   -1.04380295432355     -0.43776609542940     -1.51917765452020
  H   -0.74234132124505     -1.84309966760862     -0.47555497897948
  N   -0.34356054586368      1.42146798448676      0.31053442851145
  H   -0.22701132881482      1.81776088642450     -0.61741126914705
  H   0.24737404201411      1.93348196033763      0.95461650814248
  N   1.33221378872457     -0.15131350091737     -0.35117125515906
  H   2.05004205625896      0.35684833483811      0.15095018912659
  H   1.59124960811575     -1.12971332230423     -0.38793256645303
