12
Coordinates from ORCA-job run
  C   0.03596779276410     -0.07328627634039      0.34150484492170
  C   -1.00943285289893     -0.72496989932911     -0.54182202964693
  Br  -0.13267813380927     -0.78741300143342      2.17257444584291
  H   -2.00724102525347     -0.49743685657880     -0.17089985469857
  H   -0.85392939057344     -1.80190751211768     -0.57344375405909
  H   -0.91674414393106     -0.32867043907855     -1.56049742270919
  N   -0.25328324587059      1.34344245533834      0.45295163631284
  H   0.42754822034257      1.80032206038123      1.04894299826069
  H   -0.20542800502311      1.76089478639068     -0.47153934314593
  N   1.35476039799896     -0.47537376276749     -0.10829456289395
  H   1.48725849327094     -0.15374818532990     -1.06235986029226
  H   2.07220189298332     -0.05985336913488      0.47488290210779
