12
Coordinates from ORCA-job run
  C   0.18417099198574      0.04089248185534      0.39493975993820
  C   -0.90462467723870     -0.67486160527571     -0.40470675410314
  Br  0.04042931896320     -0.65962525246974      2.25172846276104
  H   -0.75519532193117     -1.75653566141478     -0.40079497776551
  H   -0.85999636041820     -0.31592223153762     -1.43927528193688
  H   -1.89752277289052     -0.46455893924528     -0.00184894239340
  N   0.02269087138861      1.47062420699420      0.47301399986575
  H   0.22401174411428      1.88808422162585     -0.42986764235607
  H   -0.92991990458923      1.70055107176202      0.72730940592362
  N   1.52682153963135     -0.23055075223772     -0.05225297270323
  H   1.65856786962570     -1.22678919787356     -0.17536088804392
  H   1.69056670135893      0.22769165781699     -0.94288416918646
