18

C	-0.220271	0.040936	-1.516928
C	0.0	0.0	0.0
F	-1.596134	0.080035	-1.82124
H	1.092065	0.0	0.0
C	0.461415	1.241857	-2.14276
H	-0.055435	2.166794	-1.895267
H	0.474351	1.117821	-3.228788
H	1.478533	1.272991	-1.745817
C	0.377387	-1.242163	-2.068927
H	-0.179557	-2.114526	-1.723115
H	0.35609	-1.220083	-3.161244
H	1.408304	-1.292364	-1.708648
C	-0.558481	-1.195214	0.603162
N	-0.950382	-2.203898	1.062047
N	-0.515464	1.196358	0.713472
O	0.006038	2.277244	0.445167
O	-1.411825	1.04843	1.547679
F	2.53741	0.0	0.0
