18

C	-0.355967	-0.078682	-1.503065
C	0.0	0.0	0.0
F	0.049642	1.126239	-2.08402
H	1.092144	0.0	0.0
C	0.506259	-1.173723	-2.101963
H	0.165923	-2.160557	-1.779493
H	0.457533	-1.115342	-3.193416
H	1.527549	-1.003255	-1.742805
C	-1.840032	-0.205279	-1.781299
H	-2.373887	0.651591	-1.363851
H	-2.003966	-0.226923	-2.862655
H	-2.244894	-1.11717	-1.338263
C	-0.50948	-1.171785	0.685228
N	-0.892029	-2.165917	1.183971
N	-0.570085	1.228734	0.612034
O	-1.621557	1.134783	1.258495
O	0.030257	2.278624	0.413199
F	2.53093	0.0	0.0
