18

C	-0.371906	-0.025582	-1.498939
C	0.0	0.0	0.0
F	0.035309	1.193326	-2.051282
H	1.092153	0.0	0.0
C	0.474166	-1.110486	-2.142995
H	1.502864	-0.955643	-1.800728
H	0.13418	-2.105915	-1.842888
H	0.406104	-1.022512	-3.23025
C	-1.863353	-0.134297	-1.757807
H	-2.047807	-0.119413	-2.83567
H	-2.387073	0.712357	-1.302549
H	-2.266642	-1.059888	-1.338088
C	-0.498291	-1.200924	0.64348
N	-0.869949	-2.217817	1.104409
N	-0.564511	1.20132	0.66829
O	-1.568355	1.066585	1.379987
O	-0.005964	2.271478	0.449315
F	2.525166	0.0	0.0
