18

C	-0.355122	0.08198	-1.507006
C	0.0	0.0	0.0
F	-0.226872	-1.250482	-1.948319
H	1.091473	0.0	0.0
C	-1.789082	0.47582	-1.788925
H	-2.472058	-0.194557	-1.265148
H	-1.978565	0.388427	-2.861688
H	-1.974247	1.501994	-1.476798
C	0.683947	0.882586	-2.26453
H	1.664663	0.615987	-1.861965
H	0.528262	1.951212	-2.12482
H	0.607589	0.634345	-3.326491
C	-0.577742	-1.168961	0.632275
N	-1.02071	-2.144201	1.11765
N	-0.397025	1.215131	0.746544
O	-0.772526	1.091984	1.912461
O	-0.267276	2.302001	0.179404
F	2.513262	0.0	0.0
