18

C	-0.372714	-0.029102	-1.498275
C	0.0	0.0	0.0
F	0.041259	1.18506	-2.055652
H	1.09221	0.0	0.0
C	0.466974	-1.121513	-2.139427
H	0.122039	-2.114129	-1.836837
H	1.497826	-0.97132	-1.798551
H	0.398467	-1.036535	-3.227253
C	-1.865372	-0.130432	-1.755867
H	-2.273872	-1.051477	-1.331419
H	-2.383775	0.721714	-1.304508
H	-2.050874	-0.119942	-2.833605
C	-0.497566	-1.199936	0.645679
N	-0.868379	-2.215349	1.110232
N	-0.563834	1.202038	0.666639
O	-1.561223	1.066612	1.387963
O	-0.00939	2.273325	0.440159
F	2.523206	0.0	0.0
