18

C	-0.444503	-0.005288	-1.473198
C	0.0	0.0	0.0
F	0.056172	1.16397	-2.054261
H	1.092136	0.0	0.0
C	0.252399	-1.173413	-2.141724
H	0.13081	-1.095544	-3.225454
H	1.308463	-1.116178	-1.864634
H	-0.165393	-2.124746	-1.803999
C	-1.94868	0.038169	-1.66486
H	-2.352655	0.958675	-1.238171
H	-2.183696	0.017799	-2.732273
H	-2.431827	-0.808279	-1.173078
C	-0.533121	-1.160672	0.68567
N	-0.947679	-2.135585	1.196313
N	-0.506773	1.237386	0.661322
O	0.17418	2.251797	0.534023
O	-1.589559	1.187965	1.261974
F	2.517852	0.0	0.0
