13

C	-0.371439	-0.062413	-1.354968
C	0.122121	-0.190081	0.052522
Br	0.349499	-1.509285	-2.421205
H	1.133422	0.205573	-0.024315
H	-0.026646	0.870247	-1.79991
H	0.064609	-1.190496	0.470861
N	-1.86627	-0.125584	-1.493197
O	-2.365303	0.545712	-2.391921
O	-2.47904	-0.859741	-0.723564
N	-0.597149	0.720191	0.932012
O	-1.099984	1.727935	0.41692
O	-0.570189	0.490622	2.144368
H	2.281849	1.069306	-0.610462
