13

C	-0.687168	-0.144368	-1.367386
C	-0.036458	-0.00477	-0.022237
Br	-0.424629	1.48595	-2.396463
H	1.051578	0.067576	-0.025726
H	-1.75964	-0.324225	-1.337638
H	-0.350193	0.916003	0.466354
N	-0.145474	-1.281283	-2.2024
O	1.037918	-1.561808	-2.098956
O	-0.958934	-1.81178	-2.957093
N	-0.429601	-1.10885	0.82376
O	-0.766517	-2.177386	0.274507
O	-0.306947	-0.962268	2.046645
H	2.441785	0.441599	0.216549
