15

C	0.0	0.0	0.0
C	-0.481685	-0.231155	-1.433589
Br	2.030043	0.0	0.0
H	-0.176945	0.603821	-2.072491
H	-1.582847	-0.232946	-1.363923
N	-0.491946	1.240059	0.425727
H	-0.174209	2.026362	-0.121694
H	-0.386686	1.407065	1.414396
C	-0.457465	-1.104552	0.927174
H	-0.062403	-2.070127	0.609775
H	-1.55327	-1.107618	0.898126
H	-0.115453	-0.910016	1.947215
C	-0.002854	-1.474563	-2.023631
N	0.378139	-2.474021	-2.507339
Br	-3.960382	0.0	0.0
