15

C	0.0	0.0	0.0
C	-0.476394	-0.480113	-1.375425
Br	1.964786	0.0	0.0
H	-0.115153	0.218652	-2.134346
H	-1.576076	-0.440344	-1.355362
N	-0.461762	1.359519	0.143164
H	-0.203442	1.696416	1.065868
H	-1.486371	1.320598	0.117026
C	-0.437996	-0.947101	1.108436
H	-0.117389	-0.551252	2.075264
H	-1.53113	-0.997048	1.085515
H	-0.015594	-1.94651	0.982392
C	-0.050742	-1.834292	-1.704659
N	0.287255	-2.926988	-1.9696
Br	-3.813704	0.0	0.0
