15

C	0.0	0.0	0.0
C	-0.544144	0.012201	-1.412106
Br	1.94841	0.0	0.0
H	-1.646809	0.073693	-1.255108
H	-0.130798	0.825034	-1.995789
N	-0.270594	1.466531	0.570675
O	-0.311881	2.410239	-0.211275
O	-0.377824	1.542112	1.787775
N	-0.613693	-0.968492	0.757066
H	-0.40148	-0.841632	1.741462
H	-1.666682	-0.783959	0.588386
N	-0.222866	-1.243374	-2.123932
O	0.702605	-1.203152	-2.946173
O	-0.904547	-2.237146	-1.884235
H	-2.923813	0.0	0.0
