15

C	0.0	0.0	0.0
C	-0.523456	0.006173	-1.427632
Br	1.935566	0.0	0.0
H	-0.03693	0.758201	-2.040557
H	-1.614317	0.143909	-1.313922
N	-0.26977	1.489557	0.539722
O	-0.286832	2.418586	-0.259248
O	-0.419985	1.586583	1.749708
N	-0.669951	-0.934666	0.729953
H	-1.762636	-0.660733	0.5124
H	-0.476616	-0.823342	1.723227
N	-0.30161	-1.30993	-2.074312
O	-1.189617	-2.157769	-1.997056
O	0.761732	-1.461741	-2.683441
H	-2.860765	0.0	0.0
