15

C	0.0	0.0	0.0
C	-0.605313	0.085082	-1.38277
Br	1.937567	0.0	0.0
H	-0.538901	-0.889025	-1.866069
H	-1.702473	0.261634	-1.148927
N	-0.372137	1.281479	0.801211
O	-0.107723	1.268956	1.994996
O	-0.894335	2.201058	0.185988
N	-0.573279	-1.069878	0.726899
H	-0.375921	-1.938682	0.239864
H	-1.613757	-0.870046	0.644683
N	-0.102902	1.055902	-2.377796
O	-0.519317	0.880715	-3.527674
O	0.653566	1.965461	-2.04253
H	-2.938896	0.0	0.0
