15

C	0.0	0.0	0.0
C	-0.544285	-0.012046	-1.434516
Br	1.926097	0.0	0.0
H	-0.235113	0.881323	-1.969976
H	-1.65505	-0.058259	-1.276265
N	-0.61322	1.257228	0.521357
O	-0.335595	2.313841	-0.089899
O	-1.760456	1.000371	1.080918
N	-0.407225	-1.088564	0.831133
H	-0.181897	-1.949037	0.346688
H	-1.423927	-1.013934	0.896707
N	-0.136078	-1.17874	-2.212277
O	-0.484855	-2.302208	-1.82113
O	0.536839	-0.984084	-3.230393
H	-2.861965	0.0	0.0
