17

C	-0.323619	0.014736	-1.493445
C	0.0	0.0	0.0
F	-1.719077	0.145893	-1.650113
H	1.094886	0.0	0.0
N	0.282575	1.157007	-2.123261
H	0.084252	1.94178	-1.505282
H	1.290733	1.009883	-2.045819
C	0.122411	-1.262264	-2.163537
H	-0.023689	-1.165692	-3.240863
H	1.180955	-1.427062	-1.941831
H	-0.457774	-2.108424	-1.791398
C	-0.516129	-1.179975	0.687996
N	-0.937193	-2.110247	1.273199
N	-0.402511	1.256636	0.629967
H	0.270507	1.468472	1.358421
H	-1.323393	1.181674	1.04108
H	2.761967	0.0	0.0
