17

C	-0.254079	0.058096	-1.505988
C	0.0	0.0	0.0
F	-1.612113	0.382396	-1.758553
H	1.097794	0.0	0.0
N	0.54359	1.149343	-1.997144
H	0.636169	1.071603	-3.003757
H	1.478687	1.050675	-1.583461
C	0.006374	-1.270179	-2.186819
H	1.034715	-1.573871	-1.969243
H	-0.116929	-1.153282	-3.268752
H	-0.68391	-2.039604	-1.835018
C	-0.551037	-1.203309	0.610992
N	-0.992321	-2.176367	1.1018
N	-0.435201	1.193067	0.720833
H	0.358787	1.825053	0.734551
H	-1.170775	1.6416	0.183643
H	2.744075	0.0	0.0
