17

C	-0.492387	0.057026	-1.442099
C	0.0	0.0	0.0
F	-0.06891	-1.150855	-2.053222
H	1.093744	0.0	0.0
N	-1.922436	0.135219	-1.49666
H	-2.213858	0.200958	-2.466139
H	-2.307524	-0.722877	-1.113942
C	0.169753	1.187791	-2.189244
H	1.250798	1.086674	-2.070589
H	-0.095085	1.131751	-3.250447
H	-0.152601	2.138808	-1.76974
C	-0.504222	-1.216838	0.647547
N	-0.961426	-2.151942	1.196597
N	-0.368524	1.222659	0.707338
H	-1.293281	1.153621	1.11074
H	0.316585	1.368983	1.440949
H	2.801006	0.0	0.0
