14

C	0.016444	-0.00907	-1.522376
C	0.0	0.0	0.0
Br	-1.777562	0.042417	-2.388423
H	1.098172	0.0	0.0
H	-0.392898	0.942163	0.379167
N	0.708062	1.215694	-1.891459
H	1.608663	1.127344	-1.39668
H	0.893685	1.190306	-2.888822
N	0.646069	-1.253531	-1.916982
H	0.795296	-1.247944	-2.921866
H	1.559168	-1.211967	-1.448384
C	-0.605038	-1.149986	0.628628
N	-1.083589	-2.069189	1.182194
F	2.649635	0.0	0.0
