14

C	-0.16296	0.075039	-1.539427
C	0.0	0.0	0.0
Br	-0.021948	2.031036	-1.988935
H	1.090951	0.0	0.0
H	-0.451779	0.833179	0.535083
N	0.955858	-0.552688	-2.205009
H	1.796416	-0.334589	-1.633336
H	0.808248	-1.556009	-2.118105
N	-1.441296	-0.362337	-2.021631
H	-1.368061	-0.504259	-3.02327
H	-1.681211	-1.241887	-1.576109
C	-0.496868	-1.273624	0.481283
N	-0.909268	-2.325037	0.812268
F	2.633265	0.0	0.0
