14

C	0.020077	0.035218	-1.531347
C	0.0	0.0	0.0
Br	-1.819439	0.136666	-2.325227
H	1.097795	0.0	0.0
H	-0.412864	0.914732	0.424675
N	0.753963	1.219573	-1.878886
H	0.98473	1.146266	-2.864666
H	1.629493	1.126867	-1.341713
N	0.654917	-1.143619	-2.093259
H	0.145833	-1.977778	-1.816063
H	1.564544	-1.155086	-1.61719
C	-0.582046	-1.194893	0.558415
N	-1.045121	-2.178555	1.006574
F	2.639233	0.0	0.0
