16

C	-0.509174	0.065353	-1.430091
C	0.0	0.0	0.0
F	-0.354507	-1.198184	-2.038358
H	1.101372	0.0	0.0
H	-1.58945	0.258226	-1.416146
C	0.24311	1.081873	-2.251989
H	1.308359	0.842068	-2.23214
H	0.101399	2.070465	-1.814729
H	-0.117363	1.082922	-3.284271
N	-0.557826	-1.188385	0.660397
H	0.023611	-1.373771	1.472507
H	-0.417428	-1.974514	0.03496
N	-0.437474	1.221392	0.670543
H	-1.296089	0.999678	1.165548
H	0.264701	1.490727	1.349475
Cl	3.56759	0.0	0.0
