16

C	-0.51984	0.005452	-1.427835
C	0.0	0.0	0.0
F	-0.198221	1.242702	-2.020526
H	1.100518	0.0	0.0
H	0.019419	-0.762349	-1.987754
C	-2.018505	-0.176328	-1.541311
H	-2.532189	0.586071	-0.95306
H	-2.29848	-1.164111	-1.172129
H	-2.324579	-0.088321	-2.586761
N	-0.425952	-1.245411	0.628967
H	-1.28476	-1.057706	1.136868
H	0.282556	-1.53345	1.293843
N	-0.542003	1.171549	0.709429
H	-0.343773	1.982962	0.131202
H	0.024871	1.290715	1.543525
Cl	3.572125	0.0	0.0
