16

C	-0.524109	0.175092	-1.414875
C	0.0	0.0	0.0
F	-0.403752	-1.042114	-2.118011
H	1.096154	0.0	0.0
H	-1.599889	0.386347	-1.370599
C	0.231961	1.238379	-2.17043
H	0.117133	2.19089	-1.651806
H	1.293444	0.98014	-2.193399
H	-0.150695	1.331747	-3.189445
N	-0.551104	-1.232902	0.580632
H	-0.496721	-1.957106	-0.129951
H	0.094654	-1.517485	1.311564
N	-0.424211	1.173452	0.763499
H	0.293973	1.399674	1.439399
H	-1.264769	0.912952	1.267376
Cl	3.552877	0.0	0.0
