16

C	-0.421364	7.7e-05	-1.45707
C	0.0	0.0	0.0
F	-1.843027	0.044038	-1.511064
H	1.096511	0.0	0.0
H	-0.083102	0.934451	-1.917463
C	0.064326	-1.193975	-2.235304
H	-0.245801	-1.126856	-3.281772
H	-0.329837	-2.10487	-1.786901
H	1.155221	-1.224223	-2.177198
N	-0.483933	-1.217824	0.631307
H	-1.491713	-1.132091	0.739204
H	-0.087148	-1.239697	1.565168
N	-0.44094	1.210026	0.70872
H	-1.337873	1.505473	0.333074
H	0.23291	1.95107	0.542599
Cl	3.535222	0.0	0.0
