16

C	-0.409917	-0.055206	-1.45814
C	0.0	0.0	0.0
F	-1.828401	0.024335	-1.530593
H	1.096512	0.0	0.0
H	-0.040459	0.847791	-1.956032
C	0.051979	-1.295809	-2.175074
H	-0.23708	-1.265286	-3.228862
H	-0.378814	-2.172814	-1.69428
H	1.14	-1.356105	-2.095604
N	-0.482127	-1.190937	0.685213
H	-0.007417	-1.224806	1.579979
H	-1.468214	-1.052267	0.883417
N	-0.441092	1.244715	0.647307
H	0.300004	1.931725	0.574002
H	-1.260463	1.603914	0.169906
Cl	3.512661	0.0	0.0
