13

C	0.0	0.0	0.0
C	-0.515601	-0.120768	-1.42366
Br	1.958294	0.0	0.0
H	-1.616962	-0.176287	-1.240662
H	-0.284276	-0.900921	0.53783
H	-0.221005	0.726885	-2.041536
N	-0.549441	1.130765	0.679746
H	-1.574455	0.887332	0.623713
H	-0.398844	1.955968	0.105709
N	-0.060664	-1.338094	-2.12252
O	0.29636	-1.233402	-3.299631
O	-0.093178	-2.400931	-1.501391
F	-2.805113	0.0	0.0
