13

C	0.0	0.0	0.0
C	-0.18939	-0.117348	-1.540628
Br	1.979955	0.0	0.0
H	0.189913	-1.076846	-1.889302
H	-0.312999	-0.922669	0.482967
H	0.362516	0.694969	-2.01227
N	-0.577878	1.095877	0.652457
H	-0.451592	1.925359	0.079156
H	-1.627203	0.778989	0.558577
N	-1.562335	0.004522	-2.122168
O	-1.957671	1.144526	-2.347922
O	-2.116827	-1.029383	-2.480551
F	-2.697532	0.0	0.0
