13

C	0.0	0.0	0.0
C	-0.50646	0.052422	-1.423873
Br	2.067319	0.0	0.0
H	-0.185332	-0.825073	-1.979208
H	-0.173866	-1.026409	0.337285
H	-1.607712	0.094644	-1.266093
N	-0.534974	1.013687	0.819019
H	-1.566241	0.872439	0.623795
H	-0.367882	0.761844	1.787994
N	-0.042641	1.216692	-2.210593
O	-0.331002	2.343017	-1.817136
O	0.587587	0.981264	-3.246868
F	-2.798533	0.0	0.0
