13

C	0.0	0.0	0.0
C	-0.539884	0.032758	-1.410814
Br	1.948016	0.0	0.0
H	-0.2429	0.936784	-1.937305
H	-0.251739	-0.967802	0.437041
H	-1.642553	-0.03582	-1.229797
N	-0.552568	1.135053	0.68272
H	-1.578678	0.924938	0.568482
H	-0.328855	1.047137	1.66886
N	-0.10762	-1.116047	-2.227813
O	0.16577	-0.907293	-3.412794
O	-0.086916	-2.228686	-1.70126
F	-2.825346	0.0	0.0
