13

C	0.0	0.0	0.0
C	-0.56016	0.197103	-1.392896
Br	2.031254	0.0	0.0
H	-1.66319	0.102653	-1.135148
H	-0.183753	-1.048103	0.235249
H	-0.20944	-0.55081	-2.100337
N	-0.48315	0.821707	1.061086
H	-1.499377	0.615365	0.976267
H	-0.372566	1.782372	0.757244
N	-0.296185	1.5082	-1.986672
O	-0.391014	2.506034	-1.269903
O	-0.039067	1.559507	-3.191504
F	-2.774064	0.0	0.0
