13

C	0.0	0.0	0.0
C	-0.501413	0.186224	-1.424583
Br	2.002368	0.0	0.0
H	0.302963	0.350093	-2.145592
H	-0.223594	-1.013596	0.328464
H	-1.227549	0.98911	-1.453279
N	-0.506122	1.049657	0.82093
H	-0.290831	0.824812	1.787689
H	-1.543415	0.847863	0.661646
N	-1.235466	-1.004629	-1.952649
O	-1.971368	-0.791826	-2.911091
O	-0.981377	-2.114913	-1.500048
F	-2.657569	0.0	0.0
