14

C	-0.448345	0.044786	-1.424757
C	0.0	0.0	0.0
Cl	0.222944	1.438072	-2.234281
H	1.093993	0.0	0.0
H	-0.29137	0.940076	0.474723
N	-0.059845	-1.250063	-2.143234
O	-0.736265	-2.215104	-1.799705
O	0.874746	-1.239816	-2.923806
N	-1.97851	0.121665	-1.629284
O	-2.386132	-0.105777	-2.762252
O	-2.652545	0.446204	-0.661145
C	-0.526667	-1.104937	0.773708
N	-0.908389	-1.956145	1.488531
H	2.601715	0.0	0.0
