14

C	-0.467009	-0.048852	-1.409653
C	0.0	0.0	0.0
Cl	-2.206568	-0.367981	-1.642077
H	1.092182	0.0	0.0
H	-0.29261	-0.941316	0.474341
N	-0.102204	1.196188	-2.196746
O	0.590218	2.026301	-1.61795
O	-0.491743	1.237363	-3.357322
N	0.330868	-1.185206	-2.05812
O	0.010005	-2.316633	-1.720311
O	1.302386	-0.855482	-2.72332
C	-0.542741	1.112115	0.747767
N	-0.990761	1.994206	1.381678
H	2.560255	0.0	0.0
