14

C	-0.53915	-0.006113	-1.387233
C	0.0	0.0	0.0
Cl	-2.322037	0.077695	-1.521706
H	1.092079	0.0	0.0
H	-0.280682	0.935023	0.489162
N	-0.01115	1.179344	-2.185458
O	0.496066	2.095223	-1.552491
O	-0.175375	1.121791	-3.398323
N	-0.026557	-1.251124	-2.110482
O	-0.751537	-2.236268	-2.128547
O	1.122063	-1.157981	-2.522343
C	-0.497318	-1.128202	0.761319
N	-0.85617	-2.041514	1.409741
H	2.565364	0.0	0.0
