14

C	-0.474763	0.017306	-1.442201
C	0.0	0.0	0.0
Br	-0.279213	1.774989	-2.277428
H	1.090466	0.0	0.0
H	0.134214	-0.656882	-2.039759
H	-1.529	-0.246069	-1.539422
N	-0.343218	-1.303972	0.556241
O	-0.500485	-2.248749	-0.238583
O	-0.311982	-1.455684	1.786287
C	-0.462672	1.123486	0.898979
H	-0.111083	0.929214	1.910471
H	-0.0151	2.056048	0.557205
H	-1.552883	1.230685	0.909599
H	2.577921	0.0	0.0
