14

C	0.0	0.0	0.0
C	-0.445966	0.14466	-1.4445
Br	1.982607	0.0	0.0
H	-0.045707	1.059357	-1.886308
H	-0.10795	-0.716703	-2.022628
H	-1.539293	0.183205	-1.447936
C	-0.425829	1.196797	0.840756
H	-0.070119	1.084667	1.869032
H	-0.0341	2.13407	0.438633
H	-1.519487	1.215988	0.834818
N	-0.467933	-1.267345	0.50335
H	-1.48034	-1.262692	0.347612
H	-0.327898	-1.296655	1.508323
Cl	-3.768137	0.0	0.0
