17

C	-0.532946	0.061861	-1.417876
C	0.0	0.0	0.0
Cl	-2.3189	0.054145	-1.451314
H	1.094469	0.0	0.0
C	-0.005967	1.307475	-2.106501
H	1.079686	1.331901	-1.978816
H	-0.452029	2.193005	-1.65402
H	-0.268208	1.280736	-3.166461
N	-0.019902	-1.123343	-2.259564
O	1.19925	-1.208171	-2.29385
O	-0.814669	-1.814736	-2.876661
N	-0.355654	-1.205334	0.720938
O	-0.500509	-2.240532	0.05462
O	-0.322425	-1.156111	1.957727
C	-0.404235	1.174598	0.738912
N	-0.725004	2.156567	1.301885
H	2.372403	0.0	0.0
