17

C	-0.391662	-0.023546	-1.468655
C	0.0	0.0	0.0
Cl	0.317896	1.423872	-2.205431
H	1.090531	0.0	0.0
C	0.046027	-1.23667	-2.259006
H	-0.151078	-1.053395	-3.318133
H	-0.481886	-2.121208	-1.917482
H	1.115465	-1.367814	-2.089841
N	-1.928557	0.072673	-1.58906
O	-2.526292	-0.775508	-0.934108
O	-2.445555	0.905576	-2.320762
N	-0.314851	-1.185145	0.789256
O	0.018473	-2.276985	0.315253
O	-0.723141	-1.020744	1.945514
C	-0.499849	1.190892	0.654359
N	-0.827982	2.20615	1.150698
H	2.393143	0.0	0.0
