17

C	-0.430911	0.000246	-1.453591
C	0.0	0.0	0.0
Cl	-2.197515	-0.179356	-1.746424
H	1.094993	0.0	0.0
C	0.067841	1.263298	-2.112209
H	1.150082	1.321913	-1.943747
H	-0.155501	1.234699	-3.177045
H	-0.424216	2.12496	-1.661959
N	0.197935	-1.203889	-2.161257
O	0.415738	-1.089955	-3.362174
O	0.385784	-2.210657	-1.487716
N	-0.429864	-1.191445	0.828453
O	0.455162	-1.828654	1.384389
O	-1.637584	-1.409133	0.927049
C	-0.492907	1.189544	0.655414
N	-0.82108	2.205554	1.151866
H	2.543738	0.0	0.0
