17

C	-0.509157	0.022749	-1.427713
C	0.0	0.0	0.0
Cl	-2.287792	0.19835	-1.493914
H	1.094205	0.0	0.0
C	0.162142	1.160119	-2.17541
H	-0.083893	1.103431	-3.237915
H	-0.184403	2.115039	-1.780258
H	1.24156	1.069012	-2.020396
N	-0.115602	-1.261644	-2.179828
O	1.089254	-1.473366	-2.192263
O	-0.973945	-1.910692	-2.757191
N	-0.4036	-1.151593	0.781073
O	-0.62795	-2.208978	0.173398
O	-0.344283	-1.041553	2.012946
C	-0.36009	1.225509	0.679013
N	-0.585242	2.269491	1.172004
H	2.376718	0.0	0.0
