17

C	-0.348725	0.034891	-1.485564
C	0.0	0.0	0.0
Cl	0.178999	1.620051	-2.095692
H	1.092086	0.0	0.0
C	0.301556	-1.039178	-2.325767
H	1.370386	-1.008916	-2.10043
H	0.127857	-0.81849	-3.381087
H	-0.092418	-2.016997	-2.075495
N	-1.881973	-0.033753	-1.620358
O	-2.534809	1.002258	-1.583918
O	-2.348352	-1.170966	-1.684751
N	-0.338066	-1.24679	0.68506
O	-0.878273	-1.182304	1.799093
O	0.081993	-2.291579	0.172397
C	-0.522734	1.132912	0.731437
N	-0.859306	2.089896	1.327524
H	2.387611	0.0	0.0
