15

C	0.0	0.0	0.0
C	-0.65884	0.027283	-1.358388
Cl	1.747319	0.0	0.0
H	-1.740464	-0.029557	-1.156247
H	-0.341387	-0.884984	-1.864677
N	-0.411625	1.210545	0.852668
O	0.117563	1.313516	1.951429
O	-1.220616	1.982422	0.355682
N	-0.464449	-1.263831	0.740203
O	-0.246967	-2.300954	0.125532
O	-0.987808	-1.151788	1.835038
N	-0.240033	1.205865	-2.106738
H	-0.950672	1.916184	-1.993607
H	-0.1826	0.971978	-3.08742
Cl	-3.86032	0.0	0.0
