15

C	0.0	0.0	0.0
C	-0.640693	0.281148	-1.337953
Cl	1.755737	0.0	0.0
H	-0.33451	1.291441	-1.608801
H	-1.724362	0.275986	-1.141914
N	-0.464887	1.062639	1.007861
O	-0.823905	0.71286	2.119517
O	-0.392616	2.209775	0.582981
N	-0.40051	-1.385057	0.538078
O	0.101469	-1.733626	1.597598
O	-1.164738	-2.040782	-0.158263
N	-0.191839	-0.668462	-2.349816
H	-0.235688	-0.213319	-3.250931
H	-0.850256	-1.436375	-2.365099
Cl	-3.799029	0.0	0.0
