14
Coordinates from ORCA-job run
  C   -0.73914523747883     -0.45728172304299      0.57947338326736
  C   0.53191825752509      0.33050892209658      0.18489730348505
  Cl  -0.48231022618732     -1.32904780929392      2.11739631575188
  H   0.89868412071126      0.84535374142272      1.08447007812996
  C   -1.17173874835231     -1.37210879366479     -0.47733721813091
  N   -1.57581973485039     -2.08936545991801     -1.31562333386854
  C   -1.78789494736885      0.54377969934790      0.80475914802286
  N   -2.58274361899529      1.39177775941530      0.97958566486666
  N   0.24879369230618      1.14678034594830     -0.96180110062732
  H   1.12045472504107      1.45817973071733     -1.37476134195176
  H   -0.28902948557960      1.96309713289480     -0.69606495529247
  N   1.65819298198516     -0.59899525771735     -0.21417709601943
  O   1.50094784885600     -1.80814805792825     -0.11186230465063
  O   2.66969037238783     -0.02253023027761     -0.60095454298272
