14
Coordinates from ORCA-job run
  C   -0.87362555054725     -0.38737139479368      0.12209289064862
  C   0.45513614207641      0.41272014497571      0.07580830800610
  Cl  -1.15149290189581     -1.18881904857861     -1.45711296528163
  H   0.62656072761158      0.82876484175089      1.07131638410725
  C   -1.95635928735737      0.56760691781775      0.36922130759701
  N   -2.82848786231084      1.31950690834334      0.60351643738272
  C   -0.88854949581506     -1.40378620241197      1.17586050291841
  N   -0.95706374497837     -2.20868747096193      2.02985541884451
  N   0.39159182972516      1.42073218006829     -0.90176485122615
  H   1.11897487088221      2.11072072120586     -0.77516598530895
  H   0.44843597480793      1.03793649311853     -1.83695800378564
  N   1.59900705112297     -0.59762522390126     -0.11692943110949
  O   2.10185428717913     -0.66131225306838     -1.23308238188586
  O   1.91301795949930     -1.25038661356453      0.87334236909308
