14
Coordinates from ORCA-job run
  C   -0.72194769890401     -0.53283716925010      0.34848932094866
  C   0.26794514169955      0.48656988924597     -0.27459487651205
  Cl  -0.11328511121832     -2.19930866919950      0.09299342455485
  H   -0.09560776805093      1.48935239006733     -0.03831633401610
  C   -2.00539395127124     -0.38349483825107     -0.34131266756105
  N   -3.05080979920335     -0.24971983799270     -0.86112070495487
  C   -0.92856100959578     -0.32001001864362      1.78231192326790
  N   -1.15017744583043     -0.16314211004167      2.92606876332675
  N   0.37346060009700      0.28913522313007     -1.66244275954277
  H   0.90352581507418     -0.54479195167894     -1.88155281345787
  H   0.79330754584661      1.08555016989869     -2.12183137414658
  N   1.59592791563482      0.37217854108083      0.49325805776725
  O   2.51572732325794     -0.20943265926326     -0.07103596835025
  O   1.61788844246396      0.88195104089796      1.60908600867613
