14
Coordinates from ORCA-job run
  C   -0.95377082856284     -0.16434138378623      0.31029078457990
  C   0.34104158443566      0.57075784291420     -0.09147272138005
  Cl  -2.31653431292829      0.92509234498877     -0.14433727584579
  H   0.40068816575510      1.49541629709892      0.50126698490287
  C   -1.01783617575510     -0.35677231405812      1.75932266417173
  N   -1.09177197519095     -0.44922757876581      2.92843567608726
  C   -1.10788047893089     -1.42661137226489     -0.41002917022781
  N   -1.27510311589985     -2.43664199900424     -0.98621580852639
  N   0.43341891906868      0.70528809750721     -1.51533023282067
  H   -0.29280059259154      1.31818274582074     -1.86286755290142
  H   1.33567086659047      1.10090201043515     -1.75298849485280
  N   1.54812807483360     -0.24069464172928      0.32604674965566
  O   2.62482423366143      0.27883730413405      0.05601016738955
  O   1.37192563551454     -1.31918735329046      0.88186822976796
