17

C	-0.036994	0.080836	-1.536344
C	0.0	0.0	0.0
Cl	-1.689283	0.381086	-2.236535
H	1.096605	0.0	0.0
N	0.778962	1.245769	-1.827071
H	0.926596	1.295268	-2.829393
H	1.678001	1.038199	-1.361512
N	0.428001	-1.19016	-2.049483
H	0.586615	-1.096772	-3.048154
H	1.33381	-1.32835	-1.595016
N	-0.595784	-1.275839	0.469994
O	-1.808495	-1.274784	0.690797
O	0.137393	-2.252478	0.610564
N	-0.559546	1.091813	0.730315
H	-1.428805	1.393218	0.302616
H	0.104269	1.852422	0.68092
F	2.658064	0.0	0.0
