17

C	-0.370869	0.061688	-1.488529
C	0.0	0.0	0.0
Cl	0.108567	1.817384	-1.978815
H	1.095875	0.0	0.0
N	0.433876	-0.764456	-2.338886
H	1.391294	-0.623297	-2.005597
H	0.186633	-1.717877	-2.094341
N	-1.753565	-0.157323	-1.679308
H	-2.007097	0.04142	-2.639696
H	-2.252833	0.467385	-1.053301
N	-0.433475	-1.308963	0.564065
O	-0.167994	-2.33633	-0.060639
O	-0.989355	-1.325657	1.668696
N	-0.640207	1.067712	0.756318
H	-0.81561	0.712874	1.687938
H	0.053037	1.802661	0.834229
F	2.574743	0.0	0.0
