17

C	-0.182909	0.00752	-1.530888
C	0.0	0.0	0.0
Cl	0.229107	1.780514	-2.061708
H	1.089719	0.0	0.0
N	0.790126	-0.89294	-2.010664
H	0.912213	-0.829341	-3.013218
H	1.679102	-0.712198	-1.503613
N	-1.535449	-0.150007	-1.995586
H	-1.554843	-0.12862	-3.00838
H	-1.87738	-1.046276	-1.667445
N	-0.46783	-1.350019	0.482742
O	0.362534	-2.157736	0.879557
O	-1.686418	-1.562199	0.475648
N	-0.662411	0.997167	0.771882
H	-0.028079	1.776766	0.872227
H	-1.500536	1.307631	0.295253
F	2.645746	0.0	0.0
