17

C	-0.276451	0.100239	-1.527745
C	0.0	0.0	0.0
Cl	-0.671962	-1.567437	-2.296738
H	1.093461	0.0	0.0
N	-1.48772	0.856248	-1.789991
H	-1.268749	1.794746	-1.467593
H	-1.633193	0.889789	-2.793252
N	0.911445	0.641871	-2.060596
H	1.757109	0.358178	-1.526965
H	0.993464	0.522775	-3.059541
N	-0.520003	-1.27572	0.600669
O	-1.607346	-1.237532	1.18838
O	0.17213	-2.282897	0.493032
N	-0.520148	1.156882	0.656733
H	-1.483811	0.997704	0.920251
H	0.035077	1.334869	1.480863
F	2.663844	0.0	0.0
