17

C	-0.274413	-0.114794	-1.523816
C	0.0	0.0	0.0
Cl	-0.23458	-1.831839	-2.077655
H	1.09833	0.0	0.0
N	-1.571284	0.411982	-1.870206
H	-1.604459	1.345285	-1.47152
H	-1.591886	0.499337	-2.8811
N	0.817532	0.561033	-2.205922
H	0.701853	1.543723	-1.967017
H	1.684889	0.283673	-1.715437
N	-0.588001	-1.105273	0.820777
O	-1.671493	-0.894895	1.383241
O	0.033656	-2.159312	0.903804
N	-0.465199	1.290069	0.44379
H	0.181179	1.628273	1.145551
H	-1.384428	1.189131	0.858855
F	2.631565	0.0	0.0
