16

C	-0.525154	-0.001729	-1.423598
C	0.0	0.0	0.0
Cl	0.096736	-1.477254	-2.237642
H	1.090498	0.0	0.0
H	-0.027075	0.833501	-1.914573
C	-2.028468	0.070158	-1.627073
H	-2.246911	0.168183	-2.692803
H	-2.518068	-0.824808	-1.247208
H	-2.433099	0.939628	-1.105488
N	-0.525196	-1.15458	0.781694
O	0.275873	-2.016121	1.133942
O	-1.742644	-1.192151	0.994723
N	-0.412341	1.221725	0.716724
O	-0.489834	1.172462	1.941798
O	-0.559082	2.246075	0.043347
F	2.47158	0.0	0.0
