16

C	-0.530126	-0.047234	-1.416999
C	0.0	0.0	0.0
Cl	0.124807	1.358021	-2.320083
H	1.087492	0.0	0.0
H	-1.617071	0.063132	-1.436116
C	-0.040514	-1.317025	-2.092963
H	1.035669	-1.396655	-1.92106
H	-0.536398	-2.195325	-1.673613
H	-0.252294	-1.278145	-3.1634
N	-0.49913	-1.219936	0.708387
O	0.254418	-2.185764	0.777426
O	-1.658908	-1.197234	1.133585
N	-0.544073	1.130708	0.793851
O	-1.383225	1.880859	0.289072
O	-0.10805	1.228439	1.941168
F	2.50029	0.0	0.0
