16

C	-0.555933	-0.006135	-1.413751
C	0.0	0.0	0.0
Cl	0.227546	-1.326299	-2.342438
H	1.089757	0.0	0.0
H	-0.205825	0.918225	-1.869265
C	-2.06196	-0.141014	-1.54952
H	-2.399588	-1.115253	-1.194662
H	-2.346581	-0.040027	-2.599353
H	-2.559829	0.636516	-0.969058
N	-0.526876	-1.159826	0.768733
O	-1.658217	-1.068357	1.256989
O	0.179791	-2.161896	0.821172
N	-0.405976	1.220054	0.730885
O	-0.789153	2.196317	0.077799
O	-0.241421	1.217715	1.947229
F	2.471867	0.0	0.0
