16

C	-0.403494	-0.083559	-1.469654
C	0.0	0.0	0.0
Cl	0.028432	1.493461	-2.219249
H	1.088557	0.0	0.0
H	-1.485102	-0.177362	-1.59369
C	0.399661	-1.165005	-2.175762
H	1.4394	-1.056571	-1.851972
H	0.309128	-1.046412	-3.25869
H	0.039524	-2.15434	-1.89437
N	-0.484197	-1.192557	0.752097
O	-1.329085	-1.037179	1.637323
O	0.01542	-2.274146	0.451408
N	-0.611391	1.165599	0.686486
O	-1.708927	1.565496	0.293035
O	0.009109	1.629138	1.641325
F	2.515654	0.0	0.0
