16

C	-0.451214	-0.08618	-1.445277
C	0.0	0.0	0.0
Cl	0.175698	1.336939	-2.339145
H	1.087718	0.0	0.0
H	-1.539203	-0.049859	-1.53523
C	0.179626	-1.333654	-2.047069
H	0.064063	-1.334871	-3.13203
H	-0.288911	-2.236515	-1.647425
H	1.238	-1.323392	-1.775001
N	-0.515969	-1.2228	0.693512
O	-1.733143	-1.267889	0.906703
O	0.278751	-2.11812	0.960504
N	-0.591021	1.121244	0.766135
O	-0.265018	1.180145	1.949918
O	-1.364573	1.899632	0.208832
F	2.510759	0.0	0.0
