16

C	-0.469956	-0.041222	-1.444248
C	0.0	0.0	0.0
Cl	0.170349	-1.520256	-2.228797
H	1.103127	0.0	0.0
H	0.069479	0.778808	-1.916021
C	-1.960629	0.076942	-1.711842
H	-2.134514	0.178566	-2.785787
H	-2.486957	-0.801011	-1.34607
H	-2.356896	0.968225	-1.217347
N	-0.463185	-1.118117	0.855073
O	0.153375	-1.287463	1.903287
O	-1.407196	-1.820358	0.477519
N	-0.465198	1.260569	0.613171
O	-0.998635	1.247033	1.722107
O	-0.2657	2.279272	-0.052016
F	2.460656	0.0	0.0
