16

C	-0.320394	0.077624	-1.471968
C	0.0	0.0	0.0
Cl	-2.077412	0.334922	-1.818152
H	1.091122	0.0	0.0
H	-0.095032	-0.911438	-1.867093
C	0.537687	1.127676	-2.152696
H	0.488659	1.008203	-3.2372
H	1.555851	0.975159	-1.780231
H	0.211446	2.133645	-1.888788
N	-0.450197	-1.251325	0.650483
O	-0.846204	-2.175303	-0.062551
O	-0.303884	-1.316957	1.867733
N	-0.541285	1.15914	0.742604
O	0.081462	2.212736	0.613043
O	-1.58308	1.030362	1.38315
F	2.511591	0.0	0.0
