16

C	-0.434226	-0.221486	-1.447944
C	0.0	0.0	0.0
Cl	-0.420492	1.366401	-2.297392
H	1.090363	0.0	0.0
H	-1.462978	-0.578844	-1.505503
C	0.576011	-1.140696	-2.119201
H	0.442088	-1.14203	-3.202343
H	1.576683	-0.800424	-1.837458
H	0.436471	-2.15588	-1.741848
N	-0.454867	-1.11541	0.868132
O	-0.863355	-2.152722	0.342288
O	-0.344945	-0.943025	2.079352
N	-0.629698	1.213799	0.583412
O	-1.858648	1.185212	0.698798
O	0.089315	2.159286	0.882741
F	2.531286	0.0	0.0
