19

C	0.0	0.0	0.0
C	-0.355102	-0.065458	-1.518715
Cl	1.80251	0.0	0.0
H	0.446523	-0.656441	-1.976046
N	-0.532571	1.193622	0.605784
H	-1.55248	1.107912	0.468546
H	-0.384827	1.125436	1.609706
C	-0.418686	-1.277337	0.71997
H	-0.015246	-1.265193	1.738839
H	-1.510346	-1.294503	0.755784
H	-0.056816	-2.166758	0.200931
C	-0.312758	1.329217	-2.151939
H	0.612578	1.861441	-1.915339
H	-0.383545	1.222946	-3.240415
H	-1.15664	1.92761	-1.806894
N	-1.599057	-0.79507	-1.746303
H	-1.90985	-0.584555	-2.690674
H	-2.354348	-0.454449	-1.109568
H	-3.420146	0.0	0.0
