19

C	0.0	0.0	0.0
C	-0.462403	0.010373	-1.464177
Cl	1.834908	0.0	0.0
H	-1.558593	0.050128	-1.335011
N	-0.484254	1.146795	0.712275
H	-0.37672	1.935824	0.078745
H	-1.503686	0.972782	0.767203
C	-0.449584	-1.247281	0.730957
H	-0.174551	-1.150046	1.783075
H	-1.544163	-1.280836	0.639058
H	0.008026	-2.150014	0.324045
C	-0.089226	-1.222653	-2.279817
H	-0.475451	-1.112452	-3.29904
H	0.997314	-1.345319	-2.336821
H	-0.523728	-2.133025	-1.8613
N	-0.038609	1.267482	-2.090309
H	0.922066	1.175473	-2.406631
H	-0.620423	1.438349	-2.902473
H	-3.230677	0.0	0.0
