19

C	0.0	0.0	0.0
C	-0.342527	0.277049	-1.515956
Cl	1.804123	0.0	0.0
H	0.423224	-0.254242	-2.0932
N	-0.532695	0.926977	0.958352
H	-0.357802	1.876697	0.650188
H	-1.552431	0.778652	0.93306
C	-0.445893	-1.392981	0.406462
H	-1.540195	-1.404764	0.41584
H	-0.067983	-1.612153	1.407082
H	-0.067164	-2.142201	-0.293739
C	-0.234846	1.764215	-1.838031
H	0.69255	2.209505	-1.465542
H	-1.090384	2.29435	-1.412302
H	-0.280633	1.892408	-2.92127
N	-1.634919	-0.196239	-1.97718
H	-1.613804	-1.210089	-2.018904
H	-2.379058	0.017386	-1.278447
H	-3.425048	0.0	0.0
