19

C	0.0	0.0	0.0
C	-0.304111	0.141608	-1.553376
Cl	1.876562	0.0	0.0
H	0.580388	-0.273593	-2.048287
N	-0.380218	1.192713	0.7691
H	-1.229888	0.967886	1.286848
H	0.381966	1.465859	1.372668
C	-0.291809	-1.386261	0.600644
H	0.186239	-1.438978	1.581643
H	0.147622	-2.165518	-0.036331
H	-1.367341	-1.540057	0.69344
C	-0.369479	1.617578	-1.928432
H	-0.452855	1.690086	-3.013239
H	-1.230312	2.089955	-1.458301
H	0.526129	2.149406	-1.593001
N	-1.423846	-0.605579	-2.124857
H	-1.134922	-1.574731	-2.180254
H	-2.242219	-0.561386	-1.500031
H	-3.107566	0.0	0.0
