19

C	0.0	0.0	0.0
C	-0.341485	0.315895	-1.508973
Cl	1.803585	0.0	0.0
H	0.422095	-0.204857	-2.09999
N	-0.533095	0.904176	0.980027
H	-0.359182	1.860674	0.69306
H	-1.552278	0.755366	0.952327
C	-0.446817	-1.402208	0.371852
H	-0.066683	-2.133666	-0.34618
H	-0.069943	-1.645496	1.367179
H	-1.541328	-1.414054	0.379538
C	-0.22843	1.811595	-1.794398
H	-0.261654	1.966384	-2.873946
H	-1.089341	2.333259	-1.365731
H	0.694889	2.247625	-1.401869
N	-1.636452	-0.140502	-1.980919
H	-2.378577	0.055194	-1.274701
H	-1.618006	-1.153272	-2.050409
H	-3.426619	0.0	0.0
