19

C	0.0	0.0	0.0
C	-0.227798	-0.011966	-1.553871
Cl	1.825976	0.0	0.0
H	0.323859	0.880732	-1.903023
N	-0.513508	1.162547	0.653599
H	-1.529904	1.010566	0.727856
H	-0.365735	1.978098	0.064957
C	-0.52183	-1.237943	0.684984
H	-1.618354	-1.202629	0.608657
H	-0.138948	-2.13364	0.200419
H	-0.234397	-1.218156	1.738544
C	-1.659689	0.124642	-2.033
H	-2.191284	0.952715	-1.573964
H	-1.635955	0.26419	-3.124303
H	-2.258788	-0.748323	-1.782654
N	0.318245	-1.242541	-2.142097
H	1.32817	-1.194275	-2.1796
H	-0.02778	-1.321549	-3.090805
H	-3.614878	0.0	0.0
