19

C	0.0	0.0	0.0
C	-0.357994	-0.047307	-1.530987
Cl	1.804622	0.0	0.0
H	0.402805	-0.701413	-1.973208
N	-0.533612	1.18465	0.618796
H	-0.386547	1.112499	1.6228
H	-1.553319	1.106141	0.478064
C	-0.429635	-1.283739	0.697312
H	-1.523827	-1.288617	0.720374
H	-0.055244	-2.171479	0.177706
H	-0.044032	-1.296615	1.722217
C	-0.220644	1.333791	-2.162535
H	0.740543	1.796186	-1.926518
H	-1.013807	1.990837	-1.802901
H	-0.324613	1.226928	-3.245049
N	-1.650505	-0.609184	-1.880463
H	-1.634806	-1.606032	-1.689461
H	-2.400934	-0.243526	-1.257845
H	-3.441467	0.0	0.0
