15

C	0.0	0.0	0.0
C	-0.475584	-0.048447	-1.534574
Cl	1.747888	0.0	0.0
H	-1.575969	-0.159496	-1.726984
H	-0.268119	-0.889919	0.54013
N	-0.398362	1.237851	0.809204
O	-0.317132	1.086699	2.019871
O	-0.666895	2.272869	0.221922
N	-0.006161	-1.272033	-2.16537
O	-0.316047	-2.295566	-1.555944
O	0.260772	-1.226105	-3.379121
N	-0.2614	1.169925	-2.335711
O	-1.269447	1.570392	-2.927175
O	0.811267	1.772736	-2.29192
Cl	-2.580992	0.0	0.0
