11
Coordinates from ORCA-job run
  C   -0.59305378376866     -0.09962443210801      0.19019311079877
  C   0.82366217402461      0.34610163551477     -0.14769448199235
  F   -0.48685588058682     -1.31895511882497      0.87890751847412
  H   1.28003820128763     -0.39528359628358     -0.81093807089306
  H   -1.06897385232720      0.59684141502205      0.88332938145073
  H   0.78159302234419      1.29775974444794     -0.68126267968590
  N   -1.37068566378944     -0.19738839689783     -0.98759971920010
  H   -2.33113822570237     -0.42834350992196     -0.77134676112290
  H   -0.99769272795903     -0.90348370489467     -1.61000056856396
  C   1.65235891032945      0.48586391483206      1.04703562532120
  N   2.30974782614763      0.61551204911419      2.00937664541345
