11
Coordinates from ORCA-job run
  C   -0.70339741828757      0.37039055644921     -0.12026719533907
  C   0.78271076258213      0.70431768341738     -0.05603578643916
  F   -1.20384209918234      0.48736993322929      1.18986251482667
  H   0.91547559724680      1.66698026755540      0.44176431795545
  H   -1.22682761004893      1.12808251732116     -0.70781290922122
  H   1.17851494128924      0.77559671372060     -1.07147925227287
  N   -0.92565918817627     -0.90207779128721     -0.68801471703530
  H   -1.91361483614178     -1.09362293937219     -0.78371423771411
  H   -0.49842354374951     -1.63339479213617     -0.13210299064470
  C   1.51843818701768     -0.32440748387922      0.67687484800791
  N   2.07862520745055     -1.18023466501826      1.25092540787639
