11
Coordinates from ORCA-job run
  C   -0.58633823567147      0.26109628536567     -0.38554852821972
  C   0.67886237669417      0.61635714226231      0.38616750795152
  F   -1.53156010100921      1.24312105090236     -0.02247856742324
  H   0.92802057228047      1.66332308798974      0.20069862986656
  H   -0.43714024807699      0.37225418813476     -1.46120558719993
  H   0.48067011455601      0.51415192643742      1.45771788862704
  N   -1.01287906127721     -1.05158179643184     -0.10348255946847
  H   -1.81677336619916     -1.31397594114720     -0.65682698658398
  H   -1.22464211422969     -1.17186607998457      0.87865470690804
  C   1.80434087064106     -0.23320923888241      0.00904921264204
  N   2.71743919229203     -0.89967062464624     -0.30274571709987
