15

C	0.0	0.0	0.0
C	-0.56564	0.01686	-1.418641
Br	1.951338	0.0	0.0
H	-1.625028	0.300837	-1.287101
H	-0.325939	-0.925232	0.475913
C	-0.392872	1.12329	0.850572
N	-0.610544	2.007544	1.592235
C	-0.477383	-1.332418	-2.092056
H	0.549708	-1.701087	-2.136413
H	-1.102728	-2.022513	-1.522192
H	-0.870547	-1.274589	-3.105226
N	0.079161	1.0976	-2.227739
O	0.173441	2.203129	-1.699725
O	0.439615	0.836207	-3.375605
Cl	-3.397291	0.0	0.0
