15

C	0.0	0.0	0.0
C	-0.39795	0.248934	-1.482553
Br	1.949164	0.0	0.0
H	0.510592	0.126337	-2.078943
H	-0.345479	-0.975754	0.331424
C	-0.409367	1.051268	0.922154
N	-0.577261	1.895571	1.722155
C	-0.973249	1.6122	-1.796748
H	-0.238086	2.371319	-1.512535
H	-1.160924	1.688526	-2.867492
H	-1.900522	1.760072	-1.247267
N	-1.211521	-0.903076	-2.026351
O	-0.975015	-2.012452	-1.561348
O	-1.888844	-0.683614	-3.021509
Cl	-3.131403	0.0	0.0
