15

C	-0.521598	0.010216	-1.395846
C	0.0	0.0	0.0
Cl	0.192246	1.368147	-2.243505
H	1.090801	0.0	0.0
H	-0.306197	0.909921	0.512624
N	-0.21258	-1.274099	-2.194865
O	-1.167181	-1.97217	-2.512894
O	0.964207	-1.46934	-2.43503
N	-2.066087	0.148886	-1.488661
O	-2.690444	-0.161114	-0.482471
O	-2.538091	0.519337	-2.554159
N	-0.409691	-1.127488	0.79773
O	-0.419214	-2.242174	0.255612
O	-0.577908	-0.931225	2.007612
H	2.480109	0.0	0.0
