15

C	-0.48171	0.00544	-1.411304
C	0.0	0.0	0.0
Cl	0.342917	1.130048	-2.449898
H	1.08616	0.0	0.0
H	-0.302776	-0.901676	0.522858
N	-0.312685	-1.399736	-2.018263
O	-0.73257	-1.529935	-3.16226
O	0.209016	-2.265085	-1.330205
N	-2.021435	0.185562	-1.519717
O	-2.640411	-0.618143	-0.82819
O	-2.493034	1.035956	-2.251202
N	-0.46755	1.137503	0.754482
O	-0.892714	2.135327	0.147464
O	-0.310866	1.072993	1.980811
H	2.485145	0.0	0.0
