15

C	-0.493985	-0.028937	-1.406707
C	0.0	0.0	0.0
Cl	0.424561	-1.051463	-2.476634
H	1.08616	0.0	0.0
H	-0.313029	0.897915	0.521729
N	-2.006938	-0.359147	-1.502449
O	-2.693866	0.358819	-0.781675
O	-2.399403	-1.232885	-2.253456
N	-0.451027	1.389569	-1.990761
O	-1.025244	1.535045	-3.064845
O	0.163501	2.245714	-1.370062
N	-0.446858	-1.142378	0.75675
O	-0.366127	-1.049543	1.988113
O	-0.77811	-2.173819	0.14799
H	2.474619	0.0	0.0
