15

C	-0.536126	0.014597	-1.387837
C	0.0	0.0	0.0
Cl	0.180575	1.360718	-2.24957
H	1.090782	0.0	0.0
H	-0.30786	0.907823	0.516224
N	-0.264835	-1.272811	-2.190751
O	-1.236639	-1.967632	-2.455857
O	0.898433	-1.474557	-2.485331
N	-2.078429	0.175385	-1.459227
O	-2.561281	0.541959	-2.521259
O	-2.692175	-0.10612	-0.437664
N	-0.406928	-1.128357	0.801553
O	-0.594019	-0.926431	2.007301
O	-0.392542	-2.248048	0.26849
H	2.481289	0.0	0.0
