15

C	-0.634952	0.109779	-1.339748
C	0.0	0.0	0.0
Cl	-2.402199	0.321772	-1.287719
H	1.08771	0.0	0.0
H	-0.274916	0.861943	0.602852
N	-0.099742	1.353219	-2.058371
O	0.349864	2.246932	-1.356631
O	-0.2101	1.361592	-3.277501
N	-0.273654	-1.04175	-2.290254
O	0.927185	-1.12021	-2.496752
O	-1.160065	-1.727963	-2.761958
N	-0.415935	-1.182947	0.702209
O	-0.543366	-2.235052	0.05409
O	-0.473493	-1.11089	1.93983
H	2.444986	0.0	0.0
