15

C	-0.552551	-0.011649	-1.379207
C	0.0	0.0	0.0
Cl	0.224005	-1.289778	-2.29218
H	1.103269	0.0	0.0
H	-0.279911	-0.9212	0.50869
N	-2.090475	-0.254395	-1.424744
O	-2.703862	0.065234	-0.414887
O	-2.568935	-0.710462	-2.453038
N	-0.365235	1.307491	-2.149468
O	-1.379536	1.91313	-2.466533
O	0.786875	1.615475	-2.385031
N	-0.419068	1.105383	0.820313
O	-0.531237	0.892428	2.033692
O	-0.492982	2.226061	0.293849
H	2.455266	0.0	0.0
