15

C	-0.461136	0.182854	-1.403689
C	0.0	0.0	0.0
Cl	0.287763	1.476835	-2.274496
H	1.09231	0.0	0.0
H	-0.342246	-0.950199	0.398374
N	-0.174418	-1.16466	-2.115148
O	-0.893776	-2.083361	-1.737453
O	0.728063	-1.222593	-2.931175
N	-2.000221	0.294248	-1.570736
O	-2.408397	0.370601	-2.723073
O	-2.679017	0.262828	-0.555689
N	-0.425281	1.035999	0.915176
O	-0.645026	2.173636	0.483754
O	-0.426001	0.727769	2.111415
H	2.49845	0.0	0.0
