15

C	-0.609261	0.066996	-1.355214
C	0.0	0.0	0.0
Cl	-2.357604	0.393515	-1.35325
H	1.087849	0.0	0.0
H	-0.256662	0.894221	0.561595
N	0.020253	1.234592	-2.125059
O	0.389037	2.190766	-1.458593
O	0.054538	1.131203	-3.345102
N	-0.301773	-1.15588	-2.230713
O	0.893106	-1.395295	-2.301807
O	-1.214397	-1.728854	-2.797299
N	-0.449614	-1.141225	0.745079
O	-0.395089	-1.050995	1.981228
O	-0.732422	-2.186195	0.129951
H	2.43811	0.0	0.0
