15

C	-0.491327	0.031823	-1.407282
C	0.0	0.0	0.0
Cl	0.428546	1.059767	-2.470933
H	1.087168	0.0	0.0
H	-0.313553	-0.898684	0.520006
N	-0.452124	-1.385074	-1.998289
O	-1.006405	-1.516773	-3.084173
O	0.133013	-2.254702	-1.367343
N	-2.00476	0.362313	-1.50647
O	-2.692785	-0.355356	-0.78661
O	-2.395574	1.233456	-2.260254
N	-0.447455	1.141771	0.757372
O	-0.364885	1.050192	1.988312
O	-0.78066	2.172702	0.148326
H	2.47346	0.0	0.0
