14

C	0.0	0.0	0.0
C	-0.432921	-0.061585	-1.478525
F	1.359759	0.0	0.0
H	0.519271	-0.007175	-2.017585
H	-0.394832	-0.823845	0.586055
N	-0.333622	1.267776	0.737428
O	-0.620042	1.158928	1.92346
O	-0.137088	2.3195	0.134191
C	-1.217951	1.068876	-2.018244
N	-1.698265	1.902494	-2.69388
N	-1.005935	-1.379023	-1.727484
H	-1.172118	-1.468847	-2.722795
H	-1.921342	-1.353873	-1.270181
Cl	-3.193009	0.0	0.0
