14

C	0.0	0.0	0.0
C	-0.514418	0.222495	-1.423152
F	1.355872	0.0	0.0
H	-0.170224	-0.673727	-1.958382
H	-0.380155	-0.926875	0.433281
N	-0.389529	1.098067	0.960962
O	-0.186168	0.847538	2.144518
O	-0.795581	2.159604	0.499222
C	0.20845	1.348654	-2.046527
N	0.79877	2.198248	-2.60149
N	-1.929834	0.336925	-1.625795
H	-2.374806	1.044693	-1.056099
H	-2.435963	-0.515701	-1.412448
Cl	-4.606486	0.0	0.0
