14

C	0.0	0.0	0.0
C	-0.443309	-0.32521	-1.440109
F	1.351376	0.0	0.0
H	0.506046	-0.377604	-1.985181
H	-0.394376	-0.709478	0.719832
N	-0.3386	1.374107	0.510328
O	-0.169286	2.309714	-0.267849
O	-0.596632	1.464479	1.705653
C	-1.22261	0.693071	-2.174652
N	-1.689414	1.398324	-2.991146
N	-1.017774	-1.664534	-1.442753
H	-1.170622	-1.941567	-2.406284
H	-1.937886	-1.560867	-1.005178
Cl	-3.212707	0.0	0.0
