19

C	0.0	0.0	0.0
C	-0.300985	-0.303052	-1.484972
F	1.369307	0.0	0.0
H	0.4146	0.327915	-2.01776
N	-0.287851	1.482325	0.308683
O	-0.970025	1.754363	1.287259
O	0.285593	2.284286	-0.421005
C	-0.615889	-0.881681	1.030239
H	-1.705631	-0.77128	0.962791
H	-0.278627	-0.585443	2.023627
H	-0.332893	-1.918379	0.846589
N	-1.620061	0.159637	-2.066297
O	-1.859785	1.354868	-1.970259
O	-2.261221	-0.659551	-2.713957
C	-0.066453	-1.768884	-1.794622
H	-0.866605	-2.382528	-1.381399
H	0.894668	-2.078661	-1.379527
H	-0.050787	-1.922155	-2.873158
Cl	-3.967419	0.0	0.0
