19

C	0.0	0.0	0.0
C	-0.481354	-0.200632	-1.445364
F	1.364739	0.0	0.0
H	-0.455101	-1.275536	-1.635429
N	-0.361828	1.408738	0.499453
O	-1.532367	1.573675	0.817656
O	0.53821	2.239581	0.555679
C	-0.590038	-1.00243	0.950311
H	-0.244168	-2.000253	0.673717
H	-0.266491	-0.780795	1.968996
H	-1.681073	-0.95513	0.902167
N	0.571552	0.354205	-2.365017
O	1.199029	-0.448169	-3.055072
O	0.719924	1.572335	-2.374577
C	-1.823992	0.394213	-1.811936
H	-2.635223	0.079509	-1.144551
H	-1.776769	1.482246	-1.779389
H	-2.075979	0.081569	-2.828535
Cl	-4.720525	0.0	0.0
