19

C	0.0	0.0	0.0
C	-0.289022	-0.260219	-1.49699
F	1.369074	0.0	0.0
H	0.414908	0.404161	-2.00369
N	-0.302526	1.472213	0.330582
O	-1.016742	1.722277	1.292199
O	0.277096	2.289597	-0.376201
C	-0.625653	-0.910459	0.998357
H	-0.311569	-0.635425	2.005608
H	-0.3318	-1.940726	0.792623
H	-1.71604	-0.80079	0.912632
N	-1.617951	0.194714	-2.069901
O	-1.843877	1.39623	-2.012792
O	-2.287134	-0.644854	-2.659781
C	-0.026474	-1.71023	-1.856252
H	0.934775	-2.020628	-1.442205
H	0.003786	-1.823578	-2.940404
H	-0.82052	-2.352513	-1.475687
Cl	-3.996512	0.0	0.0
