19

C	0.0	0.0	0.0
C	-0.305843	-0.346141	-1.475557
F	1.369072	0.0	0.0
H	0.436495	0.236246	-2.028213
N	-0.292748	1.490463	0.259099
O	0.359942	2.272635	-0.424695
O	-1.074832	1.785264	1.151294
C	-0.617989	-0.850949	1.057116
H	-0.310536	-0.498198	2.041766
H	-1.708854	-0.770022	0.965253
H	-0.29978	-1.886123	0.927669
N	-1.604557	0.158428	-2.072985
O	-1.826742	1.35463	-1.951769
O	-2.243326	-0.632228	-2.757207
C	-0.142061	-1.831051	-1.72821
H	-0.106734	-2.028309	-2.798845
H	-0.985483	-2.380867	-1.312276
H	0.790091	-2.176218	-1.275907
Cl	-3.999826	0.0	0.0
