19

C	0.0	0.0	0.0
C	-0.455347	-0.129444	-1.458095
F	1.364844	0.0	0.0
H	-0.312738	-1.178467	-1.727334
N	-0.364637	1.37624	0.580514
O	0.555636	2.129429	0.876171
O	-1.560146	1.583053	0.736191
C	-0.596949	-1.04675	0.896592
H	-0.282821	-2.035408	0.55584
H	-1.687577	-0.970912	0.871597
H	-0.246772	-0.893273	1.919612
N	0.542804	0.600108	-2.313537
O	0.628026	1.814593	-2.153888
O	1.186005	-0.061502	-3.12769
C	-1.844902	0.350724	-1.818094
H	-1.904829	1.435156	-1.739683
H	-2.632706	-0.048789	-1.17103
H	-2.054073	0.054543	-2.84966
Cl	-4.722543	0.0	0.0
