18

C	-0.344031	-0.003508	-1.498705
C	0.0	0.0	0.0
F	-1.748069	0.086835	-1.625557
H	1.090666	0.0	0.0
N	0.228542	1.071114	-2.264535
H	0.038477	1.939457	-1.775205
H	1.238846	0.950681	-2.189126
C	0.109101	-1.31603	-2.103296
H	-0.042391	-1.262473	-3.182536
H	-0.459745	-2.152591	-1.697772
H	1.170842	-1.458797	-1.879193
N	-0.443228	-1.122859	0.761395
H	-1.311714	-1.512374	0.423811
H	0.292262	-1.816806	0.773055
N	-0.520484	1.256166	0.627613
O	-1.421533	1.183727	1.461503
O	-0.019301	2.324187	0.254248
H	2.746919	0.0	0.0
