18

C	-0.443512	-0.025101	-1.460582
C	0.0	0.0	0.0
F	-0.065822	1.207232	-2.040389
H	1.097426	0.0	0.0
N	0.2709	-1.108195	-2.048987
H	1.2613	-0.998699	-1.815795
H	0.155889	-1.090097	-3.05561
C	-1.939962	-0.128777	-1.677613
H	-2.353427	-0.984759	-1.145626
H	-2.147159	-0.227759	-2.747685
H	-2.425333	0.774182	-1.307309
N	-0.489693	-1.16164	0.71079
H	0.257023	-1.433853	1.344745
H	-0.558243	-1.912096	0.032767
N	-0.518546	1.2578	0.635979
O	0.201606	2.251051	0.560748
O	-1.628936	1.239577	1.174046
H	2.828597	0.0	0.0
