18

C	-0.4869	-0.037865	-1.453651
C	0.0	0.0	0.0
F	0.101476	-1.167382	-2.024184
H	1.090318	0.0	0.0
N	-1.914747	-0.282407	-1.509847
H	-2.385558	0.405784	-0.932746
H	-2.228225	-0.189572	-2.471031
C	0.027182	1.158213	-2.235143
H	-0.462564	2.077765	-1.905912
H	-0.184686	1.010013	-3.298764
H	1.1069	1.247894	-2.08304
N	-0.507718	-1.051773	0.821971
H	-1.249651	-1.545599	0.34242
H	0.265798	-1.675966	1.027078
N	-0.461862	1.329176	0.570574
O	0.374961	2.194661	0.806302
O	-1.678407	1.483061	0.752533
H	2.886543	0.0	0.0
