18

C	-0.569085	-0.028665	-1.411727
C	0.0	0.0	0.0
F	-2.01281	-0.029574	-1.248408
H	1.09206	0.0	0.0
N	-0.171917	1.048586	-2.234035
H	-0.268351	1.92991	-1.754629
H	-0.701621	1.032857	-3.09586
C	-0.216003	-1.335023	-2.082067
H	0.868562	-1.444718	-2.05604
H	-0.675406	-2.165658	-1.555604
H	-0.556522	-1.313325	-3.122602
N	-0.385611	-1.170798	0.725911
H	-1.280047	-1.032317	1.17634
H	0.31402	-1.320995	1.442587
N	-0.38955	1.247904	0.72972
O	-0.802373	1.144763	1.890996
O	-0.180122	2.341097	0.190367
H	2.639839	0.0	0.0
