18

C	-0.566309	0.090803	-1.410967
C	0.0	0.0	0.0
F	-2.012396	0.062618	-1.259675
H	1.096935	0.0	0.0
N	-0.175053	1.239218	-2.13594
H	-0.283578	2.077956	-1.583846
H	-0.704926	1.291672	-2.995592
C	-0.1962	-1.152265	-2.187879
H	0.892299	-1.249267	-2.171699
H	-0.537177	-1.048378	-3.222871
H	-0.646165	-2.029978	-1.731171
N	-0.369153	-1.233771	0.623966
H	0.391746	-1.50422	1.238353
H	-1.209673	-1.119687	1.173646
N	-0.374867	1.172807	0.835508
O	-0.155391	2.305225	0.386679
O	-0.772	0.978171	1.992577
H	2.611007	0.0	0.0
