18

C	-0.413004	0.059138	-1.465868
C	0.0	0.0	0.0
F	0.035391	1.282701	-2.001793
H	1.095851	0.0	0.0
N	0.298945	-1.026344	-2.071345
H	1.285561	-0.922308	-1.821199
H	0.208308	-0.960223	-3.078134
C	-1.899087	-0.019526	-1.740322
H	-2.379669	0.878762	-1.359213
H	-2.070484	-0.088008	-2.818222
H	-2.319863	-0.894733	-1.247577
N	-0.502356	-1.219412	0.628942
H	0.123528	-1.407119	1.411109
H	-0.33679	-1.950441	-0.055585
N	-0.458573	1.13032	0.836672
O	-1.057409	2.090132	0.341985
O	-0.153908	1.04509	2.029619
H	2.760854	0.0	0.0
