18

C	-0.408315	0.037374	-1.463516
C	0.0	0.0	0.0
F	-1.801617	-0.097185	-1.587915
H	1.093479	0.0	0.0
N	-0.037498	1.27334	-2.113649
H	0.969576	1.375985	-1.998433
H	-0.485867	2.040476	-1.626176
C	0.234414	-1.131314	-2.173761
H	-0.014722	-1.064504	-3.234661
H	1.318021	-1.09604	-2.028053
H	-0.146049	-2.061306	-1.752946
N	-0.486956	-1.153376	0.694784
H	0.017659	-1.260252	1.566541
H	-1.482155	-1.077824	0.864362
N	-0.427669	1.258523	0.730378
O	0.341853	1.712126	1.57707
O	-1.556494	1.714077	0.505295
H	2.856441	0.0	0.0
