18

C	-0.315368	-0.001692	-1.493517
C	0.0	0.0	0.0
F	-1.71039	0.014536	-1.68724
H	1.09163	0.0	0.0
N	0.25066	1.10317	-2.227758
H	-0.056047	1.95437	-1.772135
H	1.259058	1.04096	-2.086027
C	0.2254	-1.285544	-2.095501
H	0.114675	-1.219696	-3.178563
H	-0.31802	-2.156628	-1.729516
H	1.282245	-1.382506	-1.829896
N	-0.474799	-1.124631	0.747844
H	0.295274	-1.75246	0.938892
H	-1.220094	-1.606717	0.268047
N	-0.414345	1.251592	0.720601
O	-0.876851	2.211943	0.087629
O	-0.208764	1.275978	1.93016
H	2.710658	0.0	0.0
