17
Coordinates from ORCA-job run
  C   -0.90108657304945      0.06857902898981      0.07267930551030
  C   0.54207053683358      0.58846343915500      0.14861072399232
  H   -1.53353824155311      0.92345369475041     -0.19501124284778
  H   0.60159850619183      1.34907127292098      0.93411133998601
  N   -1.23212690812727     -0.51443298374699      1.37516489650540
  H   -1.19132919417707      0.19528248272922      2.10024900601851
  H   -2.18607358739426     -0.85713266256264      1.34539588999440
  N   -1.00783283882153     -0.89529952722237     -0.99739711396307
  H   -0.72183828069558     -1.80873045550194     -0.66503241286738
  H   -1.95782738825450     -0.95809081683571     -1.33762053281638
  N   0.78588584081834      1.36237994646093     -1.11840898221368
  O   0.08388643342935      2.35986132750626     -1.28043788391241
  O   1.64104133436230      0.96405944234280     -1.90165612118001
  C   1.57801088511595     -0.49341602738957      0.34269968796267
  H   2.57643292981610     -0.06394547522131      0.43078494510207
  H   1.58106056349711     -1.17410209992903     -0.50721524252351
  H   1.34166598200819     -1.04500058644584      1.25308373725254
