17
Coordinates from ORCA-job run
  C   -0.61866770546152     -0.43689367224663      0.52537175663235
  C   0.65308985731788      0.40197881039315      0.32780981574070
  H   -0.42376303178087     -1.04415238002806      1.41716964527402
  H   0.82148649768136      0.96110107783236      1.24761921602464
  N   -0.80012522445665     -1.35423758382707     -0.58254841862290
  H   -1.64259157643752     -1.89856624705384     -0.44731630191054
  H   -0.86711824559318     -0.84349482095895     -1.45487365390685
  N   -1.71918866831933      0.47275612007718      0.85465609306029
  H   -2.29603064232535      0.64420275067507      0.04090960692147
  H   -2.30374593559729      0.08426681255671      1.58148044347511
  N   0.36090313523701      1.46848467356634     -0.68352818105651
  O   0.32863924390573      2.63508128075102     -0.30440272828655
  O   0.13254610323911      1.09841228505667     -1.84035888632104
  C   1.86896170933037     -0.39340641083416     -0.09996822733584
  H   1.69477860681729     -0.87449201728896     -1.05965434551128
  H   2.74912562877270      0.25070721122287     -0.16474880076501
  H   2.06370024767027     -1.17274788989370      0.64038296658794
