17
Coordinates from ORCA-job run
  C   -0.95551725388802     -0.02882220221456      0.16845184796499
  C   0.46163442867902      0.60039060701575      0.16008747186652
  H   -1.66247706763582      0.78156050363661     -0.07128275957221
  H   0.53600051311032      1.30660731373375      0.99029159100639
  N   -1.14996101240175     -0.60181580522051      1.49102844440694
  H   -1.21482533674863      0.12978284522831      2.18905328879085
  H   -2.02983900295073     -1.10518484744414      1.47982659370546
  N   -1.19371033566789     -1.09249335200091     -0.77830314578697
  H   -0.57246762212651     -1.86748576561986     -0.57689125034203
  H   -1.02382665729259     -0.77861264166125     -1.72575646689757
  N   0.54013823866785      1.46228016746699     -1.05776124943183
  O   0.74131354365521      0.90294353961036     -2.13716849092397
  O   0.33163024655066      2.66613689059570     -0.91327971173197
  C   1.58860162593291     -0.40698676503874      0.18624883677704
  H   1.45606986473809     -1.05290045028414      1.05472183434481
  H   2.55484191019829      0.09578904106734      0.26144074732097
  H   1.59039391717957     -1.01118907887070     -0.71970758149740
