16

C	-0.490878	-0.15567	-1.43483
C	0.0	0.0	0.0
F	-0.366117	1.025864	-2.10437
H	1.098341	0.0	0.0
N	0.458756	-1.129929	-2.160365
O	0.93097	-0.801279	-3.237743
O	0.604088	-2.213719	-1.60879
N	-1.805001	-0.673872	-1.575036
H	-2.376837	-0.02306	-2.092939
H	-2.173513	-0.870893	-0.65135
N	-0.537753	-1.115981	0.82119
H	-0.346504	-0.873092	1.787957
H	0.06817	-1.903447	0.608298
C	-0.538029	1.249663	0.514059
N	-0.952417	2.243471	0.986682
F	2.535118	0.0	0.0
