16

C	-0.208722	-0.122098	-1.511222
C	0.0	0.0	0.0
F	-1.405235	-0.696536	-1.826735
H	1.094963	0.0	0.0
N	-0.238127	1.283251	-2.106919
O	-1.326197	1.747573	-2.432722
O	0.84223	1.856006	-2.171402
N	0.851637	-0.838803	-2.13629
H	0.694364	-1.807727	-1.878984
H	1.707534	-0.552625	-1.628684
N	-0.340362	-1.286243	0.603699
H	-1.276121	-1.290203	0.988222
H	0.32513	-1.457439	1.34614
C	-0.619805	1.148225	0.639855
N	-1.12626	2.034168	1.22619
F	2.586118	0.0	0.0
