16

C	-0.149658	-0.14312	-1.529321
C	0.0	0.0	0.0
F	-1.310333	-0.80163	-1.887909
H	1.090162	0.0	0.0
N	-0.310073	1.248158	-2.194719
O	-1.21528	1.426363	-3.007549
O	0.553527	2.06639	-1.893343
N	0.981895	-0.810799	-2.001295
H	1.822047	-0.530846	-1.442778
H	1.10004	-0.748537	-3.00271
N	-0.404699	-1.211951	0.703834
H	0.379102	-1.851381	0.651209
H	-1.196692	-1.639737	0.239607
C	-0.65777	1.170861	0.556576
N	-1.213215	2.092005	1.030435
F	2.63447	0.0	0.0
