16
Coordinates from ORCA-job run
  C   -0.54580875124709     -0.45348361473125      0.53487648035376
  C   0.69064322834688      0.44449696584463      0.38945069847527
  Br  -1.56072668333318      0.30202352025905      2.04691032964174
  H   1.23894220912570      0.52038167664472      1.32816316579495
  C   -0.08033095629892     -1.76988267998792      0.96503392868067
  N   0.28455742604693     -2.82927128400327      1.32159416891199
  C   -1.47910596708594     -0.55394891216471     -0.66825952063487
  H   -1.89249731908645      0.42230547559355     -0.91407566513197
  H   -2.29668138031173     -1.22930849091270     -0.41403669832980
  H   -0.93927894247889     -0.94953999122477     -1.52700434178765
  N   0.34121261512478      1.84267491001985     -0.03181637954844
  O   0.45676639788550      2.71740303313153      0.81727560250270
  O   -0.02171176108805      1.97608085876379     -1.19698263477768
  N   1.68567238188450     -0.04021894313835     -0.64295924245920
  O   1.42221824528443     -1.04479330831140     -1.29169729566514
  O   2.69712925723151      0.64608078421726     -0.71647259602633
