16
Coordinates from ORCA-job run
  C   -0.66044087534561     -0.31511715078179      0.31393292596143
  C   0.68161536278292      0.35160926990910     -0.00655766694943
  Br  -2.14746686043404      0.94761917500495      0.22798610381125
  H   1.46752961340034     -0.40616282220293     -0.01958451122076
  C   -0.58023681266684     -0.86191113663424      1.66690736962346
  N   -0.54261694059833     -1.36292179665549      2.72984787836903
  C   -0.93838881235907     -1.45687151663380     -0.67089502151942
  H   -1.07030934665916     -1.07444591009654     -1.68171797815257
  H   -0.11078169475986     -2.17050487581465     -0.65768020956918
  H   -1.85256148998662     -1.96580011129789     -0.36492971182305
  N   1.14484899207547      1.40573985148237      0.96552192251873
  O   0.40403921765144      1.72951959316691      1.88418248876483
  O   2.26990332498443      1.82847388049574      0.72836969791355
  N   0.68134045295409      0.98294403105708     -1.37163460524615
  O   0.91791635331541      0.21252858924386     -2.29736652252375
  O   0.33760951564542      2.15430092975732     -1.44638215995796
