16
Coordinates from ORCA-job run
  C   -0.58444556684936     -0.35084893687829      0.56858887798371
  C   0.63607872189493      0.55592740498117      0.35078146953043
  Br  -1.77282326290007      0.61832836595145      1.79740181694362
  H   1.18178761559370      0.71044502367863      1.27971799064189
  C   -0.11249067409143     -1.53168969828570      1.29075158950041
  N   0.24986680853931     -2.50663423003592      1.83943027902367
  C   -1.35053133610703     -0.78398536959387     -0.67881088907546
  H   -1.74203838215562      0.07938838779200     -1.20867525645575
  H   -0.69039749446598     -1.34958669985038     -1.34014407978254
  H   -2.17215562024874     -1.43265329417934     -0.37304704044578
  N   0.34803491466385      1.92487216327446     -0.19732452498440
  O   -0.65266997627110      2.09703524753732     -0.87960655720688
  O   1.20566766718419      2.75885711648182      0.08026893813597
  N   1.59549217312078     -0.09556870406110     -0.61657731326771
  O   1.40675620567043      0.10981482658848     -1.80986277653586
  O   2.45486820642215     -0.80370160340072     -0.10489252400533
