16
Coordinates from ORCA-job run
  C   -0.53917947473162     -0.44144177518542      0.55111122108931
  C   0.71851981065024      0.41890677986850      0.36609713743746
  Br  -1.47157367360606      0.33194804607376      2.10683653892605
  H   1.30447196867829      0.46750662628128      1.28361634455165
  C   -0.09924221235165     -1.77541278296422      0.95284565466359
  N   0.24607730091572     -2.84867909050595      1.28650979553190
  C   -1.52065361247248     -0.50220451631414     -0.61577749947383
  H   -1.02730989156352     -0.90781969720038     -1.49755999494759
  H   -2.34903440017747     -1.15336384626760     -0.33478428162489
  H   -1.91163746728417      0.48868128706019     -0.83866609755575
  N   0.39791679607175      1.83178166084977     -0.02815016368820
  O   0.57901859413271      2.69409449890198      0.82217631173405
  O   -0.00966313836718      1.98813984897037     -1.17552367285775
  N   1.65720085188285     -0.08594136249016     -0.70852948688309
  O   2.68656448147868      0.56887073434950     -0.81449544458248
  O   1.33752406674389     -1.07506641142748     -1.35570636232043
