16
Coordinates from ORCA-job run
  C   -0.59231837781792     -0.36629084111113      0.56959506801256
  C   0.63504562344308      0.54659852082731      0.37719259177357
  Br  -1.64865695552312      0.35988996362433      2.06185406580280
  H   1.04567015283513      0.86378959528387      1.33611233990337
  C   -0.08308471437079     -1.65723904529220      1.03072110578174
  N   0.33216864916314     -2.70266888541313      1.37376409715540
  C   -1.49480854718655     -0.55176548259006     -0.64847924519417
  H   -2.28110953325093     -1.26358779596039     -0.39580896247293
  H   -0.90963019435691     -0.94304078177847     -1.48078647341500
  H   -1.95354763529378      0.39524491547633     -0.92559008817568
  N   0.36324063418269      1.80798306591592     -0.41579857180205
  O   -0.73407043951717      2.32658757108508     -0.26614711663481
  O   1.29876189073743      2.23374787760411     -1.07999994918986
  N   1.73976845133846     -0.17592471928816     -0.34089697777652
  O   1.46079356641732     -0.65517879906295     -1.43389414043112
  O   2.81977742919992     -0.21914515932045      0.23716225666270
