16
Coordinates from ORCA-job run
  C   -0.74765847455123     -0.17835904207145      0.33797172516161
  C   0.32693969205623      0.73980233778028     -0.23548219085438
  Br  -2.19696627122770      0.99886222560372      0.94242087054825
  H   -0.07331886782110      1.35177174348900     -1.04174085220624
  C   -0.28886877809998     -0.98186055236718      1.46595944511628
  N   0.01762613099833     -1.73490166843816      2.31530710669574
  C   -1.29492169225368     -1.09693091047644     -0.75721574649911
  H   -2.14509221665705     -1.65404006106081     -0.36389425117567
  H   -0.52805651032320     -1.80767163472564     -1.07196589747897
  H   -1.61904248307823     -0.51067202853099     -1.61849078266260
  N   1.45002806213536     -0.07756665622766     -0.81938376465267
  O   2.27637904273397     -0.51754832937971     -0.02770302522709
  O   1.40605186662945     -0.25396593841515     -2.03215239911852
  N   0.97014732289859      1.67926293367605      0.74712073302423
  O   0.85220013947956      1.45089523824928      1.94277159984700
  O   1.59455303708069      2.59392234289485      0.21847742948212
