10
Coordinates from ORCA-job run
  C   -1.07606395877160     -0.33907746998961      0.13050135793366
  C   0.11985055932504      0.58377156102822     -0.00856020911794
  F   -2.18573712499148      0.46421904779318      0.34125465035721
  H   0.24637618762073      1.21184366586912      0.87033104649450
  H   -0.96072431829637     -1.00355292732380      0.98888218254241
  H   -1.23356577834745     -0.92483564005289     -0.77255669956065
  H   0.02355154390695      1.20880188737355     -0.89772744649270
  N   1.37448557868494     -0.20489083629261     -0.16805740864080
  O   1.30646039396012     -1.21540480609272     -0.86668842937324
  O   2.38536691690912      0.21912551768756      0.38262095585755
