10
Coordinates from ORCA-job run
  C   -1.10548535552652     -0.28886701014713      0.11830328613101
  C   0.08025817874029      0.61536273828135     -0.08617094979363
  F   -1.00347225550301     -0.89332772061025      1.35925152587610
  H   0.00383844246790      1.14539283858694     -1.03805453336598
  H   -1.13421717697431     -1.06771834052633     -0.64289939898549
  H   -2.02647676316561      0.29837848774245      0.09460395446044
  H   0.20287099285131      1.31942243140523      0.73407532285299
  N   1.34572956399773     -0.18264414100542     -0.15374764481274
  O   2.29419677437168      0.20954676356854      0.51801031039486
  O   1.34475759874055     -1.15554604729539     -0.90237187275755
