13

C	-0.374187	0.103183	-1.474014
C	0.0	0.0	0.0
F	-1.702494	0.520911	-1.605279
H	1.093954	0.0	0.0
H	-0.321396	0.936178	0.464609
N	0.473156	1.082836	-2.065187
H	1.432506	0.973027	-1.734633
H	0.452616	1.027708	-3.075101
C	-0.333661	-1.217476	-2.157718
N	-0.287172	-2.234859	-2.743567
C	-0.592584	-1.132364	0.688491
N	-1.088979	-2.035755	1.250267
Br	3.440766	0.0	0.0
