13

C	-0.530715	0.012491	-1.427788
C	0.0	0.0	0.0
F	0.050513	-1.086872	-2.073504
H	1.092193	0.0	0.0
H	-0.3103	-0.950259	0.44988
N	-1.951423	-0.060872	-1.455844
H	-2.263204	-0.870163	-0.932686
H	-2.287446	-0.122838	-2.409301
C	-0.119291	1.214284	-2.184191
N	0.139753	2.160079	-2.828805
C	-0.533442	1.105697	0.784172
N	-0.968273	1.983356	1.43086
Br	3.474612	0.0	0.0
