13

C	-0.324408	-0.023498	-1.495601
C	0.0	0.0	0.0
F	-0.111753	1.298324	-1.95238
H	1.094741	0.0	0.0
H	-0.375539	0.921892	0.445295
N	0.500361	-0.968781	-2.128101
H	1.467871	-0.855639	-1.823815
H	0.427324	-0.922629	-3.135429
C	-1.750362	-0.293143	-1.79726
N	-2.88324	-0.483051	-2.040428
C	-0.518084	-1.165708	0.699299
N	-0.955332	-2.088144	1.278862
Br	3.467987	0.0	0.0
