13

C	-0.538689	0.035585	-1.427117
C	0.0	0.0	0.0
F	0.013881	-1.040465	-2.128058
H	1.091973	0.0	0.0
H	-0.337378	0.897912	0.524341
N	-1.963027	-0.003546	-1.451809
H	-2.293297	-0.029504	-2.409317
H	-2.285745	-0.83357	-0.966365
C	-0.105541	1.266686	-2.123477
N	0.16244	2.248149	-2.707816
C	-0.52156	-1.178433	0.682271
N	-0.995882	-2.124013	1.191634
Br	3.469335	0.0	0.0
