13

C	-0.336116	-0.043222	-1.491638
C	0.0	0.0	0.0
F	-0.184112	1.260478	-2.003578
H	1.094602	0.0	0.0
H	-0.325348	-0.930896	0.470413
N	0.519835	-0.981597	-2.101806
H	0.441271	-0.95573	-3.109908
H	1.484942	-0.821523	-1.808777
C	-1.752358	-0.392503	-1.75939
N	-2.873782	-0.675772	-1.961162
C	-0.576153	1.14272	0.687033
N	-1.063219	2.044355	1.258825
Br	3.46899	0.0	0.0
