13

C	-0.532147	0.033283	-1.429837
C	0.0	0.0	0.0
F	0.01796	-1.046885	-2.124611
H	1.091956	0.0	0.0
H	-0.338517	0.899465	0.521206
N	-1.957821	-0.000879	-1.461152
H	-2.283246	-0.827347	-0.971441
H	-2.280475	-0.037745	-2.420778
C	-0.092849	1.260155	-2.129382
N	0.178873	2.238416	-2.718197
C	-0.523294	-1.177326	0.682451
N	-0.993485	-2.122569	1.196681
Br	3.463878	0.0	0.0
