13

C	-0.56286	-0.054658	-1.42659
C	0.0	0.0	0.0
F	-0.041671	-1.172358	-2.038494
H	1.092851	0.0	0.0
H	-0.323853	0.934114	0.471057
N	-1.997951	-0.153098	-1.548322
H	-2.431223	0.709815	-1.243947
H	-2.322134	-0.907001	-0.950306
C	-0.127328	1.147278	-2.173964
N	0.194726	2.109563	-2.762589
C	-0.532492	-1.123032	0.761264
N	-1.032315	-2.018995	1.332592
Br	3.461248	0.0	0.0
