13

C	-0.540172	0.017451	-1.425036
C	0.0	0.0	0.0
F	-0.075792	-1.110105	-2.070397
H	1.092254	0.0	0.0
H	-0.339788	-0.939279	0.446115
N	-1.977002	-0.055319	-1.429063
H	-2.364006	0.641775	-0.804118
H	-2.332813	0.114263	-2.362225
C	-0.037463	1.189174	-2.190476
N	0.247573	2.16783	-2.774329
C	-0.530791	1.122876	0.760283
N	-1.017039	2.027612	1.32994
Br	3.463331	0.0	0.0
