13

C	-0.470461	0.104768	-1.452365
C	0.0	0.0	0.0
F	-0.151064	1.406631	-1.87295
H	1.093	0.0	0.0
H	-0.339265	0.877485	0.557763
N	0.094844	-0.863572	-2.281614
H	-0.485944	-1.367167	-2.900349
H	0.863709	-1.382744	-1.888019
C	-1.947535	0.053609	-1.538331
N	-3.119622	0.011628	-1.61708
C	-0.506008	-1.21532	0.622442
N	-0.917267	-2.19616	1.119655
Br	3.466448	0.0	0.0
