13

C	-0.404492	-0.207963	-1.455363
C	0.0	0.0	0.0
F	-0.206516	1.005511	-2.140689
H	1.09277	0.0	0.0
H	-0.315909	-0.872017	0.578336
N	0.360618	-1.270527	-1.976641
H	0.221872	-1.369086	-2.972977
H	1.346377	-1.133672	-1.757048
C	-1.851255	-0.496492	-1.606912
N	-2.996711	-0.72871	-1.715097
C	-0.566	1.206613	0.58176
N	-1.044245	2.15764	1.074491
Br	3.457357	0.0	0.0
