13

C	-0.519465	0.014626	-1.430087
C	0.0	0.0	0.0
F	-0.078787	-1.105645	-2.100359
H	1.092857	0.0	0.0
H	-0.307502	0.923631	0.503139
N	-1.956478	-0.016082	-1.462328
H	-2.343749	0.656592	-0.814018
H	-2.298519	0.182164	-2.394541
C	0.023669	1.192652	-2.16104
N	0.306711	2.161194	-2.762254
C	-0.523599	-1.146561	0.733621
N	-0.939638	-2.05456	1.349734
Br	3.460369	0.0	0.0
