15
Coordinates from ORCA-job run
  C   -0.69753623341679      0.03486963105912     -0.61174696313989
  C   0.55405582036030     -0.35982323630543      0.16260459662076
  H   -1.05261493512754     -0.83624462126910     -1.17572964123440
  H   0.26378383824409     -1.08069517851578      0.94406512871835
  H   -0.40451579534119      0.78825919063055     -1.35192586681109
  C   -1.80711368560611      0.56184334383397      0.28863488668637
  H   -2.68285448085101      0.85531615650726     -0.29524028385524
  H   -1.45587945014200      1.42418788178879      0.85434991260909
  H   -2.12415962656822     -0.20226624872944      1.00418728792406
  N   1.08974266991788      0.79892925628512      0.85450021627324
  H   1.79821259912193      0.51394062052505      1.52067039528301
  H   1.54530020846370      1.38471029561691      0.16137334399909
  N   1.53337790285178     -0.91297129160521     -0.78028384837505
  H   2.31960448287786     -1.29700643638389     -0.26699354049873
  H   1.11959668521533     -1.67404936343791     -1.30846562419957
