15
Coordinates from ORCA-job run
  C   -0.61623229133034      0.51800836127594     -0.48638675679628
  C   0.62445393871755      0.14123518766854      0.31376147069041
  H   -0.52753638873160      0.07335129874000     -1.48846936830146
  H   0.52847781165505      0.55730383048628      1.32331638073252
  H   -0.60298146962413      1.60210862571190     -0.62446939660711
  C   -1.91580991109309      0.06805565716418      0.16922089324241
  H   -1.92984627507389     -1.01343982311720      0.30077240662417
  H   -2.02389700241229      0.52462691765869      1.15695804222533
  H   -2.78088281985242      0.36229201372754     -0.43026742207911
  N   1.78550974526353      0.79257141039539     -0.29224046147040
  H   1.90332341056112      0.45471540491136     -1.24207502722280
  H   2.62617930171391      0.55137918279321      0.22096407248932
  N   0.67002695414611     -1.31211362052063      0.47054826468238
  H   0.80066818323118     -1.74337017258884     -0.43929092761123
  H   1.45954681282930     -1.57672427430635      1.04865782940183
