15
Coordinates from ORCA-job run
  C   -0.73131554007243     -0.03490989272190     -0.59054770756065
  C   0.49698129693631     -0.47099698126218      0.19850749324577
  H   -1.12753657528088     -0.91777298348776     -1.09855805880209
  H   0.17478009863315     -1.14129775543438      1.00374858454867
  H   -0.40533897023362      0.66003979107341     -1.37829328635257
  C   -1.80041819735011      0.62241034162811      0.27324544391665
  H   -2.14781633065873     -0.07023674251146      1.04481522913410
  H   -2.66598483739537      0.91408392074752     -0.32678202559318
  H   -1.40544377503439      1.50560835173946      0.77433419442987
  N   1.08846613535904      0.69800714819670      0.84847574826292
  H   1.87465887926050      0.41766198884578      1.42369715668574
  H   1.44120616377618      1.33310681217823      0.13919229712438
  N   1.35735605400522     -1.26417030105388     -0.67907309121658
  H   1.66511907836639     -0.68992472646603     -1.45736572401529
  H   2.18628651968874     -1.56160897147162     -0.17639625380773
