15
Coordinates from ORCA-job run
  C   -0.57078683040705      0.51259222765927     -0.38401546735421
  C   0.68115984632492      0.00926636910601      0.33406309807451
  H   -0.53699527627105      1.60769416844148     -0.40056121912227
  H   0.62981025337285      0.32514923631825      1.38336887960276
  H   -0.51395377561506      0.18714061818119     -1.43286485131075
  C   -1.87237621564703      0.03337783650268      0.24950185116699
  H   -1.93590180475433      0.36446930184163      1.28975321485702
  H   -1.92438137144329     -1.05489755894821      0.24700256507981
  H   -2.74176700728437      0.42942605239016     -0.28128821118684
  N   1.93728914602678      0.55963574746976     -0.19136016099994
  H   1.97542639871251      1.55917427493175     -0.01852253072460
  H   1.95867099077817      0.43211498927584     -1.19904394404088
  N   0.68704581812687     -1.44190419354645      0.32246316743037
  H   1.56460893085094     -1.75684981929271      0.72075893360291
  H   0.66315089722912     -1.76738925033065     -0.63925532507486
