15
Coordinates from ORCA-job run
  C   -0.77951923298977     -0.12763664449409     -0.55308600767182
  C   0.55856174733398     -0.46976341862094      0.08692706237676
  H   -1.24115348976100     -1.07168835862278     -0.85426711528538
  H   0.36943040253125     -1.13648579810256      0.94466871380610
  H   -0.57689738729237      0.44277485879948     -1.46667100029608
  C   -1.71817088131206      0.66015755273591      0.35581663823622
  H   -1.34822089634736      1.67195765051969      0.53662745948353
  H   -1.84439373772656      0.16073601023022      1.32151839197257
  H   -2.70825976940109      0.75653675463210     -0.09517723695453
  N   1.24450508645119      0.76766676535804      0.48017906013565
  H   0.71019928524937      1.25732288534397      1.18984787792940
  H   2.13684605140771      0.52968715111290      0.90015313325331
  N   1.35149407998092     -1.23445407642797     -0.85781216825667
  H   1.66499471158021     -0.60079044160185     -1.58613036476267
  H   2.17858403029558     -1.60502089086212     -0.40359444396640
