15

C	-0.445426	-0.01251	-1.459083
C	0.0	0.0	0.0
Cl	-0.060173	-1.621323	-2.191118
H	1.093049	0.0	0.0
H	-0.337977	0.95843	0.413337
C	-1.894057	0.167711	-1.588286
N	-3.036844	0.411447	-1.713189
C	0.323659	1.053505	-2.228651
H	0.093969	1.012864	-3.295192
H	1.390233	0.885699	-2.050687
H	0.05412	2.040213	-1.841059
N	-0.6112	-1.092445	0.760241
H	0.019474	-1.884967	0.690476
H	-0.611186	-0.82644	1.73794
H	3.008139	0.0	0.0
