15

C	-0.446992	0.043947	-1.457284
C	0.0	0.0	0.0
Cl	-0.063461	-1.535567	-2.25268
H	1.100182	0.0	0.0
H	-0.337553	0.942065	0.450235
C	-1.896303	0.227047	-1.579526
N	-3.045775	0.442986	-1.694403
C	0.322646	1.138111	-2.185895
H	0.091152	1.138974	-3.253022
H	0.055206	2.109276	-1.759846
H	1.389208	0.962599	-2.015835
N	-0.615399	-1.117262	0.720895
H	-0.548447	-0.910919	1.710801
H	-0.017361	-1.92398	0.571195
H	3.008993	0.0	0.0
