12

C	0.0	0.0	0.0
C	-0.541662	0.075487	-1.417842
Br	1.949385	0.0	0.0
H	-1.647765	0.132828	-1.24832
H	-0.246123	0.935436	0.516127
H	-0.302776	-0.852261	-1.945483
N	-0.553073	-1.177315	0.600647
H	-1.582569	-1.004426	0.503319
H	-0.349894	-1.156668	1.594471
C	-0.082781	1.227693	-2.177124
N	0.263585	2.160214	-2.803516
H	-3.008869	0.0	0.0
