12

C	0.0	0.0	0.0
C	-0.632359	0.075055	-1.362169
Br	2.010602	0.0	0.0
H	-1.747374	0.110401	-1.042452
H	-0.276375	0.878281	0.577666
H	-0.466229	-0.846003	-1.927176
N	-0.439199	-1.172066	0.659037
H	0.086785	-1.992129	0.39568
H	-0.486519	-1.067892	1.658599
C	-0.24246	1.233355	-2.140547
N	0.049133	2.18531	-2.766085
H	-3.121609	0.0	0.0
