12

C	0.0	0.0	0.0
C	-0.54276	0.059225	-1.418552
Br	1.949115	0.0	0.0
H	-0.300034	-0.873157	-1.933984
H	-0.246177	0.941136	0.504698
H	-1.648257	0.109706	-1.247771
N	-0.554109	-1.169854	0.612857
H	-1.583637	-0.996708	0.517221
H	-0.349488	-1.143978	1.607014
C	-0.090709	1.202389	-2.194664
N	0.25274	2.127619	-2.832513
H	-3.013232	0.0	0.0
