16

C	-0.418882	0.050021	-1.467687
C	0.0	0.0	0.0
Cl	-0.065	-1.52983	-2.282223
H	1.094662	0.0	0.0
H	-0.309647	0.964082	0.426895
C	-1.863786	0.261052	-1.614309
N	-3.016642	0.474074	-1.703816
C	0.37944	1.132041	-2.186598
H	0.123512	2.106859	-1.761301
H	0.165408	1.13807	-3.257442
H	1.439583	0.9354	-1.996233
C	-0.578964	-1.141984	0.815319
H	-1.674455	-1.159879	0.799651
H	-0.20853	-2.101477	0.451935
H	-0.252097	-1.038448	1.853095
H	3.009201	0.0	0.0
