16

C	-0.36425	-0.022625	-1.471953
C	0.0	0.0	0.0
Cl	-2.163406	-0.369443	-1.705266
H	1.096229	0.0	0.0
H	-0.319667	-0.960227	0.420537
C	-0.15297	1.282362	-2.102527
N	0.010608	2.331548	-2.605835
C	0.436544	-1.093841	-2.193729
H	0.183241	-2.069344	-1.773117
H	1.497387	-0.893113	-1.991243
H	0.229626	-1.096817	-3.265941
C	-0.555389	1.164683	0.799456
H	-1.64979	1.196312	0.789515
H	-0.218959	1.080924	1.836378
H	-0.174689	2.112987	0.412036
H	2.957343	0.0	0.0
