16

C	-0.409054	0.06282	-1.472798
C	0.0	0.0	0.0
Cl	-0.116543	-1.562409	-2.221897
H	1.094582	0.0	0.0
H	-0.373114	-0.930087	0.437832
C	-1.842828	0.330396	-1.639474
N	-2.985303	0.590528	-1.737715
C	0.435635	1.082631	-2.229592
H	0.23521	1.035778	-3.301744
H	1.486225	0.86257	-2.012451
H	0.20672	2.089388	-1.869354
C	-0.479692	1.201621	0.806962
H	-0.064079	2.13358	0.416688
H	-0.106869	1.099199	1.829545
H	-1.570339	1.291236	0.842985
H	3.009399	0.0	0.0
