16

C	-0.540116	-0.108955	-1.421457
C	0.0	0.0	0.0
Cl	0.097504	1.23948	-2.448963
H	1.093379	0.0	0.0
H	-0.309409	-0.918312	0.517326
C	-0.098369	-1.362494	-2.042325
N	0.144133	-2.395697	-2.54538
C	-2.065503	-0.049002	-1.507254
H	-2.494098	-0.847129	-0.893534
H	-2.416562	0.913865	-1.135451
H	-2.400704	-0.170226	-2.539376
C	-0.491645	1.222894	0.763386
H	0.109583	1.313758	1.670224
H	-0.328355	2.132392	0.18214
H	-1.547272	1.174679	1.050411
H	2.953723	0.0	0.0
