14
Coordinates from ORCA-job run
  C   0.74398700478453     -0.07700152384856      0.43487060411118
  C   -0.76399869739332     -0.16619130258176      0.16192820247633
  Br  1.20551002754861     -1.37454139014030      1.81906623679495
  H   -0.97478794110350     -1.17610559426986     -0.20538470889298
  H   0.97349101287199      0.89938664499360      0.87071035991824
  C   1.57039181087957     -0.33079452027359     -0.81072464217991
  H   1.36784155222653     -1.32950328675392     -1.20440594880124
  H   1.31291011152439      0.40410261209441     -1.57356983276434
  H   2.63457172263031     -0.26145560301345     -0.58189845092954
  N   -1.11836476617545      0.78262361872322     -0.88984325285826
  H   -2.04797544406459      0.57936557156821     -1.23763578287979
  H   -1.13740951719163      1.72317275504383     -0.51095152260247
  C   -1.54706413072028      0.03965089365913      1.39720037615075
  N   -2.21810274581716      0.28629112479904      2.32963836245709
