14
Coordinates from ORCA-job run
  C   0.60516204519115     -0.56715780059085     -0.09693310881518
  C   -0.73722706819505      0.06952976749959      0.27967585865346
  Br  0.54447917172065     -1.30032285919031     -1.89767282431737
  H   -0.58656972798226      0.46938457078774      1.29809637906281
  H   0.75647514032169     -1.42888852861313      0.56049166846582
  C   1.76277990829035      0.40690942693056      0.02957803016884
  H   2.70775277139758     -0.09657240058562     -0.17602794079615
  H   1.80157925736449      0.81448582699608      1.04492344204135
  H   1.65362054964129      1.23202502834038     -0.67649658021914
  N   -1.83216260136256     -0.88474283932977      0.18804391998959
  H   -2.70492072389843     -0.44113025303216      0.44797408305662
  H   -1.66536051364807     -1.65200792382500      0.82901692889922
  C   -1.02477750717679      1.22315689518220     -0.58220277026964
  N   -1.27883070166404      2.15533108943030     -1.24846708592022
