14
Coordinates from ORCA-job run
  C   0.69568439447780     -0.45370354299995      0.45532639984698
  C   -0.80770879044258     -0.13295516610302      0.45784129352188
  Br  0.89903502556549     -2.37964476841867      0.13858651585397
  H   -1.28119457201245     -0.76308082283882      1.22610897278857
  H   1.08231913515898     -0.30359532922550      1.46532394555392
  C   1.49013904296703      0.33560237004322     -0.56490664900015
  H   1.39397829304349      1.40378978595251     -0.34977393461049
  H   1.11670772842306      0.15080977747111     -1.57053116002894
  H   2.54578208715456      0.06613258645145     -0.51496322295130
  N   -1.37668990935939     -0.29131682907838     -0.87495053858065
  H   -2.34586350716295      0.00310115821644     -0.87454253957909
  H   -1.34733619425038     -1.27315718969249     -1.12547338527312
  C   -0.97138304720021      1.26412371629319      0.88606110002690
  N   -1.09446968636246      2.37489425392891      1.24589320243153
