14
Coordinates from ORCA-job run
  C   0.68278252608707     -0.45168386419579      0.47591554724392
  C   -0.82007461755555     -0.13043737588189      0.43679684823290
  Br  0.89399794860184     -2.37924933985474      0.17424807463968
  H   -1.31408721732268     -0.75649351074343      1.19535599147017
  H   1.04229066875524     -0.29675431470590      1.49509681140118
  C   1.50448615763849      0.33241130339523     -0.52655110667420
  H   1.15800601501318      0.14287444054071     -1.54079701112688
  H   1.40312606106884      1.40160577106305     -0.31930206818957
  H   2.55829427745050      0.06292666211954     -0.44720869806577
  N   -1.35331898170563     -0.29503570876688     -0.90990198090171
  H   -1.31498060463054     -1.27779975012587     -1.15574108946152
  H   -2.32285518150941     -0.00297805534928     -0.93620388759362
  C   -0.99310297753973      1.26901177656960      0.85348357121014
  N   -1.12256407435164      2.38160196593566      1.20480899781528
