14
Coordinates from ORCA-job run
  C   0.67681696722984     -0.08560518606517      0.44337286281918
  C   -0.85606577745791     -0.11596224915496      0.27167122185334
  Br  1.17578842321212     -1.36724810056194      1.83184140400349
  H   -1.14596826227224     -1.14952430807762      0.05024717701828
  H   0.97645425673540      0.89203930138769      0.83103587560748
  C   1.41819326607169     -0.41575471129577     -0.83906361644109
  H   1.22813947199593      0.34746652135148     -1.59746505364720
  H   2.49325531513706     -0.44871826197725     -0.66114714441181
  H   1.10689582481740     -1.38977328538483     -1.22503700608021
  N   -1.37801377584957      0.72981468122576     -0.79095863334495
  H   -1.07197800339040      0.40136784288579     -1.69660241121609
  H   -1.08872492327303      1.69259139468348     -0.66900482290638
  C   -1.51206043516731      0.27297124145329      1.52940593681921
  N   -2.02373234778898      0.63733511953007      2.52070420992674
