14
Coordinates from ORCA-job run
  C   0.64183273951659     -0.55892305955010      0.06376780287761
  C   -0.69869703753356      0.09821228693433      0.39251305261514
  Br  0.47223794311606     -1.62301728743447     -1.56989819785739
  H   -0.53283684661441      0.66110800899385      1.32011173027273
  H   0.83802022354965     -1.28505309832126      0.85477974676759
  C   1.77400077866892      0.43778540241613     -0.08823554152392
  H   2.71766059783295     -0.07829111418318     -0.26795345751738
  H   1.58976002182835      1.11905922354373     -0.92076072907652
  H   1.87171284867562      1.02417910062973      0.83119057451129
  N   -1.71792456949861     -0.89952388102708      0.67029939639710
  H   -1.93550397053461     -1.40914689441814     -0.17859750824482
  H   -2.56740218770342     -0.44768212972536      0.98770804664862
  C   -1.06703508915389      1.08372353114412     -0.64641129046469
  N   -1.38882545214963      1.87956991099769     -1.44851362540536
