14
Coordinates from ORCA-job run
  C   0.56407616303214     -0.51366345379243     -0.13452060803916
  C   -0.75914991436477      0.05271311070241      0.41504764316023
  Br  0.34257137174450     -1.01425353364020     -2.01070968588209
  H   -0.56716084315091      0.27082601093100      1.47475362544097
  H   0.75712484300145     -1.45629037843834      0.38565780882178
  C   1.73297975633088      0.44097519943801      0.01585746369319
  H   2.66063415825165     -0.02742329670333     -0.31515895006369
  H   1.57372982064005      1.34683435429702     -0.57143911990929
  H   1.84457849641723      0.72189243961561      1.06841214800306
  N   -1.92787004409096     -0.80560346942758      0.35950872412747
  H   -2.11272586239343     -1.07277040360991     -0.60041767811478
  H   -1.75945604489835     -1.64834211918501      0.89607530124513
  C   -1.06506040291666      1.33742061181809     -0.23101569533187
  N   -1.28327149760281      2.36668492799467     -0.75105097715095
