14
Coordinates from ORCA-job run
  C   0.73372389477801     -0.11155708181781      0.48419575468843
  C   -0.77930439573129     -0.08760663248070      0.22342522058140
  Br  1.11892501424024     -1.50651535748107      1.79608605420117
  H   -1.08665243759181     -1.09999830551843     -0.07782304057623
  H   1.02056112859687      0.83210387291025      0.95137195227370
  C   1.52679945515795     -0.35821046965597     -0.78398627409428
  H   2.59356945066630     -0.40989167340271     -0.56456856528667
  H   1.35878829296140      0.46522003630311     -1.48111727489319
  H   1.23025318347339     -1.30134884539118     -1.25099095844739
  N   -1.06020152740627      0.93377155838203     -0.79108875069034
  H   -1.04470155224912      0.51260178819530     -1.71118906313142
  H   -1.97744678262992      1.33746799517727     -0.65039480274921
  C   -1.51139218225058      0.24388787224538      1.45053110432402
  N   -2.12292154201516      0.55007524253455      2.40454864380001
