14
Coordinates from ORCA-job run
  C   0.77950945539536      0.06047596263408      0.37101088046891
  C   -0.73175123407668     -0.18442130697155      0.26031142727859
  Br  1.45708784058860     -0.91153489192906      1.92318289803901
  H   -0.88279030417480     -1.25844132938667      0.10884959571691
  H   0.95786586430218      1.11585869125736      0.59519982276962
  C   1.52511689261566     -0.37014040193358     -0.87696197706926
  H   1.37764677970319     -1.43722130079924     -1.05869480025053
  H   2.59419080486623     -0.18573173809550     -0.76430714998385
  H   1.14794373598539      0.18538299772390     -1.73571013588067
  N   -1.24728704355183      0.51664911774058     -0.91210570183094
  H   -2.18005125194130      0.18549838146119     -1.12825365685924
  H   -1.31803578194689      1.50889669409763     -0.71471120869154
  C   -1.43136746514002      0.20038156465031      1.50298538746014
  N   -2.04707829262510      0.57434755955055      2.43120461883284
