14
Coordinates from ORCA-job run
  C   0.64840664386904     -0.44898377127006      0.48344269267932
  C   -0.87433662397968     -0.17706386844913      0.50947249313382
  Br  0.91268056185387     -2.36270958332994      0.16412991206045
  H   -1.31326609707790     -0.82621694018460      1.27461757142662
  H   1.05154132635417     -0.27627405612003      1.48416012787287
  C   1.40463068736240      0.36011027288561     -0.55125269550584
  H   2.47220345223594      0.14467106485987     -0.49954315287521
  H   1.06555769296348      0.12492845552829     -1.56132348996416
  H   1.25956335041614      1.42812798575957     -0.36408954696895
  N   -1.61662272958914     -0.38561667413238     -0.71894938731213
  H   -1.28274494313031      0.22393803440802     -1.45469143395570
  H   -1.51626630417394     -1.34754677907286     -1.01925001446562
  C   -1.05975239639766      1.21324612157045      0.95451146666938
  N   -1.14959462070640      2.33138973754719      1.30076545720516
