14
Coordinates from ORCA-job run
  C   0.66582399810426     -0.44960128465026      0.45892473323346
  C   -0.85462621885305     -0.17682264204611      0.54223795501563
  Br  0.91684756151784     -2.36362609680120      0.13042486581869
  H   -1.26528082443215     -0.82630522381304      1.32266419370053
  H   1.10674947206623     -0.27688046112470      1.44361799446202
  C   1.38270861286503      0.35857716521091     -0.60420174061955
  H   2.45200171821084      0.14535930706488     -0.58997924351117
  H   1.00810916029885      0.11985835719814     -1.60104381736436
  H   1.24199843722906      1.42699295310031     -0.41479056172231
  N   -1.64221077305365     -0.38391534509109     -0.65796790788387
  H   -1.33613628510948      0.22709129294623     -1.40448978483057
  H   -1.55286197692401     -1.34527698962694     -0.96340547746170
  C   -1.02276376182567      1.21319885846695      0.99479310136147
  N   -1.09935912009410      2.33135010916590      1.34421568980174
