14
Coordinates from ORCA-job run
  C   0.57817307999759     -0.50195435692088     -0.11738666435022
  C   -0.77997116000436      0.03206689916750      0.37651591675518
  Br  0.45968412365384     -0.96141983792093     -2.01327326086096
  H   -0.64551563573077      0.22949221885654      1.44910363404868
  H   0.75967290139516     -1.45373544086445      0.39003627115360
  C   1.72267302577921      0.46593131625600      0.11426891722134
  H   1.57932127312146      1.38272159059442     -0.45988448496168
  H   1.77598639585203      0.72383930511199      1.17719515305547
  H   2.67327523988919      0.01917116619117     -0.17911085052195
  N   -1.93043747372668     -0.84209415914721      0.24288254043513
  H   -2.06123972466798     -1.09164758689665     -0.73058677473426
  H   -1.77658191623322     -1.69338494480048      0.77026118727791
  C   -1.07320137551098      1.32641072536253     -0.25628553198905
  N   -1.28083875381449      2.36360310501041     -0.76473605252920
