14
Coordinates from ORCA-job run
  C   0.69343531375795     -0.44132581476526      0.47079022850345
  C   -0.80973683214599     -0.12002470885953      0.45800479597278
  Br  0.89744648582639     -2.37536365850938      0.20811924040081
  H   -1.28662453580554     -0.72636165506978      1.24301865632527
  H   1.07579646621713     -0.26382195934841      1.47794091448857
  C   1.49258988966457      0.31950722795041     -0.56730939279772
  H   1.12108072736534      0.10993104328792     -1.56873392537481
  H   1.39890400179435      1.39304716523827     -0.37953715363712
  H   2.54742381710497      0.04884504276881     -0.50784160656062
  N   -1.37387120340057     -0.31715526646569     -0.87147655350831
  H   -2.34343764925584     -0.02437571301210     -0.88306896845945
  H   -1.34181515342064     -1.30558283855230     -1.09429978241039
  C   -0.97420707857669      1.28920162182025      0.84420460051219
  N   -1.09798424912544      2.41047951351678      1.16918894654535
