14
Coordinates from ORCA-job run
  C   0.51168385033064     -0.45721612860933     -0.35903910422588
  C   -0.73186785869046     -0.06121572267520      0.46016453496126
  Br  0.16137905358906     -0.19508609037887     -2.26370532824023
  H   -0.47253879169853     -0.27052387651786      1.50723078156169
  H   0.64762819653198     -1.53659094818616     -0.24547320281551
  C   1.76312188192552      0.29575474570739      0.05023832288562
  H   2.63139950995649     -0.06674251956909     -0.50122442635439
  H   1.65391697472898      1.36484085378054     -0.14010354606870
  H   1.94724659144106      0.14792241127523      1.11971084350174
  N   -1.96965246298556     -0.76329923437220      0.17644970363762
  H   -1.84820145184282     -1.75440320933217      0.34730056049750
  H   -2.22056074320247     -0.63784646710881     -0.79728603499307
  C   -0.95886432154275      1.38808921865162      0.36344359933070
  N   -1.11469042854114      2.54831696733491      0.28029329632165
