14
Coordinates from ORCA-job run
  C   0.64333026916112     -0.55595769073375      0.08238552163273
  C   -0.72166415853394      0.07720341562361      0.35166803470592
  Br  0.58969286247187     -1.54930270363632     -1.60317698796377
  H   -0.62139848148775      0.59945849449122      1.31187202029909
  H   0.79509194804489     -1.31477438182726      0.85216364411093
  C   1.77297797592189      0.45438489500772      0.04665651389350
  H   1.63588518728681      1.16940973026960     -0.76644835998955
  H   1.80524618882345      1.00147919070379      0.99447200775700
  H   2.73156595128580     -0.04619354201070     -0.09335585430403
  N   -1.74762420997769     -0.93826036463636      0.51837197416506
  H   -1.90614910220939     -1.40953021370763     -0.36517722665568
  H   -2.61954885235967     -0.50623546651998      0.80068200774743
  C   -1.03290373176674      1.10415783506115     -0.66577726532191
  N   -1.32450184666064      1.91616080191492     -1.46333603007671
