15
Coordinates from ORCA-job run
  C   -0.66043243957326      0.32317941143709     -0.06610118798076
  C   0.65894276169783      0.00305384258922      0.65894369247573
  Br  -1.48527251120106      1.92452619690864      0.65215290902634
  H   0.50310413824307      0.02374191511360      1.73627478173923
  N   -1.64311211889142     -0.83161023844282      0.36582656165508
  O   -1.56443110839936     -1.22737996866007      1.52115123572250
  O   -2.41422579434037     -1.21746395748024     -0.50005860978899
  N   -0.49451451112066      0.43946011188348     -1.44248767200334
  H   -1.37140860174946      0.58403098505471     -1.92520209350082
  H   0.01882364525670     -0.33522543314001     -1.84715212923429
  N   1.68845705436770      1.06474862598507      0.33293024024822
  O   2.32310742336419      0.92232883910594     -0.70419497508286
  O   1.77914834687183      1.97759549343969      1.14459054398388
  C   1.15297589817776     -1.29794787398117      0.22388491651989
  N   1.50783781729653     -2.35403794981314     -0.14955821377980
