15
Coordinates from ORCA-job run
  C   -0.66280653889915      0.03737268873936      0.04259294699980
  C   0.86417203266203      0.12433413632687     -0.04740424666739
  Br  -1.18014410067800     -0.53046042793289      1.85667624931326
  H   1.12647415991928      0.19880782005858     -1.10717181922841
  N   -1.18742761820725     -0.99029440653778     -0.98144502712036
  O   -0.47125156242613     -1.19851055630779     -1.94984072142356
  O   -2.31766861118630     -1.41051787725343     -0.79450359365869
  N   -1.23054931119795      1.25917793860171     -0.37936199999743
  H   -0.94719354134590      2.03370007209653      0.20988415447921
  H   -2.24319464902812      1.19889465982135     -0.38872182116767
  N   1.56932601793509     -1.12786584069138      0.44434751860252
  O   2.69252987890012     -0.96761302131796      0.90173077135789
  O   0.98216632524371     -2.18532316156832      0.27100039868793
  C   1.34575685429687      1.28674044320354      0.68214427501733
  N   1.66181066401169      2.27055753276162      1.24107291480557
