13

C	0.0	0.0	0.0
C	-0.233135	-0.476026	-1.458748
F	1.410453	0.0	0.0
H	0.419025	0.187122	-2.040208
H	-0.28521	-0.7737	0.725498
H	0.231786	-1.47217	-1.502993
N	-0.587715	1.270668	0.252114
H	-1.602888	1.035052	0.139011
H	-0.468515	1.48136	1.239405
N	-1.556141	-0.513088	-2.057777
H	-2.24871	-0.564571	-1.283629
H	-1.734991	0.406737	-2.443634
F	-3.000718	0.0	0.0
