13

C	0.0	0.0	0.0
C	-0.47286	-0.246646	-1.423041
F	1.38045	0.0	0.0
H	-1.544762	-0.431229	-1.309168
H	-0.291538	-0.868247	0.60904
H	0.050798	-1.134603	-1.797991
N	-0.562124	1.227351	0.478764
H	-0.366632	1.302256	1.472101
H	-1.588524	0.989774	0.376347
N	-0.163148	0.914247	-2.285597
H	-0.968241	1.059989	-2.885269
H	-0.152929	1.712438	-1.655136
F	-2.874941	0.0	0.0
