13

C	0.0	0.0	0.0
C	-0.324668	-0.228748	-1.498854
F	1.390278	0.0	0.0
H	-0.249819	0.764544	-1.962417
H	-0.285771	-0.892177	0.579509
H	0.517502	-0.823837	-1.875573
N	-0.58551	1.204645	0.491138
H	-1.600344	1.0114	0.329084
H	-0.47477	1.221247	1.501911
N	-1.566103	-0.86694	-1.905131
H	-2.318379	-0.462957	-1.305835
H	-1.519373	-1.834759	-1.600779
F	-3.050985	0.0	0.0
