13

C	0.0	0.0	0.0
C	-0.411995	-0.200019	-1.451265
F	1.41072	0.0	0.0
H	-1.504964	-0.19011	-1.421358
H	-0.314198	-0.870476	0.58311
H	-0.043546	0.664442	-2.021988
N	-0.550951	1.161126	0.615209
H	-1.573051	0.892959	0.569517
H	-0.441842	1.930393	-0.042952
N	0.095039	-1.426407	-2.082826
H	-0.399388	-2.208283	-1.665799
H	1.068475	-1.52454	-1.811723
F	-2.835652	0.0	0.0
