13

C	0.0	0.0	0.0
C	-0.429312	-0.335003	-1.455264
F	1.38729	0.0	0.0
H	0.486493	-0.392379	-2.056709
H	-0.312858	-0.804761	0.66784
H	-0.898566	-1.329718	-1.441643
N	-0.514678	1.220252	0.534752
H	-1.519232	0.982621	0.620115
H	-0.488831	1.893774	-0.225898
N	-1.31763	0.695908	-1.993914
H	-1.567538	0.421266	-2.938006
H	-2.15837	0.577877	-1.391184
F	-2.890546	0.0	0.0
