13

C	0.0	0.0	0.0
C	-0.369926	0.166844	-1.481029
F	1.411873	0.0	0.0
H	0.373476	-0.407977	-2.051795
H	-0.354683	-0.956986	0.387741
H	-0.185934	1.22772	-1.710333
N	-0.49613	1.059041	0.799
H	-0.709019	0.795401	1.745474
H	0.108502	1.865274	0.750653
N	-1.708516	-0.194414	-1.88859
H	-1.760841	-1.208713	-1.891744
H	-2.42757	0.064718	-1.13093
F	-3.411642	0.0	0.0
