13

C	0.0	0.0	0.0
C	-0.425061	0.018347	-1.458069
F	1.415118	0.0	0.0
H	-0.05971	-0.894672	-1.959445
H	-0.320544	-0.941115	0.450811
H	-1.518646	0.008095	-1.387111
N	-0.533159	1.069949	0.773924
H	-0.442606	1.900441	0.193516
H	-1.550688	0.813077	0.722826
N	0.055221	1.252892	-2.094128
H	-0.381763	1.354308	-3.000671
H	1.054836	1.179995	-2.235631
F	-2.848275	0.0	0.0
