10
Coordinates from ORCA-job run
  C   -0.51688936660492      0.39392142663745      0.21925175399621
  C   0.77107294261022     -0.01121161407782      0.26888535638865
  H   1.47471736704862      0.34782010855401      1.01004227373756
  C   -1.50604564784797     -0.06915420767488     -0.70681664276324
  N   -2.39690042796666     -0.38692557895577     -1.40764264417648
  C   -0.95093443699301      1.36756243039656      1.17939969316991
  N   -1.30249215757487      2.16810523989756      1.96712593473327
  N   1.32617651218395     -1.01530512824123     -0.62651588453987
  O   2.39166532059766     -1.50484263798042     -0.25026623097042
  O   0.71062989454698     -1.29097003855547     -1.65246360957559
