10
Coordinates from ORCA-job run
  C   -0.66543171352613      0.15762544227123      0.06091309215211
  C   0.34181926537163     -0.74124160268816      0.00507911402818
  H   0.19507429095411     -1.80341444263091      0.15858681939956
  C   -1.98979331380528     -0.33425878067525      0.31116601074455
  N   -3.07531856284435     -0.74006678052105      0.51573768788138
  C   -0.53267573039300      1.57495355448086     -0.09356748587909
  N   -0.53451661326941      2.74799376641380     -0.19221459181967
  N   1.73275099852134     -0.36891115569235     -0.20751296546286
  O   2.54803645352149     -1.24325854193346      0.08792903298272
  O   1.98005492546960      0.75057854097529     -0.64711671402688
