10
Coordinates from ORCA-job run
  C   -0.51333650823045      0.40910627580687      0.20110061891899
  C   0.75484231804970     -0.04459990246292      0.30752997705130
  H   1.43061289757976      0.27005850174393      1.09329373567732
  C   -1.46776456196595      0.00461252366061     -0.78663508949770
  N   -2.32947774026678     -0.26545130814718     -1.54182492044343
  C   -0.96420130385362      1.37115766690720      1.16530546594169
  N   -1.33137414195746      2.16055636120530      1.95703205217909
  N   1.32115807200098     -1.04628455878211     -0.58373896370114
  O   0.75206360103735     -1.27397548598201     -1.64766929199032
  O   2.34647736760646     -1.58418007394969     -0.16439358413580
