10
Coordinates from ORCA-job run
  C   -0.64568742892922      0.18992857945851      0.13153625734929
  C   0.28179697608785     -0.75376671324042     -0.14199962751135
  H   0.03333694952228     -1.79478809030458     -0.30880761719557
  C   -2.01527771225598     -0.22493952706919      0.23303115020383
  N   -3.13807023632429     -0.56726486535707      0.31703012665135
  C   -0.38988292786484      1.58549402039463      0.32377449693955
  N   -0.29514432313614      2.74771923341528      0.48506029116574
  N   1.69827580667325     -0.45734531501426     -0.29992603679206
  O   2.34889390585461     -1.34441256530725     -0.85353103264247
  O   2.12275899037247      0.61737524302435      0.11483199183170
