10
Coordinates from ORCA-job run
  C   -0.49106085679899      0.42233252301203      0.22574531338946
  C   0.71283083309431     -0.17687110369857      0.35736174460536
  H   1.33450639036569     -0.06535182395946      1.23743167517375
  C   -1.37724179952176      0.28675503648596     -0.89056813554875
  N   -2.18472214112530      0.23589133546809     -1.74567100435583
  C   -0.94066727018497      1.26641926174067      1.29505869710981
  N   -1.30799684897187      1.95926411082556      2.17250162313275
  N   1.26907420900165     -1.07781873054633     -0.64155459067640
  O   0.78164887937152     -1.07759647340666     -1.76839452262741
  O   2.20262860476972     -1.77402413592131     -0.24091080020273
