10
Coordinates from ORCA-job run
  C   -0.66014832478467      0.17987575012226      0.04568625616126
  C   0.31568666719455     -0.75398666866616      0.01186550673890
  H   0.12762979070375     -1.81045157732307      0.15997796017194
  C   -2.00783856330430     -0.26390713090991      0.25755460106255
  N   -3.11290629962970     -0.62998752187815      0.43007026961530
  C   -0.47390969655785      1.59182293884343     -0.10199722122615
  N   -0.43439645560096      2.76459920189108     -0.19555158912205
  N   1.72369551063541     -0.42895315171692     -0.16362636125462
  O   2.01996517579453      0.68110346355605     -0.59657617139876
  O   2.50122219554925     -1.33011530391860      0.15259674925165
