10
Coordinates from ORCA-job run
  C   -0.49552943761476      0.41632065870956      0.22707789833067
  C   0.66149371309095     -0.25874631887851      0.40323986617493
  H   1.18675771850820     -0.29314971309417      1.34987501146537
  C   -1.25772648378894      0.47191054898068     -0.98370408795901
  N   -1.96643261278345      0.57412230933598     -1.91808026029728
  C   -1.02648160031645      1.14107674278956      1.34554775197497
  N   -1.45992860282351      1.73612905161955      2.26370390467724
  N   1.28752990025352     -1.05508669820085     -0.64221419298933
  O   2.13993463007865     -1.84836111439664     -0.24119442418436
  O   0.93038277539580     -0.88321546686516     -1.80425146719319
