10
Coordinates from ORCA-job run
  C   -0.54439653467623      0.31431495225814      0.27554616398605
  C   0.75557941531893     -0.05300438494761      0.30437717304351
  H   1.44189446819461      0.26444819885239      1.07992319045034
  C   -1.03180647767726      1.14030709809938      1.34246447043945
  N   -1.42973505260175      1.81837520256702      2.21822601308371
  C   -1.49271669610586     -0.03834340954390     -0.73752823893210
  N   -2.34691538088715     -0.25632996312505     -1.51759297566141
  N   1.37914144127222     -0.86336619962479     -0.73190159573135
  O   2.61060619283949     -0.85160189296716     -0.71996754144557
  O   0.65634862432298     -1.47479960156843     -1.51354665923262
