10
Coordinates from ORCA-job run
  C   -0.47924759491714      0.42851688629456      0.23797398522830
  C   0.67223927576301     -0.26578724376584      0.36896015285654
  H   1.25907577759740     -0.26077692020283      1.27965575293989
  C   -0.90398275259295      1.22187629699481      1.35640158976766
  N   -1.24231464557669      1.86179907219820      2.28446139440584
  C   -1.31312419642125      0.46587739629795     -0.92527695662391
  N   -2.05549166936327      0.60080963714182     -1.82856027104199
  N   1.21110895627817     -1.12911841241222     -0.67091505973171
  O   2.09899038641997     -1.89584550547636     -0.29671927872876
  O   0.75374646281276     -1.02935120707009     -1.80598130907185
