10
Coordinates from ORCA-job run
  C   -0.51432484555588      0.40285482054025      0.20828581416874
  C   0.73098182288019     -0.10158015943973      0.35062436958668
  H   1.41486892174612      0.22403420076003      1.12501829449094
  C   -0.94862331016157      1.39428536490502      1.14983448001300
  N   -1.30379822670452      2.20632048342923      1.92404707376760
  C   -1.45208911821733      0.04430776285708     -0.81250882980969
  N   -2.29122242558465     -0.16486231384872     -1.61121986691308
  N   1.29928843136406     -1.08949958484247     -0.55491844804203
  O   0.54255789084431     -1.71062346482542     -1.29584036237312
  O   2.52336085938927     -1.20523710953526     -0.48432252488903
