10
Coordinates from ORCA-job run
  C   -0.51260218261938      0.41414203765095      0.19041734724845
  C   0.75926160075858     -0.02867592936871      0.30007474616134
  H   1.44531169524648      0.32826764087253      1.05849991069380
  C   -1.47961833137637     -0.04233991532438     -0.76158445217579
  N   -2.35290251653372     -0.35209453490374     -1.48764129223633
  C   -0.95278825730479      1.42555242861734      1.10769076788500
  N   -1.31148182628898      2.25712757881613      1.85923027854215
  N   1.31765326555071     -1.06998616646793     -0.55015067895179
  O   0.72706305259398     -1.36123739578459     -1.58636531300086
  O   2.36110349997349     -1.57075574410759     -0.12917131416597
