10
Coordinates from ORCA-job run
  C   -0.64613466680118      0.18897367420845      0.13377625237315
  C   0.28428007426196     -0.75111019487531     -0.14263398500797
  H   0.03962234137387     -1.79485297389345     -0.29787812220042
  C   -2.01148161197812     -0.23475271639031      0.25412443882508
  N   -3.12988044894135     -0.58658975846453      0.35670290160036
  C   -0.39723362417883      1.58724545184632      0.31516137279074
  N   -0.30558741525430      2.75031494556648      0.47155822476924
  N   1.69796843045946     -0.44974814173342     -0.31412938440508
  O   2.35175334373121     -1.34552730059925     -0.84993184903179
  O   2.11769357732727      0.63704701433501      0.07325015028668
