10
Coordinates from ORCA-job run
  C   -0.64239679080846      0.21458918685960      0.10884743374202
  C   0.24819953201984     -0.75299721922830     -0.20222675243884
  H   -0.04483633595395     -1.75158111502083     -0.50309214474331
  C   -2.03787265156835     -0.11827030523899      0.07776318918572
  N   -3.18155624834372     -0.39532643154876      0.05508092615929
  C   -0.31978815940479      1.56385872382378      0.46461018017983
  N   -0.16746548877823      2.69493879751455      0.75280496637545
  N   1.68506688919944     -0.52958083251587     -0.23476019363165
  O   2.31729282950753     -1.36893328104167     -0.87707469971546
  O   2.14335642413071      0.44330247639649      0.35704709488696
