10
Coordinates from ORCA-job run
  C   -0.54173078515535      0.34340421111952      0.24336380465819
  C   0.71978515516584     -0.12493286851657      0.36513900021013
  H   1.35550798838030      0.10449549354817      1.21159854186950
  C   -1.41908346772432      0.11052266861035     -0.86383142391329
  N   -2.21434890994532     -0.00572516986629     -1.72395656566954
  C   -1.06069456437948      1.15633866400552      1.30549866636705
  N   -1.48527217696829      1.82185235362276      2.17830289436294
  N   1.37181691796299     -0.93468585166162     -0.65375170827734
  O   0.67717587315964     -1.46068985393571     -1.51869442998075
  O   2.59584396950398     -1.01157964692613     -0.54166877962689
