10
Coordinates from ORCA-job run
  C   -0.52192000704514      0.38187698422782      0.22894488133414
  C   0.77316078173353      0.00058388774087      0.27285939096056
  H   1.46647440152284      0.34546998761428      1.03023381571859
  C   -0.98394757021434      1.31699198954396      1.21360353100418
  N   -1.36084904754172      2.08529532455458      2.02148904278259
  C   -1.49435722134898     -0.07947807549975     -0.71519040288860
  N   -2.37102747585239     -0.40837516363616     -1.42874362549002
  N   1.34423478045629     -0.96790789183440     -0.65148677942490
  O   2.36112558490744     -1.52843440761654     -0.24261785470933
  O   0.78710577338246     -1.14602263509465     -1.73109199928722
