10
Coordinates from ORCA-job run
  C   -0.52814358842974      0.37043440164031      0.23268066946425
  C   0.73380846985321     -0.09901789278272      0.34538033559400
  H   1.40552860551357      0.19853751154693      1.14141614481234
  C   -0.99743440418117      1.28183434028561      1.23631359166806
  N   -1.38137786647863      2.02843195932248      2.06104238472283
  C   -1.45234346374721      0.04751767289726     -0.81210817113204
  N   -2.28296434255824     -0.13817963839079     -1.62530955925727
  N   1.33670478830905     -1.00512433520713     -0.62138800459183
  O   0.60246563901898     -1.60020572369872     -1.40498124063532
  O   2.56375616270017     -1.08522829561322     -0.55304615064501
