10
Coordinates from ORCA-job run
  C   -0.53321436257797      0.36822717528578      0.22481477037453
  C   0.74576699779662     -0.05488070679970      0.32873295824695
  H   1.42969140902290      0.31293678042206      1.08390251134022
  C   -1.47527430567239     -0.04692135059777     -0.77028156788679
  N   -2.32216935397784     -0.30677295433113     -1.54560126650458
  C   -1.00337273536117      1.32617009422140      1.18381674587884
  N   -1.38748333853660      2.11107018842429      1.97210997860152
  N   1.35026871054939     -1.00161364602098     -0.59705636606601
  O   0.61416804936396     -1.66635129114307     -1.32066884849221
  O   2.58061892939311     -1.04086428946088     -0.55976891549245
