10
Coordinates from ORCA-job run
  C   -0.68471922437761      0.14595602940169      0.08489132305799
  C   0.27941478086330     -0.78868668208474     -0.02575280617904
  H   0.10330988674862     -1.85737209041765      0.00932027004724
  C   -2.05049996402806     -0.24765484802657      0.26231705233569
  N   -3.17135068355307     -0.57385715548726      0.40753047200517
  C   -0.38719208784065      1.54615552735953      0.03038791717166
  N   -0.14938767762184      2.69772925411668     -0.01283898391864
  N   1.67354150568871     -0.39364915986432     -0.20767735016306
  O   2.33347204648883     -0.26101420688289      0.81744989428740
  O   2.05141141763177     -0.26760666811446     -1.36762778864440
