10
Coordinates from ORCA-job run
  C   -0.66736952171900      0.14488251998000      0.06438210606446
  C   0.35259175200022     -0.73594252702021     -0.03336035045507
  H   0.21844648080771     -1.80700073065019      0.05791574021874
  C   -0.55345495573085      1.57033341650378     -0.00549997681448
  N   -0.57384132825937      2.74695215612274     -0.03466744712631
  C   -1.98785915318241     -0.37776334387328      0.26788232760234
  N   -3.07045774013046     -0.80861937963117      0.43337182354635
  N   1.74014988026398     -0.33293736000622     -0.20976803109183
  O   1.97564278935164      0.81416959214839     -0.57838775821445
  O   2.56515179659856     -1.21307434357384      0.03813156627023
