10
Coordinates from ORCA-job run
  C   -0.49564202740044      0.41800939682033      0.22513591057472
  C   0.64264012142367     -0.28493384984498      0.41438048267114
  H   1.13611836769641     -0.36049688232959      1.37567538074434
  C   -1.21614260854425      0.53087167737534     -1.00693572737455
  N   -1.88812309618035      0.68228453729274     -1.96147495569642
  C   -1.04965500607303      1.11255014436619      1.35164118551398
  N   -1.50409769194243      1.68028342685760      2.27699243620967
  N   1.28779939274729     -1.05801788211506     -0.63660630631063
  O   2.11682371606693     -1.87601072832775     -0.23611359127007
  O   0.96827883220623     -0.84453984009482     -1.80269481506219
