10
Coordinates from ORCA-job run
  C   -0.66261488549455      0.17322669395214      0.04505519617186
  C   0.33275340344601     -0.73907034978411      0.09524048988320
  H   0.17134579116851     -1.77307550114324      0.37475085798225
  C   -1.99267283045377     -0.26827099243459      0.35216091585371
  N   -3.08302580122545     -0.63127648082545      0.60602836103186
  C   -0.51377371100794      1.55917117999234     -0.28177942682886
  N   -0.50304334286965      2.71059425522167     -0.52622941460293
  N   1.72779834059739     -0.41383889532407     -0.16278591611096
  O   1.98923158122077      0.64584787171615     -0.72505798908926
  O   2.53200145461867     -1.26330778137083      0.22261692570913
