10
Coordinates from ORCA-job run
  C   -0.47389543396728      0.41927782511889      0.26188156071158
  C   0.66808900296210     -0.29515338984792      0.36919346988523
  H   1.22445870566574     -0.38438003786342      1.29431329773976
  C   -1.27519450429759      0.54692713795476     -0.91799604758761
  N   -2.01275579275475      0.71485790747407     -1.81999099445452
  C   -0.94916247002413      1.10641517071095      1.42805307013155
  N   -1.34392384801173      1.66762321854260      2.38424665855533
  N   1.23662487813278     -1.05981074886010     -0.73126138741886
  O   0.82953529890390     -0.84085219495457     -1.86902533208864
  O   2.09622416339096     -1.87690488827525     -0.39941429547382
