10
Coordinates from ORCA-job run
  C   -0.66555252150975      0.14714213882518      0.06492297998607
  C   0.34811955781466     -0.74434649347562      0.02292752077246
  H   0.22547943050247     -1.80449145440724      0.20360734316032
  C   -0.54701990383984      1.56330139517169     -0.11290325065277
  N   -0.55531120653856      2.73763852349099     -0.19614821567188
  C   -1.98651532968165     -0.34934191371699      0.31604643404616
  N   -3.06419194914168     -0.76840649958228      0.53050873829600
  N   1.72988137021194     -0.34539274425824     -0.21927428423914
  O   1.94641590125037      0.71412044083455     -0.79604457209414
  O   2.56769465093204     -1.14922339288204      0.18635730639691
