10
Coordinates from ORCA-job run
  C   -0.51970385137241      0.37264331121342      0.24806019182998
  C   0.74357120829075     -0.10095883438786      0.32151739738194
  H   1.44149085325122      0.19738019022276      1.09441181319229
  C   -0.95159721807671      1.28974910826466      1.26336619676626
  N   -1.30498600721250      2.03913895730187      2.09912158763227
  C   -1.47808280040516      0.05083288556068     -0.76570366820102
  N   -2.33517372675321     -0.13291046332324     -1.55147447791814
  N   1.31259813325503     -1.01222270159073     -0.66057188365856
  O   0.55182101948425     -1.60883213625503     -1.41748110515119
  O   2.54106238953875     -1.09482031700653     -0.63224605187384
