10
Coordinates from ORCA-job run
  C   -0.66388344905659      0.16491866914675      0.04796933436349
  C   0.34229315394958     -0.73571294329954      0.09462712158103
  H   0.19503489308659     -1.77157870946207      0.37499883000195
  C   -1.98808928283668     -0.29193954479030      0.35751395438951
  N   -3.07398745140904     -0.66948540978334      0.60909237108317
  C   -0.53172814884687      1.55343723378819     -0.27521820856169
  N   -0.53621359970781      2.70634862466726     -0.51302073619411
  N   1.73208786492767     -0.39340185355693     -0.17080148068965
  O   2.54901607594855     -1.23043382144969      0.21467354982831
  O   1.97646994394460      0.66684775473967     -0.73983473580200
