10
Coordinates from ORCA-job run
  C   -0.67480516835900      0.11302909360224      0.02749030810184
  C   0.38723555774107     -0.72199249248701      0.01019670846759
  H   0.29010084435466     -1.79517184679871      0.11880665570544
  C   -0.62311888394330      1.53998119254380     -0.07358982625549
  N   -0.67691696827840      2.71397625329707     -0.14087556904225
  C   -1.98012376217168     -0.46723277918782      0.16094643614002
  N   -3.05201107866185     -0.94457924583387      0.25153740426634
  N   1.76003982372055     -0.25434782820615     -0.09843504414244
  O   1.96171117378533      0.85761567272628     -0.57974818297619
  O   2.60688846181265     -1.04327801965581      0.32167110973515
