10
Coordinates from ORCA-job run
  C   -0.64211844450689      0.17920336586187      0.16125049346162
  C   0.29287500856503     -0.75044684758892     -0.13386912438517
  H   0.06332460334074     -1.80257333041323     -0.25036861206003
  C   -1.99230629275400     -0.26531699557015      0.35483190239742
  N   -3.09901368276843     -0.63181645712288      0.51565318521165
  C   -0.41329651726978      1.58647107129616      0.29177433220908
  N   -0.34175803668103      2.75556408096340      0.40943510419813
  N   1.69037170353899     -0.42627869303352     -0.38120236534520
  O   2.33478184588249     -1.32085054265112     -0.92985774664800
  O   2.10713981265288      0.67604434825841     -0.03664716903949
