13

C	-0.398404	-0.178053	-1.442602
C	0.0	0.0	0.0
F	-1.792127	-0.352389	-1.508362
H	1.093515	0.0	0.0
H	-0.167803	0.732093	-2.00097
H	-0.329762	-0.899064	0.548894
N	0.224448	-1.301533	-2.09411
H	1.206986	-1.068924	-2.212704
H	0.206304	-2.091486	-1.455585
N	-0.509609	1.253762	0.550183
H	-1.442612	1.117927	0.916211
H	0.09179	1.543129	1.309974
Cl	3.544481	0.0	0.0
