13

C	-0.462062	-0.041717	-1.444816
C	0.0	0.0	0.0
F	-0.303298	-1.339859	-1.9263
H	1.09238	0.0	0.0
H	-1.53059	0.199873	-1.513106
H	-0.369325	-0.875424	0.546044
N	0.263916	0.848217	-2.313997
H	1.256062	0.700082	-2.13644
H	0.055804	1.789695	-2.000881
N	-0.454155	1.27994	0.579339
H	-1.145965	1.117768	1.298081
H	0.338623	1.722724	1.023096
Cl	3.543363	0.0	0.0
