17

C	-0.648287	-0.020793	-1.530736
C	0.111993	0.00741	-0.208032
Cl	0.026952	1.081965	-2.705271
H	1.168979	-0.055305	-0.479823
N	-0.592238	-1.442611	-2.092621
O	-1.62627	-2.097221	-2.069332
O	0.502798	-1.810702	-2.481402
N	-2.14147	0.271907	-1.381832
O	-2.76289	0.605093	-2.381522
O	-2.618779	0.100613	-0.264841
N	-0.151019	-1.196633	0.554046
H	-1.007966	-1.066888	1.080137
H	0.631652	-1.178604	1.224926
N	-0.054158	1.296855	0.426557
H	-0.89116	1.254939	0.999384
H	0.750953	1.293202	1.077847
H	2.084037	0.109995	1.742329
