17

C	-0.614931	0.027153	-1.551472
C	0.120191	-0.005907	-0.214583
Cl	0.071456	-1.084215	-2.711263
H	1.18258	0.045539	-0.466816
N	-2.11337	-0.250901	-1.429998
O	-2.718983	-0.581436	-2.440205
O	-2.610031	-0.071553	-0.322747
N	-0.534701	1.447234	-2.114783
O	-1.562515	2.111984	-2.111475
O	0.570868	1.80393	-2.483885
N	-0.071097	-1.292244	0.419285
H	0.722863	-1.296255	1.084313
H	-0.917112	-1.239907	0.977807
N	-0.144697	1.202243	0.540269
H	-1.013769	1.082724	1.048672
H	0.623357	1.175992	1.227593
H	2.052707	-0.125689	1.775888
