17

C	-0.662617	-0.018328	-1.522496
C	0.107774	0.007812	-0.205446
Cl	0.011323	1.076865	-2.704756
H	1.162171	-0.061894	-0.485313
N	-0.620559	-1.4418	-2.081385
O	-1.658757	-2.08938	-2.048393
O	0.468981	-1.818291	-2.477495
N	-2.152558	0.28507	-1.363052
O	-2.779014	0.621462	-2.3585
O	-2.622802	0.118498	-0.242346
N	-0.156918	-1.192783	0.561287
H	-1.01022	-1.056985	1.091836
H	0.629352	-1.176412	1.228148
N	-0.045725	1.299708	0.427562
H	-0.877812	1.263679	1.007872
H	0.764957	1.293163	1.071884
H	2.092804	0.100797	1.734127
