17

C	-0.669428	-0.061604	-1.47034
C	0.181961	-0.031355	-0.198824
Cl	-2.370728	-0.264296	-1.161769
H	1.220921	0.012877	-0.544371
N	-0.401666	1.233297	-2.237919
O	-1.276538	2.07365	-2.330404
O	0.736315	1.295003	-2.689975
N	-0.251948	-1.140096	-2.468584
O	-0.786	-1.091312	-3.57085
O	0.583342	-1.960231	-2.106189
N	-0.091278	-1.16408	0.663979
H	0.348279	-1.98874	0.264949
H	0.46867	-0.915502	1.49836
N	-0.092257	1.225589	0.455355
H	-0.980279	1.109462	0.939126
H	0.624982	1.231971	1.210429
H	1.732444	0.294261	2.285358
