17

C	-0.658959	0.094448	-1.517998
C	0.107764	0.008736	-0.201495
Cl	-0.023833	-0.996009	-2.725512
H	1.169146	0.047414	-0.47967
N	-2.159203	-0.158104	-1.36591
O	-2.79593	-0.453178	-2.367923
O	-2.624396	0.001857	-0.24214
N	-0.564493	1.528232	-2.04309
O	0.538762	1.874545	-2.428599
O	-1.578654	2.212123	-1.995737
N	-0.092986	-1.290672	0.400505
H	0.720115	-1.329106	1.042296
H	-0.921843	-1.237688	0.984169
N	-0.113908	1.200025	0.59369
H	-0.972555	1.083061	1.120046
H	0.669322	1.14097	1.260502
H	2.09003	-0.232033	1.726743
