17

C	-0.679669	-0.014969	-1.439334
C	0.166041	-0.006214	-0.176474
Cl	-2.387279	-0.132287	-1.09813
H	1.208645	-0.034169	-0.502298
N	-0.387561	1.262966	-2.23876
O	0.748515	1.306041	-2.694956
O	-1.253908	2.112583	-2.347142
N	-0.281738	-1.138051	-2.4085
O	-1.104914	-1.442502	-3.266209
O	0.8476	-1.58866	-2.296633
N	-0.069095	-1.224467	0.571658
H	-0.931192	-1.101729	1.096868
H	0.689346	-1.172413	1.27371
N	-0.019009	1.269277	0.48638
H	-0.907135	1.245614	0.981557
H	0.719412	1.220756	1.213856
H	1.932199	0.075709	2.07726
