18

C	0.0	0.0	0.0
C	-0.372446	-0.065314	-1.495525
Br	2.031098	0.0	0.0
H	0.050037	-0.977568	-1.919567
N	-0.533307	1.134772	0.612522
H	-0.267495	2.003087	0.173107
H	-0.436516	1.147909	1.61631
C	-0.475226	-1.256465	0.700134
H	-0.146489	-1.249979	1.742342
H	-0.07421	-2.150299	0.219781
H	-1.568791	-1.257811	0.667682
N	0.363558	1.028101	-2.284659
O	0.276259	2.18816	-1.886875
O	0.92826	0.682113	-3.318369
N	-1.748458	0.072788	-1.767652
H	-2.179629	-0.775838	-2.095672
H	-2.326487	0.440389	-1.010933
Cl	-4.389207	0.0	0.0
