18

C	0.0	0.0	0.0
C	-0.49487	-0.12501	-1.470475
Br	1.950517	0.0	0.0
H	-1.577539	-0.265373	-1.384265
N	-0.484904	1.212234	0.602041
H	-1.495117	1.082302	0.718864
H	-0.351606	1.986234	-0.037528
C	-0.446908	-1.172207	0.858456
H	-0.00615	-2.110496	0.527164
H	-0.149068	-0.971488	1.889089
H	-1.536025	-1.237992	0.797594
N	0.027136	-1.388688	-2.117973
O	1.002601	-1.300016	-2.859795
O	-0.560622	-2.437212	-1.848811
N	-0.205641	0.967707	-2.340212
H	-0.923176	1.674628	-2.288755
H	0.719227	1.346692	-2.196799
Cl	-3.669247	0.0	0.0
