18

C	0.0	0.0	0.0
C	-0.263992	0.017965	-1.527261
Br	2.03449	0.0	0.0
H	0.237601	-0.845019	-1.97076
N	-0.580035	1.080552	0.632096
H	-0.367023	1.989542	0.256016
H	-0.687921	1.02491	1.630377
C	-0.481148	-1.305381	0.596335
H	-1.572838	-1.317129	0.52133
H	-0.0477	-2.159483	0.074709
H	-0.191783	-1.3624	1.648779
N	0.501434	1.186919	-2.192754
O	1.110722	0.925315	-3.226915
O	0.383086	2.314463	-1.717345
N	-1.61256	0.138924	-1.898041
H	-1.925063	-0.596896	-2.510235
H	-2.297032	0.296432	-1.151892
Cl	-4.159638	0.0	0.0
