18

C	0.0	0.0	0.0
C	-0.315791	0.225077	-1.49451
Br	2.034666	0.0	0.0
H	0.18184	-0.555611	-2.073214
N	-0.569405	0.967334	0.806319
H	-0.655374	0.748171	1.783464
H	-0.358722	1.924402	0.57989
C	-0.464366	-1.382824	0.408503
H	-1.556237	-1.40445	0.346403
H	-0.026781	-2.147275	-0.234859
H	-0.159836	-1.588158	1.437296
N	0.382159	1.49614	-2.010435
O	0.950984	1.414365	-3.095019
O	0.258043	2.533769	-1.362019
N	-1.683257	0.340888	-1.800325
H	-2.035909	-0.420488	-2.356067
H	-2.319928	0.493015	-1.014126
Cl	-4.283971	0.0	0.0
