18

C	0.0	0.0	0.0
C	-0.387898	-0.456455	-1.453324
Br	1.951047	0.0	0.0
H	0.511661	-0.88989	-1.939271
N	-0.534491	1.297772	0.321362
H	-0.517282	1.390705	1.333357
H	-1.528675	1.282736	0.071242
C	-0.420714	-1.0681	1.014066
H	-0.006406	-0.802765	1.991671
H	-0.0822	-2.064536	0.735398
H	-1.512834	-1.043538	1.063907
N	-0.646066	0.784217	-2.386642
O	0.153829	1.722998	-2.365971
O	-1.598924	0.678991	-3.164139
N	-1.444439	-1.400236	-1.472628
H	-1.638825	-1.670859	-2.419171
H	-2.310117	-1.001078	-1.07272
Cl	-3.842025	0.0	0.0
