18

C	0.0	0.0	0.0
C	-0.517627	-0.0488	-1.464324
Br	1.955148	0.0	0.0
H	-1.591861	-0.249087	-1.377832
N	-0.489151	1.251084	0.535355
H	-1.513665	1.169668	0.498899
H	-0.235916	1.293352	1.51766
C	-0.420124	-1.220009	0.814278
H	-0.088646	-1.084649	1.848028
H	0.003601	-2.146185	0.428819
H	-1.511293	-1.273126	0.788736
N	0.067414	-1.233694	-2.185181
O	-0.427136	-2.335828	-1.946483
O	1.007686	-1.036139	-2.950284
N	-0.301306	1.118219	-2.260098
H	-0.934331	1.830567	-1.919086
H	0.645821	1.453321	-2.121085
Cl	-3.643949	0.0	0.0
