18

C	0.0	0.0	0.0
C	-0.489593	0.114321	-1.449155
Br	2.057442	0.0	0.0
H	-1.578416	-0.028077	-1.372991
N	-0.496812	1.105025	0.652072
H	-0.447547	1.119696	1.654492
H	-0.417722	1.98388	0.169327
C	-0.404652	-1.274821	0.713204
H	-1.496504	-1.328393	0.671612
H	0.041561	-2.155591	0.260002
H	-0.077587	-1.2145	1.754183
N	0.029988	-1.038619	-2.305878
O	0.854164	-0.778982	-3.183442
O	-0.425105	-2.156644	-2.081206
N	-0.168965	1.384851	-2.004075
H	0.798696	1.391204	-2.303366
H	-0.763932	1.57614	-2.79875
Cl	-3.784858	0.0	0.0
