18

C	0.0	0.0	0.0
C	-0.477629	0.003935	-1.470821
Br	1.978986	0.0	0.0
H	-1.566387	-0.119547	-1.399369
N	-0.480182	1.16869	0.67097
H	-1.480062	1.008926	0.825977
H	-0.403193	1.952513	0.030405
C	-0.430418	-1.232327	0.775739
H	-1.518408	-1.311334	0.708078
H	-0.139003	-1.085475	1.817194
H	0.028927	-2.141347	0.395111
N	0.021465	-1.219624	-2.237023
O	-0.481628	-2.305147	-1.959081
O	0.890837	-1.048724	-3.093464
N	-0.14095	1.218083	-2.133438
H	-0.731534	1.346744	-2.943609
H	0.826626	1.192742	-2.429985
Cl	-3.664588	0.0	0.0
