18

C	0.0	0.0	0.0
C	-0.507477	0.084721	-1.465816
Br	1.965352	0.0	0.0
H	-1.588619	-0.086178	-1.396376
N	-0.490183	1.200185	0.637684
H	-1.514927	1.122491	0.59461
H	-0.235945	1.164094	1.6201
C	-0.419323	-1.286014	0.703194
H	-1.510179	-1.339615	0.666941
H	0.010034	-2.174572	0.24232
H	-0.093604	-1.238957	1.746485
N	0.041342	-1.054667	-2.277658
O	-0.493882	-2.154545	-2.137497
O	0.995027	-0.826346	-3.018234
N	-0.246562	1.304175	-2.16686
H	0.730301	1.554268	-2.051474
H	-0.802677	2.023163	-1.720042
Cl	-3.640091	0.0	0.0
