18

C	0.0	0.0	0.0
C	-0.458816	-0.138582	-1.497282
Br	1.973743	0.0	0.0
H	0.30916	-0.700386	-2.037027
N	-0.549372	1.175551	0.557777
H	-0.575278	1.16442	1.566746
H	-0.115663	2.021032	0.215077
C	-0.470339	-1.206918	0.790726
H	-0.136309	-2.136318	0.326032
H	-1.562053	-1.177073	0.836779
H	-0.056035	-1.16609	1.801304
N	-0.42599	1.260879	-2.127877
O	-1.435714	1.684577	-2.668826
O	0.637065	1.879209	-2.036492
N	-1.7321	-0.688179	-1.742281
H	-1.728209	-1.689811	-1.618898
H	-2.502153	-0.282074	-1.194247
Cl	-4.343309	0.0	0.0
