11
Coordinates from ORCA-job run
  C   -0.75917616130321      0.04513399006943      0.49960516653707
  C   0.56164035946073      0.22820057387852      0.25073470349809
  H   -1.19350480509161      0.44676488208802      1.40937325859494
  N   -1.58565265985129     -0.75084689264012     -0.28447179871657
  H   -2.56831310815566     -0.62285607803066     -0.10462163908331
  H   -1.38160289330369     -0.70727316356737     -1.27310855654124
  N   1.27713915294396     -0.42539743782643     -0.77881498961968
  H   1.57870595355516      0.17373305476313     -1.53417320155754
  H   0.80623989798413     -1.25101807838700     -1.11780721229102
  C   1.32126032001720      1.07061506677775      1.12173008465711
  N   1.94126394374427      1.79394408287473      1.81255418452216
