11
Coordinates from ORCA-job run
  C   -0.71858383527429      0.05190126994240      0.55657951447917
  C   0.55157032365751      0.31585158362192      0.16084187427921
  H   -1.12031652514692      0.54884015281556      1.43355658123572
  N   -1.51607882766710     -0.93051949239589     -0.01784043977375
  H   -1.38254477186550     -1.03656373055885     -1.01362930106781
  H   -2.49253294194538     -0.85289230182510      0.21595018542734
  N   1.25076550759461     -0.41879596635618     -0.82488715023792
  H   1.41570132650956      0.07936344186251     -1.68807868723833
  H   0.85187613070506     -1.33123862777551     -0.98851412250759
  C   1.28339953310099      1.34961368897933      0.82521224185926
  N   1.87574408033147      2.22543998168982      1.34180930354470
