11
Coordinates from ORCA-job run
  C   -0.73587737146198     -0.23659223329733     -0.36187299225207
  C   0.56939468656369     -0.01561084945994     -0.06202534949091
  H   -0.98168501716275     -0.80263908316344     -1.25749600999153
  N   -1.82832990420438      0.26225904727623      0.32963186831083
  H   -2.63181883455939     -0.34562459994360      0.33555747446799
  H   -1.61783885983359      0.62569614386649      1.24887569757850
  N   1.67975614257671     -0.55993764429601     -0.76235832297202
  H   2.24458403409851      0.16250607455768     -1.19189666307300
  H   1.37635253580667     -1.21147757579790     -1.47387383504282
  C   0.87298232338231      0.73839102096124      1.11406005844497
  N   1.05248026479421      1.38402969929656      2.08239807402006
