11
Coordinates from ORCA-job run
  C   -0.87475253552717      0.29812925140422      0.37698445217059
  C   0.44170193016392      0.31824385163341      0.04695738879356
  H   -1.32300543841756      1.14500964086310      0.88840252598366
  N   -1.67585697883108     -0.78997971023655      0.17164203206570
  H   -1.27694423924887     -1.46295597809411     -0.46818690857775
  H   -2.66034845818889     -0.61474517645473      0.06443851010922
  N   0.99667183675941     -0.82380800599514     -0.62179453279005
  H   1.62244963630434     -1.33323215729187     -0.00808593991340
  H   1.52947906744225     -0.53702824143606     -1.43399973275481
  C   1.25592575660245      1.44477116332388      0.37327660296175
  N   1.96467942294121      2.35559536228385      0.60936560195152
