11
Coordinates from ORCA-job run
  C   -0.79232192664831     -0.48748026996815     -0.12740929654757
  C   0.49229348500788     -0.05193754505341     -0.15538028168012
  H   -1.03283870612501     -1.35514394792688     -0.73465445027150
  N   -1.79995978661275      0.00313594024167      0.65983318494179
  H   -1.64618631329671      0.90608668258849      1.08364838739124
  H   -2.73825869249277     -0.14477637661191      0.33032531793724
  N   1.45685341623777     -0.74961119628133     -0.94948210469154
  H   2.18180476694823     -1.15069599964521     -0.36684685277066
  H   1.90248559970962     -0.12207614302290     -1.60749871574100
  C   0.85313847676235      1.09840153067918      0.61688187322407
  N   1.12398968050969      2.05409732500044      1.25158293820804
