11
Coordinates from ORCA-job run
  C   -0.72217778020202     -0.37284610654717     -0.28170099621300
  C   0.56600648684052     -0.00453832701471     -0.06629923786471
  H   -0.95660154324795     -0.98466760792544     -1.15036738909955
  N   -1.78219117820887     -0.16866326103084      0.59011731602029
  H   -2.66747302419242     -0.01384777660702      0.13355770489456
  H   -1.60340618636462      0.51478849795106      1.31359269896254
  N   1.68542495892413     -0.47606345293687     -0.80056444302100
  H   2.17436620259595      0.27316098922468     -1.27412015694493
  H   1.41502586183820     -1.18370021985765     -1.46984121724451
  C   0.85541262664063      0.84054649704290      1.05097340606237
  N   1.03661357537644      1.57483076770106      1.95365231444794
