11
Coordinates from ORCA-job run
  C   -0.73913661642442     -0.31436874911691     -0.30408320857248
  C   0.55408677121726      0.05619949619731     -0.12595812944102
  H   -0.98063759256709     -1.01486432494771     -1.10069672534131
  N   -1.83738898355319      0.23023067941827      0.34519218843603
  H   -2.58891485597537     -0.42264091436272      0.50321101683848
  H   -1.61338992741516      0.76124920157982      1.17615998013399
  N   1.62724565094468     -0.27654083230306     -0.99358375182162
  H   2.33980255652360     -0.82334111666969     -0.52673492685574
  H   1.29920210880540     -0.77164016466404     -1.81156620750854
  C   0.86642401284422      0.94075498738441      0.95405702298586
  N   1.07170687560006      1.63496173748433      1.88300274114635
