11
Coordinates from ORCA-job run
  C   -0.75501345399231     -0.17642855618673     -0.35267293704818
  C   0.56667554099239     -0.01869828903490     -0.08631265921239
  H   -1.05056645355338     -0.63399592579311     -1.29394616629192
  N   -1.80522860867394      0.26414086321495      0.43610521064111
  H   -2.62621000783210     -0.31906281048975      0.40413978676163
  H   -1.54906328370769      0.51245836793863      1.38181395095929
  N   1.63343821547335     -0.50508493529037     -0.89035058177107
  H   1.28757435111577     -1.09115186287622     -1.63821163878015
  H   2.18132842043626      0.24931063065821     -1.28514323810503
  C   0.93882961007168      0.59508926622387      1.15024455334969
  N   1.17723566966997      1.12342325163541      2.17533371949702
