11
Coordinates from ORCA-job run
  C   -0.91370087755114      0.36997342891512      0.15323414307078
  C   0.43673566965218      0.32796134164628      0.02359648066339
  H   -1.40971115698851      1.30179174997357      0.40888757354317
  N   -1.71918989857854     -0.70278937067488     -0.10713421676149
  H   -2.60676723511413     -0.72970506925995      0.36503764178895
  H   -1.21625493719099     -1.57831997411049     -0.15000761925269
  N   1.05211410039346     -0.92177388642274     -0.32209047206973
  H   1.41750091329503     -0.89520464533636     -1.26729623599653
  H   1.82567300348118     -1.12145103596911      0.30041856574667
  C   1.22188143848943      1.50466374566938      0.21640360247758
  N   1.91171898011203      2.44585371556918      0.37795053678991
