11
Coordinates from ORCA-job run
  C   -0.91548456278197      0.39557738270225      0.04516181978904
  C   0.43973741737908      0.32204477881147      0.03465769573125
  H   -1.40983297603014      1.35306767542076      0.18125970995281
  N   -1.72008122836799     -0.68300756227320     -0.19439442437494
  H   -1.23379900432328     -1.56598277141153     -0.12141018512445
  H   -2.64263968011307     -0.65786957581770      0.20530426350959
  N   1.05384518060531     -0.96109005519142     -0.15498760105812
  H   1.77068374801478     -1.11946467621782      0.54278678049941
  H   1.49404732651407     -1.01990209765856     -1.06635134950715
  C   1.23294594539815      1.49852539310190      0.19396163567828
  N   1.92957783370506      2.43810150853385      0.33401165490429
