11
Coordinates from ORCA-job run
  C   -0.82019128084277      0.39335659337524     -0.02332354871435
  C   0.53567401104155      0.37995106964476      0.01734133723723
  H   -1.34980378593977      1.33701860805990      0.05795742912212
  N   -1.59330156330744     -0.72722627856491     -0.29848172816848
  H   -2.56854747835983     -0.62002772169822     -0.07206633796416
  H   -1.21766191800958     -1.58871125499217      0.07174332569938
  N   1.33160342033438     -0.74848337596571     -0.29079921860872
  H   1.79726640684076     -1.16875137498357      0.50104983199369
  H   0.83870671446376     -1.43364723820919     -0.84410236123470
  C   1.23386883343565      1.59460630705068      0.30411313063488
  N   1.81338664034329      2.58191466628319      0.57656814000312
