11
Coordinates from ORCA-job run
  C   -0.71366545500249     -0.35056068688512     -0.30938294082698
  C   0.57209613256379     -0.01834298362254     -0.02813106963065
  H   -0.90655675770758     -1.15839511480706     -1.01157832884024
  N   -1.84548240190785      0.29912503689990      0.15653878051393
  H   -2.64296616876437     -0.30013008091164      0.29802622144621
  H   -1.68764021696670      0.91723519684230      0.94046093555426
  N   1.72274390166661     -0.71406366505256     -0.48837321310641
  H   2.29867659666942     -0.13456892307129     -1.08657467038179
  H   1.46382936956703     -1.55385565713201     -0.98867250812218
  C   0.80786808310115      1.05422787841241      0.88715925122574
  N   0.93209691678101      1.95832899932762      1.63152754216811
