11
Coordinates from ORCA-job run
  C   -0.66564640221705     -0.52185504375936     -0.08767114136508
  C   0.55147598810772      0.07698140506643     -0.14449237212670
  H   -0.82163392567876     -1.44916041103523     -0.63439743612258
  N   -1.74485329480744     -0.10781667172732      0.67505809009615
  H   -1.67502515288153      0.83346102891200      1.03614445950109
  H   -2.64587846965511     -0.29496775714761      0.26502172963268
  N   1.64060380451794     -0.34484404161688     -0.95514532724866
  H   2.42333550568723     -0.66388129429931     -0.39697499888490
  H   1.35880630655300     -1.08486004297360     -1.58414507269174
  C   0.74274392717236      1.28808377343590      0.59083709145182
  N   0.83807171320163      2.26885905514499      1.23576497775792
