11
Coordinates from ORCA-job run
  C   -0.77688454126490     -0.52049084018024     -0.08109586677276
  C   0.49092468397405     -0.04424135851490     -0.16329243930794
  H   -1.00116930080411     -1.42568564280226     -0.63731811842264
  N   -1.78364804840028     -0.02184163473914      0.70173915354183
  H   -2.72316105953838     -0.22309198781695      0.40630155800983
  H   -1.65439921786822      0.90687214428876      1.07497980085298
  N   1.46011855090298     -0.74832289021050     -0.94629669610901
  H   1.85425460910343     -0.14500971770479     -1.65745257542154
  H   2.22167633951436     -1.07826947682998     -0.36628379274119
  C   0.83022191151534      1.15379556740785      0.54350868332356
  N   1.08306607286573      2.14728583710214      1.12521029304689
