11
Coordinates from ORCA-job run
  C   -0.82251867921046     -0.40957407264427     -0.19371091603656
  C   0.48261162260578     -0.03913414863032     -0.18676596290481
  H   -1.13430866040866     -1.10874826686013     -0.96379427916439
  N   -1.77184221646484     -0.05784196221786      0.72883281867083
  H   -2.72819369212670     -0.08609345577299      0.42014453739268
  H   -1.55281887098492      0.72131129087190      1.33191391354725
  N   1.37743684110182     -0.58757379709994     -1.15929635648669
  H   1.83041413639586      0.14837281752677     -1.68696369541097
  H   2.10144356078647     -1.13836068677859     -0.71408829363092
  C   0.93506749186156      0.89165261272076      0.80265510559096
  N   1.28170846644410      1.66698966888467      1.62007312843261
