11
Coordinates from ORCA-job run
  C   -0.70970776015008     -0.43796884100871     -0.17688158942936
  C   0.54737200640779      0.07359394774601     -0.15329576184748
  H   -0.95940259594170     -1.18357062736194     -0.92829350841444
  N   -1.72123434668871     -0.16214386007726      0.72860784334084
  H   -2.64966871108422     -0.18135609292656      0.33792612106222
  H   -1.56498159485782      0.65301037641298      1.30528934172864
  N   1.56466141180453     -0.19593351396861     -1.10886805864123
  H   1.20695640998663     -0.75385984975548     -1.87268578207266
  H   2.35558014109759     -0.67154991381463     -0.69205885410385
  C   0.86473873915925      1.04247929922794      0.84876473178221
  N   1.06668630026672      1.81929907552626      1.71049551659511
