11
Coordinates from ORCA-job run
  C   -0.76154132290889     -0.28901708462620     -0.25194539885677
  C   0.55858678432442      0.00155069923004     -0.12805052387273
  H   -1.08454409757465     -0.92556834022142     -1.07252406497181
  N   -1.78619935236045      0.21455171108098      0.53269937458904
  H   -2.55836985831571     -0.41791462359856      0.66952523313950
  H   -1.48744513774514      0.64691515630030      1.39598244661766
  N   1.60137277413468     -0.54851515521577     -0.92218931590311
  H   1.24659292558908     -1.26368245790751     -1.54291632777234
  H   2.07246894140267      0.16195548299178     -1.46881192227547
  C   0.96633243879655      0.85071617403974      0.94723326851331
  N   1.23274590465744      1.57100843792663      1.83999723079273
