11
Coordinates from ORCA-job run
  C   -0.86241406236026     -0.29525708971860     -0.22578987605038
  C   0.47340425605566     -0.05953900729555     -0.20388313344511
  H   -1.25544351799721     -0.83604041666743     -1.08169894637408
  N   -1.75702676929397      0.00447277835179      0.76761687212818
  H   -2.71502097495095      0.12037178819838      0.48516242830510
  H   -1.45022100543284      0.66090628843899      1.47029173821431
  N   1.29277926442098     -0.53821581407477     -1.27474185506844
  H   1.96683001345574     -1.21526989719226     -0.93909393101852
  H   1.80622343410849      0.22238966190163     -1.70275178230695
  C   1.03268284920524      0.66461679524805      0.89734976252493
  N   1.46820651278910      1.27256491280976      1.80853872309096
