11
Coordinates from ORCA-job run
  C   -0.82456669724722     -0.37896465678429     -0.24188213484454
  C   0.48889098617355     -0.04680298758621     -0.16880837843894
  H   -1.12390314744794     -1.03783830471682     -1.05155787632930
  N   -1.80051913790361     -0.03700203225524      0.65648591145461
  H   -2.74359233282321     -0.02412741932990      0.30820737880123
  H   -1.58498662001921      0.71291366043952      1.29663550174885
  N   1.40715981868654     -0.58023157020325     -1.12771481748785
  H   1.89605404324681      0.16399506532755     -1.60962805441028
  H   2.10167012928273     -1.16353506436070     -0.67704869944906
  C   0.92514093810998      0.83036098952889      0.87558374001504
  N   1.25765201994156      1.56223231994046      1.73772742894026
