11
Coordinates from ORCA-job run
  C   -0.91546155686156      0.38260179525629      0.11045231773894
  C   0.43924608057811      0.32018475556241      0.05465036338532
  H   -1.41159493621055      1.32940562030827      0.30281941459785
  N   -1.71419818196766     -0.72265048350545      0.01875087481364
  H   -2.64972218436242     -0.57942880950091     -0.32141614908431
  H   -1.23317941972363     -1.53237285170512     -0.34777381931591
  N   1.05561465766987     -0.95217709774374     -0.19218475837766
  H   1.51962502503286     -1.29557664924891      0.64123727388615
  H   1.75374404828857     -0.87446200361255     -0.92185276398184
  C   1.23039980413732      1.49174350678746      0.25410251547826
  N   1.92552666341909      2.43173221740225      0.39921473085956
