11
Coordinates from ORCA-job run
  C   -0.76153800298020     -0.20913614448035     -0.31813967106659
  C   0.56400769268346     -0.00365125013055     -0.10849677513819
  H   -1.08391705834735     -0.63752277895243     -1.26445168723324
  N   -1.77628781700798      0.00505406288468      0.59977400851634
  H   -1.51672856742120      0.56800482476572      1.39786975832987
  H   -2.65346488241468      0.29322575383305      0.19674577166344
  N   1.59030410882952     -0.19802170834626     -1.07270184669050
  H   1.19951663509403     -0.41174355851259     -1.98070232452114
  H   2.22684750784835     -0.93792672468157     -0.80171626306947
  C   0.97154652830819      0.54823462189788      1.14565102037600
  N   1.23971385540785      0.98448290172241      2.20616800883348
