11
Coordinates from ORCA-job run
  C   -0.84551974537551      0.31748487883234      0.42549635499290
  C   0.45282859951700      0.30382296407540      0.02996882462862
  H   -1.24192967571919      1.17012434294450      0.96910533301666
  N   -1.68764312675458     -0.74411598847279      0.24746316556058
  H   -2.67063964353426     -0.53908855212687      0.19154471546276
  H   -1.34104258291322     -1.41987194522297     -0.41933594846741
  N   0.93977477712996     -0.84434657898705     -0.67997215312414
  H   1.58239410771489     -1.37835538435553     -0.10581962052761
  H   1.43772828471174     -0.56112409709286     -1.51525557299294
  C   1.31421986840445      1.40367307702364      0.32525232768359
  N   2.05982913681869      2.29179728338217      0.53255257376700
