11
Coordinates from ORCA-job run
  C   -0.91466559424965      0.30816927287624      0.25628228880295
  C   0.42686453125968      0.33720837757963      0.05158796064265
  H   -1.43057946200150      1.18955531484088      0.62578115530286
  N   -1.66572104472514     -0.82222905207559      0.09741533532282
  H   -1.19028184864735     -1.54783312626623     -0.42083815956656
  H   -2.63974526875182     -0.69593151537147     -0.11792569433291
  N   1.07095628337219     -0.85180970258373     -0.42950730688601
  H   1.67431124289911     -0.63742664292692     -1.21426162465170
  H   1.64522013316929     -1.26908165805826      0.29424799039695
  C   1.17984761341997      1.51832388055391      0.32755084628850
  N   1.84279341425521      2.47105485143153      0.52866720868043
