11
Coordinates from ORCA-job run
  C   -0.80544730666241      0.20737106066566      0.37145120304113
  C   0.51979389293994      0.37582400018775      0.13685244846862
  H   -1.30721242080972      0.84306434270471      1.09368268414976
  N   -1.61375775381201     -0.65217860466029     -0.36216041132811
  H   -2.50757773557641     -0.83836140453897      0.06260783320830
  H   -1.15430550190001     -1.50429742218357     -0.65102551020392
  N   1.22561170484283     -0.23594321794839     -0.92519120376819
  H   0.61872721239948     -0.55546955505254     -1.66548909670429
  H   1.88390946529017     -0.94858893780615     -0.64345246669208
  C   1.25878150565052      1.29271752289066      0.94799682325832
  N   1.88247693763763      2.01686221574113      1.63472769657046
