14

C	0.0	0.0	0.0
C	-0.391976	0.10755	-1.468783
Cl	1.796452	0.0	0.0
H	0.097833	-0.709426	-2.002802
H	0.028643	1.036349	-1.870661
C	-0.560566	1.086915	0.794753
N	-0.588298	1.914646	1.644273
C	-0.333126	-1.354778	0.652458
H	0.074853	-2.153951	0.030097
H	-1.405418	-1.45001	0.729703
H	0.14422	-1.406809	1.629664
C	-1.871752	0.09223	-1.695932
N	-2.663257	0.224057	-2.587925
H	-2.336084	0.0	0.0
