14

C	0.0	0.0	0.0
C	-0.452377	-0.003649	-1.470983
Cl	1.796409	0.0	0.0
H	0.059083	-0.843621	-1.963345
H	-0.087726	0.916327	-1.952838
C	-0.482517	1.151243	0.781981
N	-0.615412	2.094014	1.4765
C	-0.318227	-1.324588	0.727981
H	0.118918	-1.311139	1.724092
H	0.14559	-2.113537	0.146196
H	-1.404797	-1.445782	0.762949
C	-1.933906	-0.124602	-1.668546
N	-2.704167	-0.238757	-2.581939
H	-2.389976	0.0	0.0
