14

C	0.0	0.0	0.0
C	-0.65168	-0.054156	-1.372902
Cl	1.793787	0.0	0.0
H	-1.773202	-0.031577	-1.069133
H	-0.414532	0.832253	-1.96749
C	-0.373308	1.277598	0.63119
N	-0.556965	2.310645	1.160081
C	-0.480282	-1.165489	0.852578
H	-1.578753	-1.095791	0.858124
H	-0.077464	-1.092139	1.864596
H	-0.153405	-2.103313	0.397811
C	-0.320977	-1.257427	-2.108397
N	-0.081218	-2.233128	-2.720159
H	-3.044541	0.0	0.0
