13

C	0.0	0.0	0.0
C	-0.550646	0.119031	-1.415717
F	1.341574	0.0	0.0
H	-1.647528	0.289766	-1.27134
H	-0.404069	-0.871833	0.510219
N	-0.382795	1.195402	0.841681
O	-0.632053	2.24985	0.270814
O	-0.298658	1.017247	2.05229
C	-0.36388	-1.163715	-2.095148
N	-0.223521	-2.193988	-2.640708
C	0.092988	1.177937	-2.192122
N	0.62982	1.984382	-2.855736
Cl	-3.296992	0.0	0.0
