13

C	0.0	0.0	0.0
C	-0.557003	0.148089	-1.409487
F	1.341641	0.0	0.0
H	-1.658764	0.288737	-1.254
H	-0.402931	-0.885494	0.487239
N	-0.384897	1.171795	0.87422
O	-0.622602	2.244849	0.333379
O	-0.315337	0.956606	2.079287
C	-0.342026	-1.11134	-2.124331
N	-0.187493	-2.118843	-2.707499
C	0.054141	1.241534	-2.16303
N	0.560241	2.081867	-2.808416
Cl	-3.306987	0.0	0.0
