13

C	0.0	0.0	0.0
C	-0.550039	-0.186396	-1.408754
F	1.341692	0.0	0.0
H	-1.64953	0.000372	-1.302415
H	-0.404612	-0.743582	0.68323
N	-0.384699	1.345997	0.568941
O	-0.318486	1.423922	1.791254
O	-0.620045	2.259309	-0.213504
C	-0.345983	-1.582246	-1.800871
N	-0.18736	-2.704596	-2.108802
C	0.081379	0.689809	-2.394267
N	0.570548	1.34966	-3.233285
Cl	-3.29755	0.0	0.0
