13

C	0.0	0.0	0.0
C	-0.368251	-0.269958	-1.480862
F	1.351187	0.0	0.0
H	0.541096	0.025728	-2.02094
H	-0.411032	-0.697549	0.71901
N	-0.343339	1.391776	0.445692
O	-0.380095	1.565027	1.657651
O	-0.377859	2.261685	-0.418439
C	-1.448033	0.44439	-2.177832
N	-2.002291	0.993137	-3.060829
C	-0.500156	-1.71733	-1.667884
N	-0.505446	-2.876565	-1.853419
Cl	-2.968312	0.0	0.0
