13

C	0.0	0.0	0.0
C	-0.50353	0.17303	-1.430703
F	1.351096	0.0	0.0
H	-1.58449	0.418214	-1.332637
H	-0.410099	-0.884521	0.479614
N	-0.381326	1.177257	0.860423
O	-0.562748	2.255612	0.305889
O	-0.358629	0.967282	2.067924
C	-0.379427	-1.107679	-2.129538
N	-0.285423	-2.130784	-2.697875
C	0.258499	1.190183	-2.15798
N	0.857741	1.973565	-2.795252
Cl	-3.221861	0.0	0.0
