13

C	0.0	0.0	0.0
C	-0.28836	-0.070776	-1.513731
F	1.349663	0.0	0.0
H	0.446311	0.643591	-1.912169
H	-0.431163	-0.782723	0.612949
N	-0.358275	1.326241	0.602729
O	-0.544864	1.335127	1.811986
O	-0.274349	2.301868	-0.141033
C	-1.537998	0.256268	-2.232647
N	-2.218919	0.270707	-3.195948
C	0.137647	-1.398938	-1.970387
N	0.49755	-2.44162	-2.372475
Cl	-3.008889	0.0	0.0
