13

C	0.0	0.0	0.0
C	-0.421369	0.127716	-1.486902
F	1.34658	0.0	0.0
H	0.530844	0.307448	-2.00662
H	-0.406686	-0.871018	0.500952
N	-0.333718	1.202431	0.842203
O	-0.223295	2.296969	0.296882
O	-0.501796	0.999103	2.037724
C	-1.292314	1.224032	-1.924802
N	-1.773591	2.10618	-2.53463
C	-0.9087	-1.161667	-1.989147
N	-1.141647	-2.194351	-2.496387
Cl	-2.950164	0.0	0.0
