13

C	0.0	0.0	0.0
C	-0.571541	0.495435	-1.316034
F	1.35329	0.0	0.0
H	-1.676737	0.551426	-1.120433
H	-0.390841	-0.984228	0.24325
N	-0.384831	0.898974	1.151259
O	-0.608401	2.079398	0.914307
O	-0.342724	0.363858	2.254893
C	-0.297826	-0.510089	-2.342496
N	0.024872	-1.295901	-3.154222
C	-0.05806	1.790959	-1.765606
N	0.283339	2.846384	-2.155759
Cl	-3.35583	0.0	0.0
