16

C	0.0	0.0	0.0
C	-0.522646	0.217751	-1.417279
F	1.396453	0.0	0.0
H	-1.574416	-0.091251	-1.397714
H	-0.302416	-1.00864	0.305499
C	-0.484382	1.018028	1.001235
H	-1.577341	1.030236	0.996966
H	-0.131574	0.761383	2.003391
H	-0.089479	1.999843	0.732367
N	0.18124	-0.589245	-2.409634
H	1.171125	-0.54706	-2.192526
H	-0.113252	-1.55371	-2.311809
N	-0.364409	1.620108	-1.812581
H	-1.116627	2.146488	-1.37796
H	-0.540443	1.638113	-2.81126
Br	-4.007123	0.0	0.0
