16

C	0.0	0.0	0.0
C	-0.373809	0.332076	-1.452539
F	1.406691	0.0	0.0
H	0.062379	-0.484126	-2.055991
H	-0.311955	-1.025532	0.225755
C	-0.52616	0.960912	1.032291
H	-1.61608	0.882449	1.072781
H	-0.243123	1.980612	0.772853
H	-0.123548	0.707925	2.016336
N	0.2094	1.632489	-1.778765
H	1.219106	1.56409	-1.753832
H	-0.085007	1.853746	-2.722793
N	-1.771813	0.406841	-1.786134
H	-2.253559	1.083597	-1.204382
H	-2.261471	-0.461011	-1.603016
Br	-4.620412	0.0	0.0
