16

C	0.0	0.0	0.0
C	-0.413568	-0.366976	-1.444591
F	1.391447	0.0	0.0
H	0.438799	-0.036845	-2.051843
H	-0.321597	-0.780254	0.697673
C	-0.491031	1.350425	0.457894
H	-1.58227	1.346624	0.514173
H	-0.163118	2.130358	-0.236129
H	-0.083107	1.582383	1.444674
N	-1.599773	0.249424	-2.010414
H	-1.506898	1.25902	-2.009578
H	-2.431022	0.039505	-1.453653
N	-0.480828	-1.822846	-1.539942
H	-0.755484	-2.025455	-2.497625
H	-1.269803	-2.123662	-0.968758
Br	-4.350266	0.0	0.0
