16

C	0.0	0.0	0.0
C	-0.370959	-0.4695	-1.414468
F	1.406301	0.0	0.0
H	0.091596	-1.467831	-1.514086
H	-0.310612	-0.762367	0.722936
C	-0.530321	1.354232	0.387293
H	-1.619674	1.303246	0.466855
H	-0.255741	2.093027	-0.365072
H	-0.125008	1.648573	1.359285
N	0.18307	0.492248	-2.365584
H	1.193935	0.468504	-2.319661
H	-0.113929	0.193936	-3.28666
N	-1.767099	-0.615337	-1.729842
H	-2.221137	-1.308863	-1.147861
H	-2.284535	0.236656	-1.54083
Br	-4.615553	0.0	0.0
