13

C	-0.549381	0.00874	-1.410353
C	0.0	0.0	0.0
Cl	-0.168227	-1.538071	-2.233888
H	1.098697	0.0	0.0
H	-1.636502	0.107776	-1.415165
H	-0.080636	0.796574	-1.990429
N	-0.549793	-1.108576	0.783667
H	-0.286126	-0.912792	1.744716
H	0.011668	-1.911008	0.511361
N	-0.407995	1.263474	0.645513
O	-0.512096	1.283368	1.875044
O	-0.555498	2.263701	-0.066277
F	2.561439	0.0	0.0
