13

C	-0.553565	0.030617	-1.41532
C	0.0	0.0	0.0
Cl	-0.106702	-1.445749	-2.310711
H	1.090458	0.0	0.0
H	-1.64685	0.085208	-1.422411
H	-0.128493	0.872571	-1.952606
N	-0.478861	-1.094886	0.779089
H	-1.308272	-0.83914	1.300777
H	0.249281	-1.342097	1.435496
N	-0.401477	1.331796	0.591495
O	-0.983598	1.35485	1.682282
O	-0.124831	2.347517	-0.049878
F	2.557345	0.0	0.0
