13

C	-0.581298	-0.037556	-1.401084
C	0.0	0.0	0.0
Cl	-0.120625	-1.541058	-2.246007
H	1.090495	0.0	0.0
H	-1.67552	-0.008937	-1.386254
H	-0.191925	0.789362	-1.986181
N	-0.441426	-1.07474	0.833422
H	-1.242858	-0.806626	1.389624
H	0.318118	-1.294963	1.465025
N	-0.379812	1.342637	0.569576
O	-0.288087	2.330304	-0.163716
O	-0.732035	1.407177	1.75158
F	2.551704	0.0	0.0
