13

C	-0.57393	-0.022023	-1.396849
C	0.0	0.0	0.0
Cl	-0.036158	1.374856	-2.378974
H	1.089677	0.0	0.0
H	-1.66631	-0.000215	-1.385963
H	-0.208562	-0.926109	-1.880282
N	-0.524718	-1.133454	0.708909
H	0.045955	-1.298131	1.529398
H	-1.487457	-0.968297	0.983631
N	-0.489867	1.287456	0.657718
O	-1.718516	1.415755	0.78154
O	0.326101	2.114002	1.051748
F	2.600632	0.0	0.0
