13

C	-0.572518	-0.01577	-1.397523
C	0.0	0.0	0.0
Cl	-0.00638	1.368022	-2.380859
H	1.089665	0.0	0.0
H	-1.663982	0.03006	-1.387602
H	-0.226939	-0.928179	-1.878969
N	-0.536441	-1.128245	0.707666
H	-1.506155	-0.965437	0.960397
H	0.016842	-1.285254	1.54163
N	-0.479291	1.29413	0.654983
O	-1.706896	1.442988	0.765908
O	0.345042	2.104443	1.064997
F	2.592174	0.0	0.0
