13

C	-0.63511	-0.021904	-1.371955
C	0.0	0.0	0.0
Cl	0.202642	0.966948	-2.607493
H	1.095751	0.0	0.0
H	-0.586296	-1.050939	-1.718544
H	-1.672869	0.307726	-1.348137
N	-0.370657	-1.232925	0.708316
H	-0.735301	-0.965254	1.618628
H	0.519381	-1.687322	0.888409
N	-0.454959	1.191081	0.75722
O	-0.730287	2.213456	0.123238
O	-0.499432	1.126521	1.990983
F	2.529615	0.0	0.0
