13

C	-0.634964	-0.013732	-1.367833
C	0.0	0.0	0.0
Cl	0.156851	1.057115	-2.562205
H	1.095626	0.0	0.0
H	-0.534411	-1.027009	-1.754199
H	-1.690402	0.259196	-1.330015
N	-0.425961	-1.230923	0.700568
H	-0.293473	-1.023684	1.685189
H	0.318997	-1.889022	0.488413
N	-0.467798	1.152784	0.795974
O	-0.347406	1.093531	2.025072
O	-0.904958	2.144423	0.204896
F	2.540429	0.0	0.0
