13

C	-0.629194	-0.063595	-1.379857
C	0.0	0.0	0.0
Cl	-0.480403	1.423568	-2.363694
H	1.089682	0.0	0.0
H	-1.696046	-0.288862	-1.304278
H	-0.11401	-0.859429	-1.912768
N	-0.406838	-1.202903	0.680523
H	-1.28488	-1.061992	1.164864
H	0.323188	-1.433683	1.342767
N	-0.531402	1.227769	0.704689
O	-1.616078	1.126258	1.29814
O	0.11145	2.269464	0.629911
F	2.59069	0.0	0.0
