13

C	-0.408225	-0.048017	-1.436319
C	0.0	0.0	0.0
Cl	-2.208306	-0.124285	-1.662989
H	1.093855	0.0	0.0
H	-0.002315	-0.959777	-1.865323
H	-0.060047	0.828618	-1.972097
N	-0.449947	-1.120531	0.758377
H	0.17221	-1.233677	1.547684
H	-1.390021	-0.980675	1.10592
N	-0.416987	1.320753	0.589683
O	-0.251742	2.333303	-0.091169
O	-0.856299	1.335729	1.74413
F	2.546645	0.0	0.0
