14

C	0.0	0.0	0.0
C	-0.171733	-0.12437	-1.56243
F	1.383246	0.0	0.0
H	0.370182	-1.048385	-1.797633
H	0.45054	0.694919	-1.939734
C	-0.56548	1.256503	0.508132
N	-0.566977	2.369179	0.922037
C	-0.609198	-1.132966	0.706339
N	-0.619507	-2.161786	1.303286
C	-1.499654	-0.11594	-2.295501
H	-1.288299	-0.194466	-3.373935
H	-2.134776	-0.945721	-1.994631
H	-2.055059	0.800963	-2.105792
H	-2.087442	0.0	0.0
