14

C	0.0	0.0	0.0
C	-0.294852	-0.090377	-1.516709
F	1.384676	0.0	0.0
H	0.325226	-0.919042	-1.875368
H	-1.344384	-0.325208	-1.653629
C	-0.440798	1.238917	0.64228
N	-0.724656	2.184426	1.283777
C	-0.456449	-1.193256	0.756785
N	-0.717231	-2.075977	1.496621
C	0.080649	1.199764	-2.22708
H	1.141547	1.44255	-2.095
H	-0.52111	2.026491	-1.839103
H	-0.124333	1.111658	-3.301299
H	-2.402682	0.0	0.0
