14

C	0.0	0.0	0.0
C	-0.305642	-0.031378	-1.525649
F	1.384599	0.0	0.0
H	-1.357045	0.181451	-1.670708
H	0.28536	0.802559	-1.954239
C	-0.519162	1.187805	0.663479
N	-0.66255	2.159822	1.302278
C	-0.465212	-1.20608	0.745099
N	-0.708681	-2.07166	1.517416
C	0.064738	-1.360741	-2.170751
H	-0.555211	-2.176136	-1.739898
H	1.115181	-1.613976	-2.011654
H	-0.127614	-1.316522	-3.252239
H	-2.340883	0.0	0.0
