16

C	-0.380416	0.037023	-1.47178
C	0.0	0.0	0.0
Cl	0.13224	-1.440714	-2.365913
H	1.096395	0.0	0.0
H	0.169543	0.856026	-1.941602
C	-1.816334	0.221819	-1.704467
N	-2.971183	0.397287	-1.837143
C	-0.577269	-1.189713	0.742307
H	-0.227545	-1.161985	1.778253
H	-1.676669	-1.193573	0.75224
H	-0.228397	-2.129439	0.309662
C	-0.418725	1.321119	0.63792
H	-1.507103	1.458642	0.696653
H	-0.008265	1.359672	1.650695
H	0.014413	2.16574	0.092017
F	2.647408	0.0	0.0
