16

C	-0.396002	0.027286	-1.467597
C	0.0	0.0	0.0
Cl	0.147331	-1.437953	-2.365392
H	1.096393	0.0	0.0
H	0.123116	0.861797	-1.945826
C	-1.83908	0.172026	-1.687795
N	-2.993212	0.318093	-1.854844
C	-0.562786	-1.192263	0.750967
H	-0.194967	-1.164348	1.780551
H	-0.218405	-2.129959	0.31108
H	-1.661768	-1.199061	0.779055
C	-0.425686	1.319092	0.638621
H	-0.010629	1.361605	1.649017
H	-0.001998	2.166167	0.089357
H	-1.514718	1.447251	0.702739
F	2.648687	0.0	0.0
