16

C	-0.54808	-0.021529	-1.4173
C	0.0	0.0	0.0
Cl	0.065737	1.350535	-2.419695
H	1.096173	0.0	0.0
H	-1.640393	0.098135	-1.423332
C	-0.242799	-1.261243	-2.135179
N	0.000316	-2.25266	-2.716439
C	-0.448122	-1.265472	0.723557
H	-1.542488	-1.385324	0.758966
H	-0.077734	-1.222856	1.751391
H	-0.011403	-2.155082	0.263669
C	-0.484412	1.240928	0.733832
H	-0.043781	1.247483	1.733972
H	-1.580269	1.277078	0.837569
H	-0.15136	2.15044	0.230894
F	2.641731	0.0	0.0
