16

C	-0.381251	0.023331	-1.471871
C	0.0	0.0	0.0
Cl	0.13248	-1.462713	-2.352527
H	1.096372	0.0	0.0
H	0.168412	0.838455	-1.949565
C	-1.817782	0.20499	-1.705887
N	-2.97361	0.378123	-1.837168
C	-0.57604	-1.183539	0.75345
H	-1.67553	-1.188965	0.762827
H	-0.226816	-1.145186	1.78931
H	-0.225181	-2.126563	0.329969
C	-0.419388	1.326502	0.626579
H	-0.004421	1.375695	1.636884
H	-1.507874	1.46183	0.688176
H	0.00909	2.166994	0.070618
F	2.647179	0.0	0.0
