15

C	-0.532226	-0.046132	-1.423639
C	0.0	0.0	0.0
Br	0.297455	-1.46705	-2.449892
H	1.092124	0.0	0.0
H	-0.321627	-0.931052	0.477518
C	-1.976289	-0.247737	-1.467685
N	-3.130105	-0.46856	-1.440521
N	-0.220258	1.296342	-2.097793
O	-1.172628	2.053879	-2.27526
O	0.951093	1.525979	-2.33087
C	-0.526556	1.211268	0.764413
H	-0.121844	2.138137	0.353084
H	-1.618824	1.272706	0.76487
H	-0.180647	1.143243	1.797557
Cl	3.466252	0.0	0.0
