15

C	-0.47547	-0.005468	-1.447948
C	0.0	0.0	0.0
Br	0.276604	1.447035	-2.477351
H	1.092951	0.0	0.0
H	-0.335513	-0.948429	0.433422
C	-0.175843	-1.25799	-2.132773
N	0.050524	-2.265377	-2.694702
N	-2.01557	0.118798	-1.413875
O	-2.534527	1.203447	-1.624088
O	-2.592596	-0.906738	-1.065259
C	-0.524163	1.177322	0.810127
H	-0.272592	2.126741	0.334771
H	-1.606708	1.137768	0.964227
H	-0.037709	1.16012	1.787318
Cl	3.388776	0.0	0.0
