15

C	-0.484376	-0.001858	-1.434946
C	0.0	0.0	0.0
Br	0.123356	1.575715	-2.39146
H	1.093184	0.0	0.0
H	-0.338042	0.937847	0.44834
C	-0.07736	-1.181789	-2.186834
N	0.2617	-2.135512	-2.784566
N	-2.026208	0.042159	-1.420634
O	-2.533285	1.013666	-0.878925
O	-2.625882	-0.920665	-1.888049
C	-0.522842	-1.205504	0.775058
H	-0.211314	-2.141144	0.305092
H	-1.612769	-1.206196	0.875363
H	-0.087974	-1.18465	1.776101
Cl	3.388908	0.0	0.0
