15

C	-0.468178	-0.022071	-1.450216
C	0.0	0.0	0.0
Br	0.298539	1.409908	-2.497264
H	1.092922	0.0	0.0
H	-0.336662	-0.942775	0.444512
C	-0.171244	-1.285178	-2.116177
N	0.054856	-2.301703	-2.661638
N	-2.008326	0.110205	-1.429924
O	-2.591458	-0.905661	-1.063333
O	-2.521975	1.191697	-1.668528
C	-0.526323	1.187439	0.793365
H	-0.045774	1.181145	1.773609
H	-1.609804	1.150557	0.941686
H	-0.270759	2.130964	0.308424
Cl	3.387967	0.0	0.0
