15

C	-0.423159	0.006377	-1.44772
C	0.0	0.0	0.0
Br	-2.371627	-0.268987	-1.655311
H	1.096758	0.0	0.0
H	-0.336396	-0.944396	0.432575
C	-0.101602	1.240904	-2.148403
N	0.099995	2.277987	-2.664274
N	0.214878	-1.17794	-2.192139
O	0.700811	-0.948311	-3.291213
O	0.151291	-2.256259	-1.624761
C	-0.508456	1.200541	0.784009
H	-1.60023	1.247278	0.817595
H	-0.131522	1.130966	1.806154
H	-0.126278	2.132225	0.361454
Cl	3.353921	0.0	0.0
