15

C	-0.552622	-0.036391	-1.423661
C	0.0	0.0	0.0
Cl	-0.097311	-1.579112	-2.215143
H	1.091022	0.0	0.0
H	-1.642709	-0.010587	-1.404244
C	-0.089442	1.0694	-2.262051
N	0.232161	1.931065	-2.99282
C	-0.489399	-1.141958	0.875366
H	-0.087512	-2.082965	0.504256
H	-1.583186	-1.193304	0.897203
H	-0.108468	-0.987107	1.884677
N	-0.456194	1.276963	0.641173
O	0.025262	1.551492	1.731383
O	-1.319664	1.946943	0.062619
Br	3.434383	0.0	0.0
