15

C	-0.438553	-0.064461	-1.456138
C	0.0	0.0	0.0
Cl	0.030353	1.393147	-2.370716
H	1.090837	0.0	0.0
H	0.144706	-0.880457	-1.892975
C	-1.85769	-0.356578	-1.660329
N	-2.973359	-0.668629	-1.854313
C	-0.469175	-1.213352	0.789821
H	-0.041346	-1.159145	1.791783
H	-1.55979	-1.263747	0.852443
H	-0.089518	-2.121465	0.316171
N	-0.526861	1.212757	0.683864
O	0.082393	1.598829	1.674673
O	-1.575037	1.702254	0.257637
Br	3.43815	0.0	0.0
