15

C	-0.455048	-0.021531	-1.455211
C	0.0	0.0	0.0
Cl	0.053604	1.45463	-2.315604
H	1.090818	0.0	0.0
H	0.08972	-0.845715	-1.924111
C	-1.888679	-0.242459	-1.648388
N	-3.022922	-0.476872	-1.844434
C	-0.528462	-1.186247	0.786537
H	-0.105392	-1.157926	1.792512
H	-1.619588	-1.175324	0.84406
H	-0.196844	-2.113938	0.314756
N	-0.483312	1.247897	0.667688
O	-1.664203	1.55525	0.484176
O	0.303476	1.855418	1.385878
Br	3.468164	0.0	0.0
