15

C	-0.547678	-0.010367	-1.427508
C	0.0	0.0	0.0
Cl	-0.153442	-1.565504	-2.226316
H	1.090974	0.0	0.0
H	-1.636604	0.059437	-1.41117
C	-0.036248	1.078896	-2.257298
N	0.321766	1.935214	-2.976352
C	-0.489558	-1.156053	0.855475
H	-0.070728	-2.089096	0.482653
H	-1.583279	-1.221599	0.859434
H	-0.127795	-1.006399	1.872207
N	-0.451542	1.269158	0.658836
O	-1.24553	1.997353	0.052748
O	-0.027887	1.487377	1.787624
Br	3.416845	0.0	0.0
