15

C	-0.403439	0.002827	-1.466859
C	0.0	0.0	0.0
Cl	-2.180897	0.22776	-1.677401
H	1.095281	0.0	0.0
H	0.073182	0.850791	-1.958244
C	-0.017573	-1.238169	-2.128518
N	0.259532	-2.234123	-2.685878
C	-0.538597	-1.144306	0.821177
H	-0.184892	-2.080946	0.385293
H	-1.629135	-1.145353	0.85944
H	-0.149183	-1.076376	1.835456
N	-0.388592	1.33211	0.564539
O	-0.139497	2.321933	-0.122683
O	-0.90305	1.366311	1.681734
Br	3.380552	0.0	0.0
