15

C	-0.552345	-0.043615	-1.42417
C	0.0	0.0	0.0
Cl	-0.103933	-1.59234	-2.206556
H	1.090895	0.0	0.0
H	-1.643185	-0.012519	-1.403845
C	-0.082977	1.05514	-2.266671
N	0.249158	1.91294	-2.996465
C	-0.485591	-1.139161	0.880654
H	-1.579737	-1.192505	0.90499
H	-0.082926	-2.081972	0.514478
H	-0.10466	-0.979106	1.889182
N	-0.458363	1.277896	0.636837
O	-1.302643	1.959114	0.044671
O	0.008113	1.544923	1.73826
Br	3.422619	0.0	0.0
