15

C	-0.407605	0.007747	-1.465498
C	0.0	0.0	0.0
Cl	-2.184261	0.242052	-1.6689
H	1.095271	0.0	0.0
H	0.071881	0.853496	-1.957017
C	-0.03231	-1.234839	-2.129741
N	0.234568	-2.231366	-2.690324
C	-0.539096	-1.14564	0.819367
H	-0.142818	-1.083093	1.831259
H	-0.191929	-2.081949	0.377816
H	-1.629582	-1.142434	0.864415
N	-0.383818	1.330808	0.572655
O	-0.868342	1.361875	1.702983
O	-0.155234	2.320551	-0.120111
Br	3.377311	0.0	0.0
