15

C	-0.415538	0.016959	-1.461971
C	0.0	0.0	0.0
Cl	-2.199061	0.217101	-1.652632
H	1.095224	0.0	0.0
H	0.042313	0.877605	-1.948432
C	-0.019372	-1.21107	-2.141841
N	0.258176	-2.195347	-2.719279
C	-0.531267	-1.153609	0.81463
H	-0.114073	-1.108842	1.819064
H	-1.62069	-1.142448	0.881075
H	-0.201497	-2.08694	0.353209
N	-0.378966	1.324864	0.590747
O	-0.791221	1.346104	1.74891
O	-0.210063	2.319673	-0.111616
Br	3.374665	0.0	0.0
