15

C	-0.549958	-0.006047	-1.426612
C	0.0	0.0	0.0
Cl	-0.132433	-1.549359	-2.237827
H	1.090931	0.0	0.0
H	-1.639801	0.046688	-1.407014
C	-0.056667	1.097454	-2.248685
N	0.296738	1.955236	-2.968735
C	-0.489849	-1.159535	0.851053
H	-0.071021	-2.090811	0.475079
H	-0.12843	-1.014653	1.869216
H	-1.58365	-1.224589	0.853794
N	-0.452606	1.265844	0.664733
O	-1.270605	1.980883	0.074255
O	-0.006113	1.491833	1.783046
Br	3.418464	0.0	0.0
