15

C	-0.415708	-0.004013	-1.46207
C	0.0	0.0	0.0
Cl	-2.198613	0.194725	-1.656031
H	1.095234	0.0	0.0
H	0.043217	0.848798	-1.961138
C	-0.020788	-1.242295	-2.124024
N	0.255173	-2.235121	-2.687063
C	-0.530978	-1.142267	0.830446
H	-1.620321	-1.130696	0.896476
H	-0.20071	-2.081565	0.382325
H	-0.113946	-1.083046	1.834052
N	-0.379567	1.33251	0.571966
O	-0.211219	2.317766	-0.144043
O	-0.792761	1.369603	1.729421
Br	3.375309	0.0	0.0
