15

C	-0.440053	-0.067721	-1.455463
C	0.0	0.0	0.0
Cl	-0.020805	1.411576	-2.359139
H	1.090816	0.0	0.0
H	0.167373	-0.861959	-1.900076
C	-1.849184	-0.402696	-1.659743
N	-2.952298	-0.753322	-1.858629
C	-0.462909	-1.214836	0.791013
H	-0.035508	-1.158722	1.793422
H	-1.553299	-1.272557	0.852326
H	-0.076617	-2.121202	0.318195
N	-0.535457	1.212118	0.680815
O	0.107786	1.652177	1.628215
O	-1.623264	1.647177	0.293916
Br	3.442519	0.0	0.0
