16
Coordinates from ORCA-job run
  C   -0.82756792928976      0.05931932318528      0.04015945232591
  C   0.59484560970411      0.53174712624512     -0.32001135175049
  F   -1.67093243429299      0.51345727969598     -1.00081651994232
  H   0.53107450862046      1.46600568376754     -0.88218172940677
  N   -1.23796963915989      0.63107609768879      1.27845461636261
  H   -2.23649684846213      0.79432586054618      1.25061905719502
  H   -0.74526521930959      1.48958005966185      1.47789101796511
  N   -0.87647082079167     -1.36150403874645      0.12815079479535
  H   -1.60227054607062     -1.64757761611235      0.77002975445772
  H   -1.01885277660339     -1.77871058121089     -0.78275329812719
  N   1.17650422320979     -0.46871285826268     -1.33599976735477
  O   2.25459512909787     -0.98603014231078     -1.06586618219645
  O   0.52330916993738     -0.65928551989787     -2.35707262988339
  N   1.39132113904291      0.67859017182467      0.83863593843483
  H   2.34170789293429      0.92663995486633      0.59976435314563
  H   1.40246854143324     -0.18892080094074      1.36199649397921
