16
Coordinates from ORCA-job run
  C   -0.72474773588178      0.04976301446952      0.12942302427867
  C   0.66485293629459      0.44157778185334     -0.39869621739127
  F   -1.58318184161768      0.12041409845349     -1.00668223529926
  H   0.62459130989111      1.48046522875155     -0.72446127095529
  N   -1.11421791852722      1.03105207493781      1.08675094269061
  H   -1.52530380505949      1.82703261157954      0.61613958404985
  H   -1.77596489209628      0.65721264615510      1.75376750409757
  N   -0.73058880110340     -1.24003064972011      0.70607807273113
  H   -0.37190962696454     -1.91765989786127      0.04455403038414
  H   -1.67077899119997     -1.50161022081107      0.97672988438983
  N   0.95057998359532     -0.33623082013413     -1.65709863168772
  O   1.05214800891025     -1.55687589274946     -1.53304374935816
  O   1.07956036349084      0.28922053916584     -2.70211300803448
  N   1.75000190553450      0.23632378262900      0.50875482380851
  H   1.57931857594816     -0.60068570656187      1.05342646571608
  H   1.79564052878561      1.02003140984270      1.14547078057982
