16
Coordinates from ORCA-job run
  C   -0.69083426471162      0.19647373794722      0.39744012164441
  C   0.79952290319356      0.43061847737770      0.06918137054567
  F   -0.89672347542606      0.96818320172480      1.56173537035858
  H   1.01696281020931      1.49878578849132      0.10602251736212
  N   -0.92707925062314     -1.17484173775950      0.74013261304890
  H   -1.13842920685599     -1.26656225525169      1.72291533004717
  H   -1.65372938407252     -1.57458463444507      0.16562479500304
  N   -1.52665074392934      0.59740692752220     -0.66626791244037
  H   -2.49082079830229      0.63077330277386     -0.36130563553233
  H   -1.25467425037207      1.48238390287291     -1.07233149363723
  N   1.01023476873637      0.06616257302472     -1.40525087930227
  O   1.30483089809220     -1.09516143552371     -1.66630057050070
  O   0.86126754940293      0.97511770884730     -2.22065310563044
  N   1.60477391664822     -0.30410642440523      0.96105943750265
  H   1.39113490738317     -1.28932334432787      0.86557698369129
  H   2.58921362062725     -0.13932578886896      0.80342105783952
