16

C	-0.393774	-0.047185	-1.495699
C	0.0	0.0	0.0
Cl	-0.064592	1.592072	-2.245217
H	1.092069	0.0	0.0
N	0.432571	-1.068445	-2.042361
H	1.416334	-0.910992	-1.812808
H	0.318143	-1.122921	-3.047291
N	-1.807429	-0.258776	-1.668949
H	-2.015225	-1.217952	-1.409549
H	-2.060233	-0.116512	-2.639156
C	-0.496899	-1.20614	0.648554
N	-0.901266	-2.190826	1.144774
N	-0.544662	1.196071	0.714454
O	-1.670319	1.095343	1.202355
O	0.169826	2.191038	0.750681
Br	3.387628	0.0	0.0
