16

C	-0.389084	0.057674	-1.488254
C	0.0	0.0	0.0
Cl	-0.040365	-1.742717	-2.11036
H	1.090148	0.0	0.0
N	-1.760656	0.349835	-1.669897
H	-2.337408	-0.394996	-1.299416
H	-1.974113	0.479915	-2.650757
N	0.451659	0.962369	-2.145645
H	1.419033	0.852206	-1.840745
H	0.39348	0.866042	-3.151012
C	-0.583026	-1.117896	0.719666
N	-1.060895	-2.013659	1.310385
N	-0.459462	1.287974	0.644823
O	-1.497045	1.255323	1.304351
O	0.234178	2.274856	0.442663
Br	3.368188	0.0	0.0
