16

C	-0.394312	0.113059	-1.482021
C	0.0	0.0	0.0
Cl	0.017047	-1.645268	-2.183027
H	1.087811	0.0	0.0
N	-1.77492	0.368764	-1.649419
H	-2.32942	-0.391308	-1.27791
H	-2.006182	0.504825	-2.62359
N	0.415462	1.076691	-2.098635
H	1.389977	0.961058	-1.817147
H	0.348518	1.027489	-3.105889
C	-0.58305	-1.146897	0.669964
N	-1.062291	-2.06567	1.223038
N	-0.4594	1.259998	0.697916
O	0.238852	2.252871	0.548174
O	-1.503355	1.200195	1.344754
Br	3.375435	0.0	0.0
