16

C	-0.428109	0.025151	-1.494224
C	0.0	0.0	0.0
Cl	0.013995	-1.648377	-2.116757
H	1.090855	0.0	0.0
N	-1.813448	0.315071	-1.591538
H	-2.369742	-0.363847	-1.084819
H	-2.083711	0.32243	-2.56752
N	0.301022	0.947787	-2.305883
H	1.295252	0.744182	-2.214411
H	0.152172	1.873149	-1.916123
C	-0.558435	-1.116567	0.745813
N	-1.019893	-2.029129	1.32458
N	-0.467081	1.285746	0.630094
O	0.058018	2.314839	0.215552
O	-1.344686	1.23159	1.488133
Br	3.374669	0.0	0.0
