16

C	-0.384385	0.119379	-1.488756
C	0.0	0.0	0.0
Cl	-0.261984	-1.618588	-2.160346
H	1.107772	0.0	0.0
N	-1.769842	0.478432	-1.675409
H	-1.824103	1.488532	-1.631898
H	-2.096906	0.152215	-2.574908
N	0.543848	0.98086	-2.101529
H	1.505307	0.774864	-1.829018
H	0.444944	0.983059	-3.107807
C	-0.560551	-1.15117	0.68394
N	-1.005063	-2.072475	1.259754
N	-0.385644	1.229678	0.79475
O	-0.694912	2.256256	0.198176
O	-0.304939	1.116482	2.013141
Br	3.347411	0.0	0.0
