16

C	-0.340028	0.055689	-1.500431
C	0.0	0.0	0.0
Cl	-2.15466	0.517855	-1.68732
H	1.091971	0.0	0.0
N	0.415952	1.096068	-2.099517
H	1.38909	1.015051	-1.801629
H	0.349191	1.056592	-3.1088
N	-0.111108	-1.239332	-2.042885
H	-0.13106	-1.210689	-3.053128
H	-0.774338	-1.927977	-1.705572
C	-0.541252	-1.190035	0.631816
N	-0.965783	-2.185426	1.088251
N	-0.462715	1.226167	0.726264
O	0.144127	2.262017	0.485498
O	-1.404307	1.105713	1.507439
Br	3.356478	0.0	0.0
