16

C	-0.332804	-0.112895	-1.492583
C	0.0	0.0	0.0
Cl	-2.167758	-0.418666	-1.6856
H	1.098409	0.0	0.0
N	0.083412	1.025465	-2.216823
H	-0.4285	1.854777	-1.953292
H	0.023742	0.853976	-3.211147
N	0.312562	-1.327827	-1.897768
H	0.104677	-1.533197	-2.867555
H	1.31803	-1.196714	-1.773218
C	-0.482663	-1.145655	0.756617
N	-0.872601	-2.050519	1.395031
N	-0.450219	1.246807	0.701314
O	-0.280065	1.264682	1.914061
O	-0.928014	2.169362	0.042514
Br	3.335906	0.0	0.0
