16

C	-0.233685	0.000553	-1.521367
C	0.0	0.0	0.0
Cl	-1.980639	-0.112224	-1.949969
H	1.093951	0.0	0.0
N	0.24547	1.264506	-2.02279
H	1.211289	1.379017	-1.714598
H	0.226605	1.245935	-3.036365
N	0.390679	-1.221911	-1.973617
H	0.300192	-1.296949	-2.980082
H	1.382136	-1.173137	-1.730748
C	-0.553188	-1.165883	0.661322
N	-0.98168	-2.101111	1.2273
N	-0.505046	1.251994	0.64175
O	-1.659015	1.237427	1.069649
O	0.264494	2.204826	0.677734
Br	3.370814	0.0	0.0
