16

C	-0.36907	-0.139943	-1.48699
C	0.0	0.0	0.0
Cl	0.020415	1.611974	-2.22899
H	1.090743	0.0	0.0
N	0.508995	-1.093362	-2.01528
H	0.386261	-1.223889	-3.010292
H	1.480554	-0.870385	-1.796747
N	-1.725345	-0.444285	-1.7213
H	-1.920236	-0.463751	-2.714438
H	-2.313746	0.24712	-1.274397
C	-0.511282	-1.133844	0.760701
N	-0.919136	-2.020507	1.414218
N	-0.551349	1.249046	0.618302
O	0.226194	2.004608	1.181275
O	-1.77159	1.405966	0.527029
Br	3.397669	0.0	0.0
