18
Coordinates from ORCA-job run
  C   0.82290686797389      0.40461961532897      0.19565578619522
  C   -0.53171338400796     -0.30275730885825      0.07270085778153
  Br  0.74832971852925      2.27454818788810     -0.30697444223451
  H   -0.33700961893537     -1.30836748775223      0.47179692540845
  N   1.75804287843045     -0.32538582051431     -0.82715472268311
  O   2.12785300024344     -1.42931506072196     -0.42828470085264
  O   1.99782020315868      0.16018976274259     -1.92145081590404
  N   1.33434983635808      0.31282789394353      1.51335960937064
  H   1.47112774440107     -0.66123457663975      1.75802325295860
  H   2.20656827536675      0.81701325423073      1.61520463455460
  C   -1.00736606112291     -0.44847777918832     -1.36966603874293
  H   -1.08059787912599      0.52571382308686     -1.85819122882188
  H   -0.34912480145171     -1.08317868677525     -1.96550227740292
  H   -1.99951845919570     -0.90544343518236     -1.37500757135545
  C   -1.58674455671680      0.37063586923852      0.94623179828645
  H   -1.91678713977961      1.31033515133994      0.49937421736431
  H   -1.20245034144439      0.57572619856513      1.94521531037810
  H   -2.45668628268115     -0.28544960073194      1.03166940569960
