18
Coordinates from ORCA-job run
  C   0.88795677621680      0.39986480202970      0.01471987623822
  C   -0.64329706950778      0.33477271409263     -0.02755132664632
  Br  1.59376769342322      1.54633975529056     -1.50019198987650
  H   -0.94186306403214      1.32582744818723      0.34250215159976
  N   1.56405434441410     -0.94479310382714     -0.26248976911154
  O   2.66049817967843     -1.12243993279515      0.25513422223549
  O   0.98197164880391     -1.73113048721929     -0.99794515752472
  N   1.34546182139041      0.82804912211967      1.26746711455832
  H   0.99087958539213      1.74769454996770      1.49221367418193
  H   2.35469631247222      0.80155978777594      1.33495784279571
  C   -1.14422251251555     -0.71283396648304      0.97501709909146
  H   -0.64789054701935     -0.61689110463599      1.94044345898507
  H   -0.98265881329674     -1.72146863084814      0.59028575928994
  H   -2.21868034381300     -0.58119098260829      1.12296133457024
  C   -1.31034654941295      0.14638452940294     -1.38774453825094
  H   -1.05047402242337     -0.81401268532457     -1.82836211312425
  H   -1.04431620678147      0.93736938399565     -2.08748605259515
  H   -2.39353723298887      0.17689880087958     -1.24293158641672
