18
Coordinates from ORCA-job run
  C   0.88584784536419      0.13842614938676      0.06815788112923
  C   -0.56554054626712     -0.32829934950068     -0.01303306861600
  Br  1.07976402746099      1.94615659661880     -0.82469965714190
  H   -0.50358135130782     -1.40124249010601      0.20186269508963
  N   1.83215220205597     -0.76062332256516     -0.74335098342629
  O   3.02894143706767     -0.54580546892897     -0.59723792367250
  O   1.33865788426924     -1.63547362949168     -1.44390471787804
  N   1.40879507840612      0.11128488395587      1.36921056219282
  H   2.39697393600842      0.33585622063613      1.36606414806755
  H   0.91190760880220      0.73763371206518      1.98699664517488
  C   -1.23591440419826     -0.13708997258948     -1.37241083438069
  H   -0.60042878216462     -0.44670627188247     -2.19926887510999
  H   -1.52353614427707      0.90463730216353     -1.52104249943148
  H   -2.14365793012972     -0.74564837357931     -1.40022897435999
  C   -1.40460216042299      0.33429509824853      1.08056516980904
  H   -1.34959567381390      1.42452353263588      1.01055489310547
  H   -2.45093179368747      0.04957369285395      0.95149066043194
  H   -1.10425123316582      0.01850169007913      2.08127487901632
