18
Coordinates from ORCA-job run
  C   0.98357810096227      0.28488109109838     -0.22129053614453
  C   -0.45596358613488     -0.17795012346823     -0.52117036888466
  Br  1.73381783790756      1.16948171971617     -1.79509503073333
  H   -0.41508975875831     -0.71587220767345     -1.47317885356213
  N   1.78450892815133     -1.00622282175224     -0.00300292203162
  O   1.89303120154639     -1.75963316813455     -0.96061625215979
  O   2.15213620883327     -1.23531655651182      1.14474612635506
  N   1.22148693091084      1.12751254614333      0.89800060430453
  H   0.98437040835234      0.66973977050708      1.76810147942653
  H   0.73548488388818      2.00759043742159      0.79756874380293
  C   -1.40172437103402      1.01185772609531     -0.64971678012221
  H   -1.53446417224705      1.51425229668491      0.31252624278993
  H   -2.38516730499444      0.66239509011848     -0.97179581433170
  H   -1.04930383535942      1.73972922027943     -1.38177687673781
  C   -0.95302916559632     -1.14008027779897      0.56027016206116
  H   -1.99330348495364     -1.40264143790155      0.35571013883425
  H   -0.92081211975922     -0.68197641518103      1.55292171424633
  H   -0.38055670171486     -2.06874688964282      0.58879822288705
