18
Coordinates from ORCA-job run
  C   0.95025853412734      0.51394524140755      0.02910583546405
  C   -0.59086290038949      0.40840432895796     -0.05842399350223
  Br  1.55986325971314      2.00220467364680     -1.07223008389436
  H   -0.93749950012339      1.42183982017258      0.17937438499859
  N   1.52437375334798     -0.79167057017198     -0.53246807169533
  O   1.63051040738791     -1.69612295431180      0.29493308650849
  O   1.74443598488625     -0.88685484104578     -1.73055784006655
  N   1.53947294366534      0.68382981166073      1.31989684284451
  H   1.20582316061481      1.53768555236262      1.74798818979032
  H   1.33570051078258     -0.11435790020550      1.90757362175380
  C   -1.16017996653188     -0.54742085620676      0.99190289912738
  H   -0.81316300002907     -1.57085531760149      0.83656558697251
  H   -0.90576422541530     -0.24504729212210      2.00902921620052
  H   -2.24994767553110     -0.54787762798653      0.91527333466394
  C   -1.10077610791492      0.03336237547931     -1.44859185535524
  H   -2.18637104377033      0.15334598968516     -1.47757080056593
  H   -0.66748110832929      0.65690719940735     -2.22999741717955
  H   -0.87639302649059     -1.01031763312812     -1.68180293606491
