11

C	0.0	0.0	0.0
C	-0.554953	0.034378	-1.417172
Cl	1.781626	0.0	0.0
H	-0.287381	-0.873699	-1.964053
H	-0.348439	0.885823	0.532087
H	-1.675303	0.053723	-1.166383
C	-0.459103	-1.17718	0.746921
N	-0.639255	-2.129117	1.4128
C	-0.123386	1.21085	-2.144461
N	0.190142	2.176286	-2.738961
H	-2.767629	0.0	0.0
