11

C	0.0	0.0	0.0
C	-0.304341	0.02408	-1.518531
Cl	1.784029	0.0	0.0
H	0.344758	0.785814	-1.972266
H	-0.333636	0.91041	0.486637
H	0.041736	-0.933854	-1.926288
C	-0.536552	-1.140474	0.725904
N	-0.718146	-1.971413	1.546582
C	-1.673586	0.231615	-2.000411
N	-2.646817	0.135562	-2.665941
H	-2.137619	0.0	0.0
