11

C	0.0	0.0	0.0
C	-0.485071	-0.032906	-1.448869
Cl	1.779243	0.0	0.0
H	-1.598941	-0.02854	-1.29449
H	-0.379528	0.907433	0.467756
H	-0.156911	0.877942	-1.957553
C	-0.461752	-1.160832	0.76988
N	-0.557474	-2.141425	1.413644
C	-0.017397	-1.196462	-2.181198
N	0.356741	-2.137	-2.779085
H	-2.690974	0.0	0.0
