14

C	0.0	0.0	0.0
C	-0.417426	-0.053317	-1.502879
Br	1.941177	0.0	0.0
H	0.12461	-0.895091	-1.952212
H	-0.372018	-0.883379	0.523545
N	-0.297378	1.266574	0.633081
H	0.349199	1.389319	1.391163
H	-1.255751	1.212502	0.950611
N	0.045737	1.186846	-2.162634
H	-0.203913	1.936525	-1.52245
H	-0.502709	1.302222	-3.006183
C	-1.86899	-0.294327	-1.862214
N	-2.854588	-0.753407	-2.343705
H	-2.363272	0.0	0.0
