14

C	0.0	0.0	0.0
C	-0.330927	-0.009905	-1.526543
Br	1.957839	0.0	0.0
H	0.418589	0.628781	-2.00805
H	-0.273631	-0.956496	0.453944
N	-0.533422	1.163244	0.635553
H	-1.550771	1.108257	0.482849
H	-0.389045	1.070116	1.63656
N	-1.647734	0.499472	-1.845876
H	-2.375354	0.203793	-1.132343
H	-1.931557	0.146549	-2.752714
C	-0.077799	-1.384974	-2.024814
N	0.069628	-2.459441	-2.479278
H	-3.302037	0.0	0.0
