14

C	0.0	0.0	0.0
C	-0.704994	0.058597	-1.325982
Br	1.991873	0.0	0.0
H	-1.820595	0.143771	-0.898893
H	-0.273132	-0.939921	0.480236
N	-0.425252	1.093388	0.803908
H	-0.041796	1.967132	0.468967
H	-0.185905	0.96626	1.773574
N	-0.539224	-1.18985	-2.083841
H	-1.301804	-1.787057	-1.766314
H	-0.7297	-1.006056	-3.062736
C	-0.346905	1.238585	-2.083256
N	-0.082774	2.216921	-2.685117
H	-3.069155	0.0	0.0
