14

C	0.0	0.0	0.0
C	-0.585445	-0.002946	-1.404286
Br	1.93887	0.0	0.0
H	-1.670577	0.169758	-1.184128
H	-0.267797	-0.96377	0.449837
N	-0.516755	1.152048	0.682183
H	-1.546739	1.010166	0.621712
H	-0.261215	1.097584	1.663174
N	-0.386689	-1.309246	-2.049941
H	-1.12375	-1.900317	-1.674443
H	-0.583159	-1.210557	-3.04083
C	-0.071166	1.073469	-2.238979
N	0.290578	1.920735	-2.970729
H	-3.008405	0.0	0.0
