14

C	0.0	0.0	0.0
C	-0.394926	0.142476	-1.490886
Br	2.019405	0.0	0.0
H	0.335582	0.813813	-1.958394
H	-0.224221	-0.999272	0.374637
N	-0.500654	1.067794	0.773695
H	-0.694249	0.752572	1.715058
H	-1.371988	1.388887	0.355751
N	-1.711556	0.722859	-1.618799
H	-2.029204	0.667766	-2.580133
H	-2.461678	0.284395	-0.983409
C	-0.200226	-1.171583	-2.150851
N	-0.040261	-2.184315	-2.724749
H	-3.521724	0.0	0.0
