13

C	-0.563942	0.005054	-1.422761
C	0.0	0.0	0.0
Cl	0.176864	1.413869	-2.32768
H	1.091278	0.0	0.0
H	-0.34027	-0.919777	0.486522
C	-0.150662	-1.209746	-2.136188
N	0.10505	-2.199003	-2.715802
N	-1.993345	0.051973	-1.41006
H	-2.300983	0.873148	-0.899866
H	-2.354905	0.100535	-2.354958
C	-0.52625	1.139477	0.741288
N	-1.015368	2.035077	1.32289
Cl	3.288753	0.0	0.0
