13

C	-0.559717	0.006894	-1.422508
C	0.0	0.0	0.0
Cl	0.033423	1.477325	-2.253846
H	1.092237	0.0	0.0
H	-0.343198	0.918941	0.483484
C	-0.078294	-1.154151	-2.19589
N	0.170044	-2.115658	-2.82357
N	-2.007922	0.075139	-1.39081
H	-2.358999	-0.728398	-0.878001
H	-2.37133	0.031263	-2.336785
C	-0.525226	-1.151106	0.725208
N	-0.977751	-2.092453	1.262973
Cl	3.297557	0.0	0.0
