13

C	-0.334389	-0.11035	-1.487533
C	0.0	0.0	0.0
Cl	-2.073915	-0.610062	-1.712724
H	1.095388	0.0	0.0
H	-0.324034	-0.927387	0.478308
C	-0.227383	1.194679	-2.167398
N	-0.096792	2.216067	-2.734743
N	0.51777	-1.124179	-2.03061
H	1.472288	-0.973161	-1.695204
H	0.503245	-1.11237	-3.042592
C	-0.591449	1.147319	0.661142
N	-1.085236	2.061653	1.207535
Cl	3.275134	0.0	0.0
