13

C	-0.55776	-0.022787	-1.422622
C	0.0	0.0	0.0
Cl	0.191677	1.407377	-2.29255
H	1.091841	0.0	0.0
H	-0.311227	0.942911	0.463923
C	-0.147874	-1.219487	-2.167864
N	0.103563	-2.180269	-2.795058
N	-1.984444	0.030961	-1.413409
H	-2.293875	0.849057	-0.901943
H	-2.353558	0.06841	-2.355771
C	-0.524091	-1.115152	0.780932
N	-0.937842	-2.012063	1.415407
Cl	3.300552	0.0	0.0
