13

C	-0.320624	0.054552	-1.501172
C	0.0	0.0	0.0
Cl	-0.06048	-1.680452	-2.139146
H	1.094347	0.0	0.0
H	-0.383127	-0.911402	0.457389
C	-1.732974	0.329901	-1.797127
N	-2.868712	0.53708	-2.01909
N	0.521258	1.011443	-2.095638
H	0.464929	1.015265	-3.105267
H	1.484283	0.883173	-1.779941
C	-0.508471	1.176179	0.693441
N	-0.917205	2.11204	1.272946
Cl	3.291582	0.0	0.0
