16

C	-0.355974	0.093674	-1.480127
C	0.0	0.0	0.0
F	-1.697134	0.425974	-1.648259
H	1.101338	0.0	0.0
N	0.429059	1.172739	-2.000771
H	1.395067	1.07827	-1.684411
H	0.411053	1.162918	-3.013908
C	-0.154594	-1.161331	-2.241605
N	0.052134	-2.062907	-2.965349
N	-0.498218	-1.248941	0.662372
O	-0.158692	-1.389174	1.831465
O	-1.219354	-2.021372	0.032037
N	-0.517163	1.12537	0.736637
H	-0.89607	1.809452	0.093979
H	0.246903	1.550093	1.244711
Br	3.409095	0.0	0.0
