16

C	-0.579087	-0.013865	-1.414886
C	0.0	0.0	0.0
F	0.093779	-0.939454	-2.206534
H	1.09094	0.0	0.0
N	-1.989371	-0.249373	-1.389804
H	-2.13526	-1.222826	-1.147032
H	-2.387301	-0.068774	-2.302751
C	-0.351069	1.309397	-2.037309
N	-0.275435	2.296045	-2.667468
N	-0.378993	-1.28767	0.737957
O	-0.707316	-2.285671	0.092705
O	-0.299332	-1.244637	1.96151
N	-0.451659	1.159344	0.680299
H	0.126257	1.339478	1.488377
H	-1.426896	1.096205	0.937336
Br	3.408285	0.0	0.0
