16

C	-0.493699	0.050054	-1.448872
C	0.0	0.0	0.0
F	-0.028206	-1.086469	-2.112016
H	1.090367	0.0	0.0
N	-1.906196	0.200782	-1.546679
H	-2.340104	-0.621077	-1.143839
H	-2.182983	0.313531	-2.513634
C	0.124455	1.218937	-2.115046
N	0.564494	2.126616	-2.715908
N	-0.438522	-1.293506	0.660063
O	-1.451386	-1.870985	0.245658
O	0.219331	-1.654396	1.623517
N	-0.483072	1.086435	0.788546
H	-1.263169	1.558023	0.354687
H	0.270485	1.720224	1.010039
Br	3.440002	0.0	0.0
