16

C	-0.609037	0.011063	-1.404545
C	0.0	0.0	0.0
F	-2.016637	-0.201142	-1.207328
H	1.090523	0.0	0.0
N	-0.336446	1.245897	-2.002181
H	-0.517449	1.991242	-1.341016
H	-0.808163	1.363285	-2.886903
C	-0.196697	-1.075649	-2.310378
N	0.027971	-1.910053	-3.104868
N	-0.434969	-1.285769	0.679091
O	-1.087053	-1.203533	1.721252
O	-0.096794	-2.332098	0.134246
N	-0.437418	1.164584	0.704909
H	-1.2999	0.977345	1.199876
H	0.280444	1.421159	1.370186
Br	3.397939	0.0	0.0
