13

C	-0.516302	0.027577	-1.43101
C	0.0	0.0	0.0
Br	-0.109548	-1.585741	-2.46604
H	1.101263	0.0	0.0
H	-1.605493	0.105914	-1.428274
H	-0.06438	0.853907	-1.978678
N	-0.606769	-1.115509	0.719767
H	-0.262393	-1.043207	1.671263
H	-0.231114	-1.978367	0.33999
N	-0.401269	1.215907	0.695396
H	0.178101	1.989622	0.392697
H	-1.377384	1.424931	0.510872
Br	3.709883	0.0	0.0
