13

C	-0.521688	0.033331	-1.433713
C	0.0	0.0	0.0
Br	-0.073696	-1.572106	-2.450272
H	1.100323	0.0	0.0
H	-0.093058	0.87038	-1.987607
H	-1.611704	0.110949	-1.426063
N	-0.459687	-1.120404	0.79343
H	0.105634	-1.93004	0.577822
H	-1.425202	-1.333916	0.570487
N	-0.537446	1.223548	0.622218
H	-0.356737	1.109789	1.614433
H	0.041559	2.001709	0.318628
Br	3.692554	0.0	0.0
