13

C	-0.547254	0.120507	-1.413207
C	0.0	0.0	0.0
Br	-0.237154	-1.45971	-2.531975
H	1.09432	0.0	0.0
H	-1.629805	0.266019	-1.386717
H	-0.072694	0.957185	-1.92209
N	-0.492825	-1.174663	0.716958
H	0.298632	-1.765876	0.934406
H	-1.110772	-1.721157	0.129394
N	-0.440064	1.248079	0.650943
H	0.366573	1.649797	1.11634
H	-1.093434	0.97205	1.371904
Br	3.6231	0.0	0.0
