13

C	-0.51682	-0.07512	-1.435295
C	0.0	0.0	0.0
Br	-0.252881	1.56479	-2.467101
H	1.094322	0.0	0.0
H	-1.593529	-0.266004	-1.449791
H	0.004741	-0.863005	-1.972542
N	-0.431169	-1.26695	0.58899
H	0.146398	-1.42321	1.4097
H	-1.386188	-1.153759	0.920704
N	-0.442628	1.158276	0.768884
H	-1.360824	1.459042	0.460241
H	0.198577	1.925664	0.605889
Br	3.718785	0.0	0.0
