16

C	-0.564161	-0.029521	-1.408509
C	0.0	0.0	0.0
F	-0.056727	1.078958	-2.07044
H	1.087649	0.0	0.0
H	-1.650837	0.087453	-1.372767
C	-0.133002	-1.27513	-2.149158
H	0.949648	-1.390659	-2.073476
H	-0.416717	-1.169301	-3.198279
H	-0.617405	-2.166629	-1.747846
N	-0.508491	-1.201109	0.729577
O	-1.654539	-1.129578	1.179586
O	0.216916	-2.187727	0.767856
N	-0.487962	1.177183	0.783933
O	0.010436	1.308526	1.897229
O	-1.347475	1.903483	0.289687
Cl	3.238124	0.0	0.0
