16

C	-0.517191	-0.037952	-1.423542
C	0.0	0.0	0.0
F	-0.127579	1.168118	-2.001997
H	1.087259	0.0	0.0
H	-1.605084	-0.065663	-1.445979
C	0.12542	-1.172431	-2.188323
H	1.210211	-1.115218	-2.08118
H	-0.141148	-1.089381	-3.243973
H	-0.227892	-2.135485	-1.816823
N	-0.496017	-1.175963	0.786313
O	0.191718	-1.554211	1.728207
O	-1.583581	-1.652409	0.454434
N	-0.532173	1.184691	0.748644
O	-1.623771	1.634091	0.39383
O	0.138053	1.584557	1.69336
Cl	3.256311	0.0	0.0
