16

C	-0.410226	-0.04624	-1.453906
C	0.0	0.0	0.0
F	-1.773971	-0.268246	-1.604673
H	1.09016	0.0	0.0
H	0.102777	-0.908597	-1.881746
C	-0.014942	1.229666	-2.156784
H	1.047314	1.417896	-1.999745
H	-0.593149	2.070241	-1.769082
H	-0.215577	1.135069	-3.224563
N	-0.450973	-1.205737	0.752866
O	-0.776746	-1.0651	1.927636
O	-0.391681	-2.269429	0.144992
N	-0.545517	1.206427	0.677069
O	0.258433	2.041342	1.087345
O	-1.772892	1.301031	0.730359
Cl	3.211986	0.0	0.0
