16

C	-0.461435	-0.027156	-1.439988
C	0.0	0.0	0.0
F	-1.849814	0.103432	-1.505203
H	1.089782	0.0	0.0
H	-0.211741	-1.016136	-1.827413
C	0.194027	1.058214	-2.26144
H	-0.059688	0.917355	-3.31406
H	-0.151097	2.041617	-1.942665
H	1.277323	1.009732	-2.130092
N	-0.43943	-1.194614	0.785424
O	-0.918142	-2.148082	0.175363
O	-0.224017	-1.151689	1.990502
N	-0.533745	1.213016	0.68185
O	0.122139	2.241781	0.539968
O	-1.611147	1.118926	1.265199
Cl	3.209423	0.0	0.0
