16

C	-0.530525	-0.056983	-1.421702
C	0.0	0.0	0.0
F	-0.026389	1.05382	-2.082996
H	1.087667	0.0	0.0
H	-1.620374	0.036892	-1.41964
C	-0.044321	-1.300375	-2.1331
H	1.037753	-1.38789	-2.014396
H	-0.521809	-2.20019	-1.741554
H	-0.288267	-1.210726	-3.193594
N	-0.513625	-1.191038	0.740617
O	0.207589	-2.179883	0.790587
O	-1.658701	-1.110186	1.189718
N	-0.500743	1.188693	0.754207
O	-1.342717	1.912713	0.226488
O	-0.028789	1.334525	1.877419
Cl	3.238358	0.0	0.0
