16

C	-0.455629	-0.019064	-1.44155
C	0.0	0.0	0.0
F	-1.847611	0.055036	-1.513346
H	1.089823	0.0	0.0
H	-0.16237	-0.988719	-1.845688
C	0.157682	1.109951	-2.235557
H	-0.226345	2.072163	-1.89623
H	-0.090274	0.983988	-3.291417
H	1.241945	1.099246	-2.103873
N	-0.432015	-1.207126	0.770392
O	-0.810186	-2.189618	0.134933
O	-0.302189	-1.148616	1.987763
N	-0.541883	1.204617	0.687945
O	-1.649239	1.115886	1.211855
O	0.137398	2.224514	0.608246
Cl	3.208345	0.0	0.0
