16

C	-0.501131	0.012577	-1.443373
C	0.0	0.0	0.0
F	-0.155993	-1.20379	-2.011891
H	1.089446	0.0	0.0
H	0.096686	0.77823	-1.941108
C	-1.979361	0.265182	-1.652128
H	-2.571829	-0.503763	-1.164837
H	-2.187887	0.252761	-2.723611
H	-2.259725	1.246342	-1.266711
N	-0.472067	-1.151682	0.823567
O	0.10868	-1.31164	1.89167
O	-1.391199	-1.850724	0.397041
N	-0.479654	1.250583	0.655759
O	-0.100992	2.288034	0.124591
O	-1.244137	1.176296	1.614295
Cl	3.191623	0.0	0.0
