16

C	-0.428126	0.105589	-1.446063
C	0.0	0.0	0.0
F	-1.818617	0.098255	-1.559327
H	1.096614	0.0	0.0
H	-0.057426	-0.793489	-1.941767
C	0.133546	1.353415	-2.088786
H	1.215665	1.38297	-1.938996
H	-0.308756	2.249356	-1.647532
H	-0.090448	1.343217	-3.156905
N	-0.439759	-1.270783	0.651559
O	-0.482434	-1.279745	1.87588
O	-0.644719	-2.235163	-0.079629
N	-0.547056	1.1409	0.781542
O	-1.725746	1.073998	1.128615
O	0.198403	2.10245	0.948911
Cl	3.213182	0.0	0.0
