15

C	-0.5073	-0.035865	-1.453513
C	0.0	0.0	0.0
Br	0.130771	-1.808	-2.213894
H	1.10963	0.0	0.0
N	-1.897864	0.170669	-1.577024
H	-2.412588	-0.485327	-1.003981
H	-2.195889	0.137391	-2.543035
C	0.194577	0.977804	-2.242928
N	0.649012	1.817594	-2.928614
N	-0.486552	-1.206581	0.767806
O	-1.691319	-1.467652	0.69536
O	0.333501	-1.823184	1.428562
C	-0.507305	1.183375	0.683302
N	-0.893297	2.135755	1.253905
Cl	3.155922	0.0	0.0
