17

C	-0.49715	0.01871	-1.431686
C	0.0	0.0	0.0
Br	0.351923	-1.467408	-2.396029
H	1.090291	0.0	0.0
C	-1.933364	-0.128426	-1.591631
N	-3.089302	-0.329436	-1.684024
N	-0.054804	1.311493	-2.138143
O	1.026981	1.75354	-1.786401
O	-0.716439	1.646056	-3.122552
C	-0.557767	-1.135311	0.832965
H	-1.649439	-1.082988	0.901885
H	-0.269902	-2.09681	0.406548
H	-0.130599	-1.061991	1.833938
N	-0.424529	1.268609	0.660514
O	-1.134437	2.067948	0.000424
O	0.156624	1.544663	1.706322
H	2.607874	0.0	0.0
