17

C	-0.465639	-0.014825	-1.425866
C	0.0	0.0	0.0
Br	-2.442022	0.166787	-1.645135
H	1.092826	0.0	0.0
C	0.140311	0.978925	-2.303827
N	0.594942	1.719188	-3.097005
N	-0.061214	-1.395609	-1.986762
O	-0.838328	-2.328685	-1.853415
O	1.075	-1.446208	-2.446798
C	-0.360823	-1.20906	0.828641
H	0.183671	-2.079775	0.459153
H	-1.433175	-1.41653	0.832077
H	-0.021091	-1.016051	1.844157
N	-0.355673	1.244958	0.632696
O	-0.375505	1.284425	1.874408
O	-0.488057	2.249769	-0.0903
H	2.368734	0.0	0.0
