17

C	-0.512719	0.009214	-1.41614
C	0.0	0.0	0.0
Br	0.338033	-1.487883	-2.410207
H	1.09029	0.0	0.0
C	-1.949906	-0.148807	-1.57023
N	-3.105004	-0.356516	-1.656772
N	-0.067908	1.267006	-2.169899
O	0.953926	1.803448	-1.775172
O	-0.734397	1.569551	-3.153675
C	-0.483432	-1.170259	0.833999
H	-0.036036	-1.079647	1.823748
H	-0.159701	-2.113728	0.393401
H	-1.575212	-1.165947	0.928278
N	-0.417843	1.23986	0.65481
O	-1.16318	2.031506	0.045537
O	0.035338	1.44433	1.786928
H	2.480437	0.0	0.0
