17

C	-0.427831	-0.008673	-1.464856
C	0.0	0.0	0.0
Br	0.350834	1.494384	-2.398334
H	1.09166	0.0	0.0
C	0.039411	-1.23758	-2.09217
N	0.446416	-2.224017	-2.58678
N	-1.969489	0.003427	-1.700063
O	-2.517876	-1.020003	-1.294064
O	-2.518089	1.05723	-1.988901
C	-0.537489	-1.133463	0.845682
H	-0.264456	-2.092367	0.402606
H	-1.620874	-1.086784	0.96371
H	-0.05717	-1.063899	1.825735
N	-0.428621	1.295672	0.625702
O	0.444458	1.996484	1.125539
O	-1.63668	1.548108	0.620459
H	2.725629	0.0	0.0
