18

C	-0.298742	-0.02906	-1.518113
C	0.0	0.0	0.0
Br	-2.264101	-0.251518	-1.86247
H	1.09927	0.0	0.0
C	0.027521	1.271456	-2.103715
N	0.291874	2.31859	-2.569112
C	0.452173	-1.136913	-2.247905
H	0.087873	-2.113286	-1.927746
H	1.513369	-1.039929	-1.987361
H	0.319833	-1.051054	-3.328286
C	-0.475189	-1.244364	0.731091
H	-0.089956	-1.18422	1.749763
H	-1.567643	-1.291809	0.773415
H	-0.095439	-2.161934	0.277964
N	-0.470166	1.187452	0.687599
H	-1.437197	1.379826	0.445251
H	0.096502	1.984706	0.423548
Cl	3.43366	0.0	0.0
