18

C	-0.429771	0.048275	-1.484831
C	0.0	0.0	0.0
Br	-0.022516	-1.660531	-2.392105
H	1.096199	0.0	0.0
C	-1.878939	0.219706	-1.580475
N	-3.042031	0.384634	-1.635951
C	0.321537	1.149346	-2.223652
H	0.056571	1.161171	-3.282548
H	1.391899	0.96866	-2.10237
H	0.064659	2.102822	-1.762048
C	-0.530825	-1.194374	0.776458
H	-0.207106	-1.098256	1.816075
H	-1.627537	-1.225156	0.753843
H	-0.144509	-2.13782	0.392007
N	-0.428197	1.282354	0.571944
H	-1.282422	1.163664	1.105635
H	0.299387	1.616327	1.193211
Cl	3.451596	0.0	0.0
