18

C	-0.433486	0.06011	-1.482968
C	0.0	0.0	0.0
Br	-0.063113	-1.652685	-2.402546
H	1.099598	0.0	0.0
C	-1.880331	0.255942	-1.572586
N	-3.0433	0.42427	-1.606365
C	0.336614	1.151004	-2.21867
H	1.405177	0.948538	-2.10186
H	0.068019	1.175518	-3.276536
H	0.100104	2.107572	-1.749637
C	-0.53787	-1.192434	0.773446
H	-0.16828	-2.137922	0.379231
H	-0.202766	-1.106999	1.8097
H	-1.634534	-1.208463	0.760951
N	-0.419802	1.282805	0.578711
H	0.334451	1.640047	1.152846
H	-1.241455	1.161888	1.157515
Cl	3.442339	0.0	0.0
