18

C	-0.477716	-0.008922	-1.482997
C	0.0	0.0	0.0
Br	0.26269	1.567605	-2.413226
H	1.095471	0.0	0.0
C	0.023936	-1.183372	-2.192485
N	0.352912	-2.174762	-2.732619
C	-1.996421	0.041385	-1.65032
H	-2.40019	0.938158	-1.177427
H	-2.448492	-0.843609	-1.195703
H	-2.262665	0.066403	-2.707822
C	-0.485354	-1.253909	0.72071
H	0.020575	-1.284554	1.68616
H	-0.236336	-2.166407	0.174474
H	-1.56551	-1.227428	0.904229
N	-0.406185	1.173196	0.752754
H	0.168082	1.962661	0.487074
H	-1.380459	1.408605	0.608725
Cl	3.441931	0.0	0.0
