14
Coordinates from ORCA-job run
  C   -0.76408208436058      0.05164628351931     -0.05439840451087
  C   0.62798934780440     -0.50002219505113      0.18028294113943
  F   -1.23767122743099     -0.33519673153202     -1.26421775176634
  H   0.53768310800908     -1.59012856879952      0.12548802965595
  H   0.92653551249987     -0.23426661676257      1.19682749699691
  C   -0.83618647998452      1.51275733001460      0.05537579970056
  N   -0.85016249176185      2.68595262576495      0.10792920175712
  N   -1.69365072588049     -0.53614467494695      1.01677245665946
  O   -1.50919616650954     -0.10394710378719      2.14674793260693
  O   -2.47820095051885     -1.39885937906489      0.65936968855898
  C   1.62540830172729      0.01726210829640     -0.84972656672115
  H   1.74109197860820      1.10093768557921     -0.78212760544333
  H   2.60278120582847     -0.43556428579347     -0.67621501349746
  H   1.30966067196951     -0.23642647743673     -1.86210820513618
