14
Coordinates from ORCA-job run
  C   -0.94897840062551      0.06147655563724     -0.22269335471534
  C   0.34767856529104     -0.44461023452831     -0.82152835555831
  F   -2.00573023347127     -0.39885118826534     -0.94259220526735
  H   0.24469753259837     -1.53224457066433     -0.88203617147478
  H   0.38031801436941     -0.05791105544004     -1.84428925070907
  C   -1.02008125166224      1.52268826739184     -0.12788500714882
  N   -1.05406499263083      2.69663691770109     -0.13214962382330
  N   -1.08164088335329     -0.52113597659665      1.18785998779320
  O   -0.70192139583563      0.18669528765539      2.11310069418501
  O   -1.48847622937393     -1.67157456194840      1.24499391896868
  C   1.58931430430088     -0.03621033927614     -0.03757507608207
  H   2.48094004541846     -0.37394079623541     -0.56768277131035
  H   1.60494804265590     -0.48099526947745      0.95814330317698
  H   1.65399688231865      1.04797696404649      0.07333391196551
