15

C	0.0	0.0	0.0
C	-0.582101	0.297192	-1.377842
Br	1.923835	0.0	0.0
H	-0.097405	-0.381084	-2.088062
H	-0.351353	0.684933	0.769588
N	-0.429298	-1.379662	0.43266
O	-0.265838	-2.286374	-0.375569
O	-0.889328	-1.475763	1.564987
C	-0.220203	1.667533	-1.746554
N	0.052062	2.756593	-2.091705
C	-2.102153	0.083879	-1.390522
H	-2.540543	0.489929	-2.302441
H	-2.33907	-0.97841	-1.348291
H	-2.61955	0.550638	-0.552176
Cl	-5.131761	0.0	0.0
