15

C	0.0	0.0	0.0
C	-0.559215	-0.093897	-1.411528
Br	1.92725	0.0	0.0
H	-1.615805	-0.377235	-1.262961
H	-0.377545	0.878731	0.517565
N	-0.402872	-1.178938	0.854802
O	-0.482234	-0.964381	2.05718
O	-0.560623	-2.25264	0.289408
C	0.11431	-1.081676	-2.248396
N	0.614487	-1.823819	-3.009401
C	-0.540191	1.285562	-2.073549
H	-0.913539	1.210809	-3.097064
H	0.466954	1.708449	-2.100503
H	-1.211226	1.941068	-1.516408
Cl	-3.383557	0.0	0.0
