15

C	0.0	0.0	0.0
C	-0.42971	-0.370066	-1.459018
Br	1.922604	0.0	0.0
H	0.501061	-0.407582	-2.033062
H	-0.366334	0.973049	0.311208
N	-0.3867	-0.939411	1.114543
O	-0.607951	-0.406483	2.194014
O	-0.342675	-2.144489	0.899551
C	-1.138322	0.767191	-2.0622
N	-1.513174	1.682859	-2.695087
C	-1.113477	-1.713282	-1.741657
H	-1.358772	-1.729891	-2.807761
H	-2.026049	-1.807929	-1.162645
H	-0.429833	-2.532048	-1.521969
Cl	-3.171701	0.0	0.0
