15

C	0.0	0.0	0.0
C	-0.431256	-0.361328	-1.461018
Br	1.922376	0.0	0.0
H	0.499474	-0.398839	-2.035702
H	-0.364088	0.971918	0.316584
N	-0.386833	-0.946167	1.108574
O	-0.335818	-2.150298	0.88848
O	-0.614504	-0.419054	2.189691
C	-1.136227	0.781938	-2.057488
N	-1.518423	1.694573	-2.69031
C	-1.123094	-1.699132	-1.750084
H	-0.445205	-2.523466	-1.532095
H	-1.366425	-1.711491	-2.816313
H	-2.03786	-1.789518	-1.173382
Cl	-3.187129	0.0	0.0
