15

C	0.0	0.0	0.0
C	-0.56864	0.068825	-1.413965
Br	1.923652	0.0	0.0
H	-0.073212	-0.715301	-1.998141
H	-0.358162	0.799086	0.64654
N	-0.439155	-1.293711	0.640869
O	-0.215823	-2.323362	0.013493
O	-0.977246	-1.203263	1.739035
C	-0.202766	1.362689	-1.995879
N	0.07313	2.381179	-2.511638
C	-2.087126	-0.147351	-1.41192
H	-2.3285	-1.188723	-1.196742
H	-2.620279	0.452449	-0.672457
H	-2.506897	0.100926	-2.387221
Cl	-5.096791	0.0	0.0
