15

C	0.0	0.0	0.0
C	-0.57494	-0.09415	-1.40864
Br	1.92374	0.0	0.0
H	-0.107062	-0.959959	-1.888589
H	-0.359624	0.866661	0.551134
N	-0.434583	-1.208246	0.793225
O	-0.898164	-0.986333	1.906655
O	-0.273719	-2.304856	0.268899
C	-0.180223	1.100684	-2.156884
N	0.118264	2.034932	-2.801763
C	-2.099337	-0.269838	-1.361463
H	-2.359707	-1.289658	-1.081586
H	-2.587526	0.383961	-0.639397
H	-2.548357	-0.056703	-2.330455
Cl	-5.103985	0.0	0.0
