16
Coordinates from ORCA-job run
  C   -0.74116000195143     -0.14476509312507      0.09490128387182
  C   0.72800894301131     -0.14104229879703     -0.35909636958855
  F   -0.69940582207529     -0.08166534008313      1.51941697062297
  H   0.69993864135925     -0.20821541358204     -1.45104039119966
  N   -1.41087693039891      1.01664083648835     -0.39859018338199
  H   -2.37631303427280      0.81276224633104     -0.61697952577257
  H   -1.36709085095079      1.75982278408934      0.28516960138025
  N   -1.40444733383107     -1.31721385577092     -0.34191843379768
  H   -2.30973348361318     -1.38692842532367      0.10854543306988
  H   -0.86973101484449     -2.14367692276588     -0.10511485229295
  C   1.41083607499673     -1.33169106415299      0.15350549222537
  N   1.94323345848586     -2.29487513837625      0.56321623134845
  C   1.46288175759040      1.13108133546059      0.06310914839860
  H   1.45652251448481      1.23189986072929      1.14874418718256
  H   2.49881623489430      1.10050681537272     -0.27741999655417
  H   0.97852084711530      1.99735967350565     -0.38844859551233
