16
Coordinates from ORCA-job run
  C   -0.77229388483728     -0.05237951472771      0.28008431640958
  C   0.67064782003016     -0.11569821725859     -0.27805510153219
  F   -0.65432378088215      0.23763715840159      1.62920508131635
  H   0.59426048486407     -0.28963020835409     -1.35977066933479
  N   -1.46258855880000      1.03229551851461     -0.34322477011826
  H   -2.44155501627571      0.97907825687018     -0.08648354500090
  H   -1.38035501959861      0.99761811340612     -1.35088948343673
  N   -1.52283296695596     -1.28037172868179      0.23730883573274
  H   -1.06119046685306     -2.00868819527425      0.77019222533660
  H   -1.64793768346942     -1.59322442354150     -0.71661450820996
  C   1.34687120940253     -1.28142880485342      0.29393774826573
  N   1.87892600943300     -2.21670430972792      0.76413097932477
  C   1.46940002602567      1.16315996398209     -0.01238506040534
  H   1.57308608718347      1.31649510358191      1.06123484802340
  H   0.94603073161212      2.02059431093939     -0.43310080185288
  H   2.46385500912117      1.09124697672338     -0.45657009451814
