16
Coordinates from ORCA-job run
  C   -0.76674518800616      0.27081599688913     -0.07848726956593
  C   0.71531951758510      0.18027577509448     -0.48670175270174
  F   -1.08621210365213      1.61005048068950      0.03646031410062
  H   0.77483196957724      0.66005208102884     -1.46834771952117
  N   -1.58444797388985     -0.21882445439412     -1.16319370460779
  H   -2.56100529534838     -0.04783319700458     -0.94902926030695
  H   -1.45210448738268     -1.21640454620229     -1.28310962168576
  N   -0.94661952107657     -0.27716117874400      1.24380433393719
  H   -0.79087178832965     -1.27846340549974      1.23422937129775
  H   -1.89506911100348     -0.10066253268050      1.55520522964476
  C   1.05790433429641     -1.23282934460376     -0.64829890527442
  N   1.28398556442730     -2.38207838075641     -0.73796081445149
  C   1.64569217753202      0.87524277014828      0.50702943429078
  H   1.60096765614040      0.38876926873395      1.47983174544182
  H   2.67269252174638      0.85652496336907      0.13788140260104
  H   1.33168172738406      1.91252570393215      0.62268721680139
