16
Coordinates from ORCA-job run
  C   -0.77292734351300     -0.19184071824591      0.23851494611741
  C   0.64568676198885     -0.11845979878030     -0.37980952419577
  F   -0.57470626807508     -0.07980114130957      1.62748988895130
  H   0.50983344909423     -0.16592506191925     -1.46578829457232
  N   -1.65950617111926      0.88082449574149     -0.09805170322894
  H   -1.82645524103799      0.90987669963954     -1.09456753166102
  H   -1.30751069433506      1.76865117061959      0.23075703855294
  N   -1.40290084371412     -1.39981949135981     -0.13323797784833
  H   -2.32983871515652     -1.42599787272510      0.27277428725985
  H   -0.87164265268400     -2.20848644948698      0.16355145663207
  C   1.41446425318575     -1.29969284162921      0.01823146702663
  N   2.01647497308445     -2.25228908512550      0.34855023133481
  C   1.39869069306258      1.15738093859531      0.00064987587075
  H   2.39810850341099      1.15354468564849     -0.43658325360524
  H   1.49120471546124      1.23401763148600      1.08374951138452
  H   0.87302458034692      2.03601683885124     -0.37723041801868
