16
Coordinates from ORCA-job run
  C   -0.73806970515555     -0.14316080379720      0.12586360235756
  C   0.71036251550032     -0.14440972393399     -0.39076982795890
  F   -0.63503985268301     -0.08824049053587      1.54759690633631
  H   0.63532759874351     -0.21026670638741     -1.48039935846897
  N   -1.42224868541277      1.02257072695416     -0.33464418137379
  H   -2.40206984462779      0.82993156134971     -0.49089896383651
  H   -1.32727739599966      1.76982900070175      0.33961102403089
  N   -1.42447334875682     -1.31104211865706     -0.28728534737236
  H   -0.88401450801094     -2.14041153510573     -0.07419226435238
  H   -2.31076232703151     -1.37873794116506      0.19994588762590
  C   1.40966133851074     -1.33723573488804      0.09304328931447
  N   1.95522221157744     -2.30219514400504      0.48012238166276
  C   1.46758252016355      1.12494689317886      0.00031672568509
  H   1.50184558366146      1.22941011180006      1.08504413137861
  H   0.97180190533665      1.99212946843381     -0.43677110269481
  H   2.49015199418438      1.08788243605705     -0.37758290233387
