16
Coordinates from ORCA-job run
  C   -0.81200403555321     -0.12739005381132     -0.32906405282574
  C   0.72505483609820     -0.26637613812597     -0.20413366947659
  F   -1.03866431837146      0.08936822174359     -1.68317788261432
  H   0.99829998346779     -1.10605249462283     -0.85330168570701
  N   -1.56960805112163     -1.31121025822951     -0.01911456447896
  H   -1.29561892911732     -2.08765754736497     -0.60960755966216
  H   -1.45093190372947     -1.56889928422395      0.95254447049431
  N   -1.26495165343718      1.00914814531895      0.39528250392435
  H   -0.83028729959892      1.08431577001948      1.30532730680064
  H   -2.27102728045708      0.96315156717680      0.49864502213591
  C   1.05001983520842     -0.63865652941633      1.17300731074127
  N   1.26540876169451     -0.90416543566399      2.29688550574499
  C   1.48619555706740      0.98620469016288     -0.64457096141647
  H   2.56191770523715      0.80087760602957     -0.63424745717627
  H   1.26605211528718      1.82749405773739      0.01153596539924
  H   1.17914467732562      1.24984768327021     -1.65601025188320
