16
Coordinates from ORCA-job run
  C   -0.85585465379611      0.15129328330517     -0.09126986062413
  C   0.64834817547805      0.13126725603390     -0.45965006369261
  F   -1.15230814852635      1.52098789281718      0.06411384928175
  H   0.74826158822017      0.61853706776629     -1.43730839356589
  N   -1.60709247417051     -0.45575492400353     -1.11963050862525
  H   -1.45979338992975     -0.00502021333040     -2.01265707218252
  H   -2.58893960595573     -0.44003250130607     -0.87476955310820
  N   -1.23120671483332     -0.46221744003289      1.14381405907666
  H   -0.78494497011842     -0.01077498409702      1.92987841859160
  H   -1.01176811677860     -1.44964231879838      1.13136592857018
  C   1.08432701988067     -1.25885104454117     -0.59215142856321
  N   1.45648236497082     -2.37118453365849     -0.64255123344467
  C   1.52322539023210      0.87215006974782      0.55365026432947
  H   1.48886738668772      0.38221065273707      1.52847765858307
  H   1.17980232475429      1.90067316872119      0.65733286481334
  H   2.56259382388496      0.87735856863933      0.22235507056040
