16
Coordinates from ORCA-job run
  C   -0.79377564655122     -0.18607690497490     -0.16068139430786
  C   0.69352117753584     -0.10178741486211     -0.54266878706140
  F   -1.33608967499020     -1.17869001888805     -1.03483901782082
  H   0.72182641087788      0.15425436514657     -1.60779098403345
  N   -0.95779344090459     -0.56776916010258      1.19249390499572
  H   -1.93847527308237     -0.72295836649571      1.39549442768591
  H   -0.46106788335960     -1.43199501427500      1.37377535153732
  N   -1.43336745262737      1.06060803895861     -0.41326611073210
  H   -2.29347814033437      1.14426666532938      0.11270426437932
  H   -1.64327018888588      1.14006645039984     -1.40011619317950
  C   1.31108775124863     -1.42125132313077     -0.38906055342391
  N   1.81112141851497     -2.46782908400111     -0.20707669283507
  C   1.44658685711575      0.95083535865859      0.27127093801857
  H   2.48170720935235      1.02327173152040     -0.06736413166503
  H   1.43713164066831      0.68989691593390      1.32918575942345
  H   0.95433523542186      1.91415776078296      0.14693921901884
