16
Coordinates from ORCA-job run
  C   -0.74877675591457     -0.12848661808842      0.06579379091791
  C   0.74584961183600     -0.19266186625612     -0.29025739599364
  F   -0.79505881060875      0.11692047233270      1.47034069728204
  H   0.78522847121587     -0.40562584888560     -1.36286219064869
  N   -1.36962760879103      0.96082610410392     -0.61655227954806
  H   -1.33466197634290      1.79409336878375     -0.04535006018010
  H   -2.33083784205302      0.74619744165067     -0.84365659890018
  N   -1.39924960719577     -1.34467631569949     -0.25673656368889
  H   -0.89056419402832     -2.13499477821787      0.12027566977153
  H   -2.33124871332986     -1.35127033808721      0.14191420429684
  C   1.37904239702496     -1.30585578549850      0.42077882005298
  N   1.87127138661977     -2.20779870175629      0.98911486781078
  C   1.46978936448907      1.12167252235664      0.00279542819368
  H   2.52650918734094      1.03772312099794     -0.25439964704671
  H   1.03274213654473      1.91861617885043     -0.59963398877607
  H   1.38859295319285      1.37432104341345      1.06043524645656
