16
Coordinates from ORCA-job run
  C   -0.83560518518395     -0.30275184764304     -0.22692242738141
  C   0.66852311277860     -0.09757539803538     -0.52843174869152
  F   -1.25559695081264     -1.23125969113263     -1.19776335455412
  H   0.73280713244397      0.14634664465560     -1.59478243532727
  N   -1.02547352954255     -0.76679869395473      1.09413169721726
  H   -2.01588214741466     -0.89817967991864      1.25804901827251
  H   -0.53416475020514     -1.63728479149100      1.25470063035173
  N   -1.67139917411744      0.84207144305687     -0.41422694671669
  H   -1.57572855450508      1.22215421179991     -1.34635942917105
  H   -1.47710842263191      1.54890629910273      0.28034738539858
  C   1.38277889038183     -1.35923486029322     -0.32140148101626
  N   1.94557408811006     -2.36635633694285     -0.10275065658651
  C   1.29838762470623      1.01654806785631      0.30829365943596
  H   2.36280512213937      1.10675195080784      0.08644369919164
  H   1.17454810890467      0.80530223219730      1.37038981175113
  H   0.82453463494865      1.97236044993494      0.07928257782602
