16
Coordinates from ORCA-job run
  C   -0.80254444283651     -0.14611665643143      0.14372078108386
  C   0.69571554019653     -0.15524345894932     -0.24228502986667
  F   -0.82735068539773      0.13754425696892      1.52047766162817
  H   0.73704467195844     -0.41855097793975     -1.30478932254535
  N   -1.49632362929818      0.82130687613688     -0.62363485286919
  H   -2.48166143846988      0.75707168152950     -0.39738046439493
  H   -1.16829014288953      1.75609223825533     -0.42237895453534
  N   -1.49243482113513     -1.39194098548500      0.00151786593053
  H   -1.48867588686592     -1.68817596807653     -0.96546862220084
  H   -1.06804802630410     -2.10394168162263      0.58238703066209
  C   1.36245428904137     -1.22118412956233      0.50848626022569
  N   1.88721180302673     -2.07977349160596      1.11311547321500
  C   1.40131392184798      1.18527298342210     -0.01719463298913
  H   2.47062974996746      1.09190619830659     -0.21235196972203
  H   1.00698621549514      1.94169312356380     -0.69808036269447
  H   1.26397288166332      1.51503999148981      1.01285913907262
