16
Coordinates from ORCA-job run
  C   -0.80499659072714     -0.36430450879992     -0.24604933383086
  C   0.69102912826674     -0.06301535250981     -0.50429824264059
  F   -1.12911896525637     -1.33879179190967     -1.20827040037378
  H   0.77411622902180      0.16214532960757     -1.57343800219853
  N   -1.00709410407283     -0.81280663913840      1.07846176560879
  H   -1.99153544856826     -1.00657652753881      1.21404496030159
  H   -0.46495004088198     -1.64509272034018      1.27415352014493
  N   -1.70929790975009      0.71701169181223     -0.48605414788166
  H   -1.58457496200105      1.45079945878805      0.19657459052181
  H   -1.60969728647612      1.08189278400329     -1.42375807709792
  C   1.48216638949935     -1.26757025072284     -0.24469411684335
  N   2.10495006133038     -2.22811396722730      0.01696431339041
  C   1.21535721259254      1.10951323445299      0.32562996270304
  H   2.27876178295740      1.26578641205546      0.13800697271686
  H   0.68788950076570      2.02615365758553      0.05694391294062
  H   1.06799500329993      0.91396918988180      1.38778232253866
