16
Coordinates from ORCA-job run
  C   -0.76882185239744      0.14353190766381     -0.00590364043891
  C   0.68695448826555      0.10931255064714     -0.50515929530099
  F   -1.09276704999472      1.50187105943604      0.15575077105255
  H   0.69672051215134      0.51949913682376     -1.52271667121306
  N   -1.62118670961866     -0.47600387765865     -0.96022126560650
  H   -1.56294322033435     -0.01792530716858     -1.86193097663899
  H   -2.58222064296275     -0.45799763009101     -0.64037653810056
  N   -0.87258855324509     -0.42930797075245      1.30635211703104
  H   -1.68645111231341     -0.05387247170559      1.77686239875150
  H   -0.95293975377123     -1.43600741051215      1.23577693904416
  C   1.11673649642095     -1.28769599737061     -0.57664179174158
  N   1.46493290026569     -2.40855462245376     -0.59523271565933
  C   1.62510246589982      0.92389820635111      0.38552393622212
  H   2.65037821929408      0.85440549961251      0.01854168058722
  H   1.58140587951084      0.54537885584329      1.40583973475857
  H   1.31868793282939      1.96946807133516      0.38253531725278
