16
Coordinates from ORCA-job run
  C   -0.84675935422512     -0.23402322739924     -0.24354143009673
  C   0.70151609217139     -0.29725865221474     -0.30999139905696
  F   -1.23800044839072      0.13422467909441     -1.52825559913148
  H   0.94449924917265     -1.11495365638626     -0.99747151753998
  N   -1.36272221272299     -1.52396952415089      0.04399737605144
  H   -0.77519998006732     -2.06589429532443      0.66070695006900
  H   -2.29942473027146     -1.45012018194502      0.41781649422346
  N   -1.41539724555185      0.77329230775736      0.61006059935192
  H   -1.17906240608867      1.70631204189471      0.29818270178842
  H   -1.12275696201379      0.64426439510857      1.57031403599982
  C   1.21349448231038     -0.64048527285033      1.01643839861417
  N   1.58409481151573     -0.89484008733206      2.10173515370654
  C   1.33024020480805      1.00127852130949     -0.81562157910672
  H   2.41074827361113      0.88593288308803     -0.91159248284078
  H   1.14160123690569      1.82328590983877     -0.12276368364406
  H   0.91512898883690      1.25195415951164     -1.79101401838805
