16
Coordinates from ORCA-job run
  C   -0.82325055329016     -0.20839575691434     -0.20761319429456
  C   0.72229501436322     -0.25930576321285     -0.22485076170908
  F   -1.16264991903237      0.00198233993717     -1.56181747196738
  H   0.98238069239693     -1.01377968866045     -0.97618695162861
  N   -1.48509777175320     -1.42044255192515      0.16557540010059
  H   -1.27080382617462     -1.65605461666415      1.12608297804315
  H   -1.21194437273487     -2.18049781636420     -0.44359924383378
  N   -1.29162518641512      0.81792260729020      0.63940959867746
  H   -2.30339009147714      0.79259827995300      0.66140398990464
  H   -0.97710350510150      1.73014220618807      0.34001215393045
  C   1.20217223875639     -0.73617424221288      1.07207969662537
  N   1.58636248423132     -1.12010528682622      2.11286119620802
  C   1.38187072316528      1.06927568744255     -0.60409202517346
  H   0.94139411627387      1.44536585398083     -1.52832071004097
  H   2.45263418959139      0.93009160420886     -0.76123523850819
  H   1.25775576720059      1.80837714377955      0.18929058366635
