16
Coordinates from ORCA-job run
  C   -0.78490670384282     -0.17570967614950      0.21044864968714
  C   0.65635279273008     -0.13169534334688     -0.35634844178691
  F   -0.63424496457539     -0.06539938653440      1.60554005312925
  H   0.55931322703315     -0.17807347952369     -1.44649893856239
  N   -1.63733437080371      0.91386918382910     -0.15846468712203
  H   -1.28010484102105      1.79505509934256      0.18238009666343
  H   -1.76821337444296      0.94489127697538     -1.16026574496055
  N   -1.42507367120749     -1.37138448245581     -0.18281391148070
  H   -2.36647773534825     -1.37838827730823      0.18925115077736
  H   -0.92119759029725     -2.19017351243612      0.13328987351823
  C   1.38609901893327     -1.32747841359979      0.07067005217840
  N   1.95619305557619     -2.29136418017743      0.42405449904476
  C   1.42081378226090      1.12914121894083      0.05030270439066
  H   0.92472884436235      2.01799062814603     -0.34329846946380
  H   2.43369698435948      1.10633744517542     -0.35415352575811
  H   1.47935554628347      1.20338189912255      1.13590663974526
