16
Coordinates from ORCA-job run
  C   -0.74369833536566     -0.13415524925362      0.10020397477189
  C   0.72602983850246     -0.16659155550762     -0.35160621958833
  F   -0.70255505040543     -0.01311846938386      1.52086056563906
  H   0.69825560324846     -0.28659638363856     -1.43878915233764
  N   -1.39954037466954      1.01123781059663     -0.44448712293496
  H   -1.32732184541497      1.79045024972874      0.19548021819137
  H   -2.37340532225722      0.81631915689180     -0.63246701746237
  N   -1.41912500031225     -1.31710336645433     -0.28802194511552
  H   -0.89327421333617     -2.13817427665454     -0.01486967945267
  H   -2.32545154764616     -1.35889072247732      0.16393860131249
  C   1.39595632226755     -1.33625336944206      0.22180166665857
  N   1.91841911358962     -2.28223660285379      0.68110917045788
  C   1.47283738801658      1.11758441781816      0.00979624779974
  H   2.51088200728340      1.05822959737957     -0.31998329664214
  H   1.00233764468193      1.96435303004255     -0.49054909151072
  H   1.45965377181741      1.27494573320823      1.08858308021336
