16
Coordinates from ORCA-job run
  C   -0.78840671094661     -0.19375134984891     -0.17522852829594
  C   0.70598553466927     -0.10292547583955     -0.52640455748664
  F   -1.30499957699445     -1.20030936758408     -1.04944332357456
  H   0.75546391824024      0.14027263933348     -1.59379783010651
  N   -0.97871204991659     -0.56184947136223      1.17836133862265
  H   -1.96238615629995     -0.72284909867372      1.36139371186126
  H   -0.47924621597012     -1.41994648346987      1.38002601734779
  N   -1.43161403358616      1.04501131029600     -0.45512042416095
  H   -1.61943850003941      1.11329708287364     -1.44722548530217
  H   -2.30412640801517      1.12687885785223      0.05038173474945
  C   1.32966566797448     -1.41558769810403     -0.34305648664129
  N   1.82937121858175     -2.45784913021429     -0.13699319161749
  C   1.43343429780678      0.96591273176759      0.29001587628973
  H   2.47494348637355      1.04202827436533     -0.02759210161351
  H   0.93661730689868      1.92361727575936      0.14300298039385
  H   1.40344822122372      0.71804990284904      1.35068026953433
