16
Coordinates from ORCA-job run
  C   -0.80376027636775     -0.14757015246466      0.13615302999602
  C   0.69848241223884     -0.15430688561189     -0.23422621840676
  F   -0.84374229351408      0.14480628863583      1.51067165533552
  H   0.75161609349353     -0.42306627878107     -1.29482861086850
  N   -1.49236009176926      0.81275185159822     -0.64477414349207
  H   -2.47970744943287      0.74752067052710     -0.42791109976225
  H   -1.16865188239557      1.74976819353683     -0.44689455582860
  N   -1.48837960963110     -1.39640401107320     -0.00523754550032
  H   -1.47320769686040     -1.69903407472848     -0.97018988555782
  H   -1.06807328276844     -2.10327805604167      0.58481480453966
  C   1.36043406770265     -1.21442690180625      0.52888696142072
  N   1.88107536674993     -2.06920527827932      1.14231634337431
  C   1.39795225180800      1.18933166239019     -0.00881171938690
  H   2.46934421197957      1.09803295946094     -0.19336424586579
  H   1.00819060797432      1.94158362903667     -0.69688851377255
  H   1.24978757079265      1.52349638360074      1.01828374377534
