16
Coordinates from ORCA-job run
  C   -0.74270458388165     -0.14257246555735      0.09651278630345
  C   0.73011212538623     -0.16119618471631     -0.34549673538627
  F   -0.71208250613915     -0.00654408686213      1.51628107378624
  H   0.71138056447590     -0.29306065528956     -1.43153020012322
  N   -1.40902804240056      0.98902796255961     -0.46379491932500
  H   -2.37983257646386      0.78087406680317     -0.65304441601400
  H   -1.34842155544449      1.77587203201091      0.16801350359924
  N   -1.40116716774095     -1.33760804329511     -0.28340311709927
  H   -0.86687453403427     -2.14913931176139      0.00159388256862
  H   -2.30951496445146     -1.38584433615548      0.16389132232016
  C   1.41095698721130     -1.31652168934579      0.24431571069337
  N   1.94158753391122     -2.25182051899846      0.71576998129188
  C   1.45880673722862      1.13582021023920      0.00682292929233
  H   2.49957174731259      1.08564462513613     -0.31589715691377
  H   0.98112663710692      1.97123262050607     -0.50576933835273
  H   1.43708359792362      1.30483577472651      1.08373469335897
