16
Coordinates from ORCA-job run
  C   -0.79831166740683     -0.19728361767673      0.12145999695029
  C   0.69369864303426     -0.10986336494193     -0.28664876001853
  F   -0.80017106682880     -0.11291994984669      1.52655406720091
  H   0.71411810914391     -0.13482670604414     -1.38157833030371
  N   -1.63238462810295      0.88087073766911     -0.31608079628263
  H   -1.33575538912453      1.76212186732102      0.07849485163376
  H   -1.65670812165195      0.93137383090081     -1.32529255542394
  N   -1.36377393327538     -1.39814696783412     -0.36051752515983
  H   -2.33918389749625     -1.43337820696452     -0.09190127069454
  H   -0.87738216234407     -2.21203156287600     -0.00666261005548
  C   1.40228415590676     -1.29827483689261      0.19318009645599
  N   1.95508790917559     -2.25649414330370      0.58728491009741
  C   1.38041195224940      1.15793629599152      0.22378609051032
  H   2.43009725639594      1.16741393083966     -0.07334450720725
  H   0.90580729840685      2.04436196365079     -0.20069905405701
  H   1.32416554191806      1.20814073000751      1.31096539635427
