16
Coordinates from ORCA-job run
  C   -0.77365529146462      0.27066744877544     -0.04653872087817
  C   0.68883297972585      0.17314040997662     -0.51867133128947
  F   -1.08174242222775      1.61126355177983      0.08542349551811
  H   0.70826350093713      0.63831451640357     -1.50906375172219
  N   -1.63834936838518     -0.21788062715886     -1.09215513772198
  H   -1.46343119872216     -1.20022163337340     -1.26840719418100
  H   -2.60639794023128     -0.10934838583314     -0.81028427421806
  N   -0.89781576569977     -0.27480653235464      1.28450410863953
  H   -0.79004812490366     -1.28217383661022      1.26327373523178
  H   -1.81662274976771     -0.05538430571990      1.65249275720850
  C   1.03041742016470     -1.24134730238013     -0.67067005290873
  N   1.30174920400708     -2.38138766291453     -0.75153573138557
  C   1.66022702491608      0.88243455496307      0.42463320565377
  H   1.35772906305246      1.92424238155957      0.52944335156716
  H   1.64752273438692      0.41554374253496      1.40788330408871
  H   2.67232093421190      0.84794368035177      0.01767223639760
