16
Coordinates from ORCA-job run
  C   -0.86724686633961     -0.32669175776988     -0.31028767990062
  C   0.64758521048714     -0.10782470090841     -0.56270071028665
  F   -1.19636345999863     -1.38036963887822     -1.17973738587334
  H   0.75179902500262      0.16348994295547     -1.62005801182969
  N   -1.24521432962230     -0.80936670616163      0.98651516694616
  H   -0.93265907673434     -0.18677013513981      1.71871491895841
  H   -0.88602518263134     -1.74246110932608      1.14368935747555
  N   -1.59136037475669      0.82948658596533     -0.61922758575523
  H   -1.12148640891411      1.63378793356019     -0.98855203641996
  H   -2.40573146198914      0.99904684340864     -0.05688444490825
  C   1.34504565475523     -1.37740347813608     -0.35787174698808
  N   1.91219226000201     -2.37936158938575     -0.12919956665880
  C   1.27433362435062      0.97001516167701      0.32523923636680
  H   2.33296624265542      1.08749944540617      0.08916540797064
  H   0.78396454937764      1.93372589661536      0.18370289930118
  H   1.19920059435549      0.69319730611770      1.37849218160189
