16
Coordinates from ORCA-job run
  C   -0.85142919245985      0.24272182519124     -0.00269770563960
  C   0.62816066649826      0.18963588665059     -0.45586110050338
  F   -1.17342804125222      1.59489327263575     -0.00439600671661
  H   0.65033748528119      0.66530074882331     -1.44300559429930
  N   -1.79886707825232     -0.35720172708679     -0.90487596370458
  H   -1.63202218909069     -1.35186076311070     -0.99094812724791
  H   -1.75608356696608      0.07232960996482     -1.82149611084635
  N   -0.97920956213187     -0.25317635565337      1.32344895780434
  H   -1.95614174198934     -0.42571260657218      1.52572861812500
  H   -0.44339616778370     -1.09763975760031      1.47324622731334
  C   1.01548664091230     -1.21140686744871     -0.62351247628100
  N   1.29091176320884     -2.34982193186866     -0.71314569901080
  C   1.57970084211894      0.92979100936833      0.48687788393719
  H   1.22628677575793      1.95225756054540      0.61576829335858
  H   1.61126676868055      0.45103198296163      1.46498202512587
  H   2.58842659746806      0.94985811319966      0.06988677858521
