16
Coordinates from ORCA-job run
  C   -0.84926554801558     -0.25238243040321     -0.23206340859276
  C   0.66179816953148     -0.11126807496798     -0.53757454936102
  F   -1.29328758880349     -1.23833277347162     -1.12950991505096
  H   0.75387738428402      0.15353786769184     -1.59794903200808
  N   -1.20639316725930     -0.72935299795016      1.06598698306023
  H   -0.78982406687247     -1.63323541564535      1.24936587601684
  H   -0.94049832227466     -0.06576997077912      1.77990255225817
  N   -1.49630498588644      0.99124838939777     -0.43450277038460
  H   -2.48235888213767      0.87851726452497     -0.23203318199606
  H   -1.38179327992844      1.30815420551066     -1.38902682714352
  C   1.29916653874396     -1.41556974916263     -0.35160131086430
  N   1.80728455310672     -2.45276351037098     -0.14160015023066
  C   1.35075863085289      0.94690232391579      0.32551869910208
  H   0.85668438767758      1.90917608032751      0.19796831583186
  H   2.40133872482212      1.04068425260503      0.04593525091584
  H   1.30981745215927      0.66845453877749      1.38018346844695
