16
Coordinates from ORCA-job run
  C   -0.86094237773290      0.28571462835140     -0.08918579032236
  C   0.63076973807265      0.17353751819914     -0.49929461559010
  F   -1.07462058045411      1.65064182572672      0.08527523186824
  H   0.71792551994031      0.66967031211067     -1.47219757571980
  N   -1.68127420161003     -0.17768757943098     -1.14968876938719
  H   -2.59679521627536     -0.42722207536364     -0.80018089141618
  H   -1.27731794719410     -0.94318199800842     -1.66924343419958
  N   -1.22992304460860     -0.30182626123516      1.16983804175773
  H   -1.03765771859234     -1.29539604338116      1.17773295982182
  H   -0.76087732979949      0.14774866471978      1.94538558811805
  C   0.96406287336585     -1.24052622017406     -0.66885749606403
  N   1.19570441617829     -2.38747303585719     -0.77259716663143
  C   1.57551280574814      0.83817773694236      0.50221697284361
  H   2.60201457405289      0.80276292698993      0.13462970256973
  H   1.54750003293638      0.32654633685441      1.46601188493822
  H   1.28691845597242      1.87951326355620      0.64015535741326
