14

C	-0.349452	-0.063176	-1.471055
C	0.0	0.0	0.0
F	-0.148303	-1.38872	-1.915298
H	1.093926	0.0	0.0
H	-1.40639	0.145984	-1.687623
H	-0.363219	0.964171	0.380973
C	0.60808	0.827005	-2.236024
H	0.54611	0.635726	-3.310432
H	1.613427	0.629657	-1.844102
H	0.368886	1.879863	-2.052853
N	-0.656255	-1.083096	0.760813
H	-0.233783	-1.9356	0.4084
H	-0.307523	-1.004312	1.711706
F	2.822368	0.0	0.0
