14

C	-0.289087	-0.057943	-1.47541
C	0.0	0.0	0.0
F	-1.674963	-0.209664	-1.751761
H	1.094544	0.0	0.0
H	-0.000703	0.902577	-1.921199
H	-0.396599	0.932016	0.43284
C	0.492978	-1.179901	-2.116872
H	0.136375	-2.134183	-1.726119
H	1.53288	-1.033422	-1.801821
H	0.403051	-1.169094	-3.206872
N	-0.465882	-1.212685	0.682277
H	-1.396232	-1.076909	1.057782
H	0.166637	-1.395763	1.451033
F	2.761871	0.0	0.0
