14

C	-0.392389	0.135821	-1.460124
C	0.0	0.0	0.0
F	-0.34265	-1.141321	-2.065027
H	1.099889	0.0	0.0
H	-1.426221	0.484985	-1.578251
H	-0.436302	-0.914035	0.414598
C	0.609266	1.028369	-2.163125
H	0.452422	2.065146	-1.845416
H	1.607578	0.718746	-1.832574
H	0.501457	0.971668	-3.25006
N	-0.46361	1.212204	0.7303
H	-0.857694	0.927966	1.620778
H	0.385382	1.720558	0.961521
F	2.782506	0.0	0.0
