14

C	-0.428594	0.018895	-1.452727
C	0.0	0.0	0.0
F	-0.092501	1.269827	-2.002679
H	1.093452	0.0	0.0
H	0.159541	-0.728322	-2.000615
H	-0.428423	0.876113	0.504072
C	-1.914204	-0.16001	-1.720011
H	-2.476719	0.600013	-1.169158
H	-2.268319	-1.147953	-1.413139
H	-2.12351	-0.043092	-2.787184
N	-0.364979	-1.241885	0.70528
H	-1.16472	-1.712625	0.298999
H	0.43879	-1.854918	0.633166
F	2.731535	0.0	0.0
