15
Coordinates from ORCA-job run
  C   0.79891186406096     -0.68344147471966      0.20115802830945
  C   -0.41577093768939      0.21817796867584      0.26176059152997
  Cl  0.84104103966499     -1.75063566170994      1.60731925681374
  H   -0.39746753470424      0.80195311829995      1.18132356117310
  H   0.83921169045207     -1.28773078042511     -0.70115895006034
  N   2.07047198783236      0.13243296305781      0.20512607704047
  O   3.02552995228163     -0.36037186832394     -0.38028104283514
  O   2.04413177222049      1.19759087006231      0.81263297213741
  C   -1.72680135866829     -0.53015556010213      0.08480583392371
  H   -2.55199542828808      0.18294567561950      0.09136360161262
  H   -1.73203415031494     -1.07114712657671     -0.86420692276870
  H   -1.87439449428600     -1.23881740603423      0.89892639516053
  N   -0.31536815983476      1.22306270900850     -0.85161704513751
  O   -0.91034180733278      2.28051357122771     -0.68714429138251
  O   0.30487556460598      0.88462300194010     -1.85900806551684
