15
Coordinates from ORCA-job run
  C   0.80580264364720     -0.66986023471757      0.21964095363383
  C   -0.42896439118108      0.20574594778035      0.24992165746413
  Cl  0.82102886493512     -1.75616255263300      1.61131370597012
  H   -0.45407846232846      0.77744721341263      1.17691092756397
  H   0.88972255359593     -1.25981537857167     -0.68917549042288
  N   2.05862494683643      0.17168342640542      0.27874373084384
  O   1.98952961031707      1.22701224406400      0.89995832133848
  O   3.04332859687744     -0.29272621367356     -0.28034706730766
  C   -1.71745752570345     -0.56616892257518      0.01773671257945
  H   -2.55708669653749      0.12977807841573      0.00693989596073
  H   -1.67927113253304     -1.09202675600104     -0.93899661660204
  H   -1.87768763188838     -1.29043226784856      0.81555258949735
  N   -0.31134504996050      1.22797809469730     -0.84581570336955
  O   -0.93238779149185      2.27129915092181     -0.68733507653423
  O   0.34924146541506      0.91624817032334     -1.83604854061555
