15
Coordinates from ORCA-job run
  C   1.03244017325350      0.21582316042268      0.38107030612604
  C   -0.48520005091656      0.18100351863642      0.22359750022942
  Cl  1.84542803135952      0.91125297544514     -1.00090510302284
  H   -0.88728196409592     -0.18485191979484      1.17208905201203
  H   1.30778671871116      0.77230688669364      1.27451619725017
  N   1.46495613917995     -1.21675621453618      0.63775161393628
  O   2.05675524436539     -1.83803548642884     -0.23070776238881
  O   1.11630068671615     -1.63464681270686      1.73841430071498
  C   -0.98602099055535     -0.62808425661718     -0.94835262464042
  H   -2.07252081028729     -0.57085875361250     -1.00218981682772
  H   -0.70436888238578     -1.67475131776088     -0.81668967982458
  H   -0.57549433157843     -0.26527061005534     -1.88885429542818
  N   -0.93119598638200      1.62249935259075      0.15950190802555
  O   -1.57637541839256      1.99038677348725     -0.81538822438582
  O   -0.60420855899179      2.31998270423675      1.11614662822389
