15
Coordinates from ORCA-job run
  C   1.08540628188110      0.20909280850736      0.19127665379842
  C   -0.43838228026953      0.22406854037857      0.27363626394760
  Cl  1.68848289758061      0.71794708698780     -1.36821621659439
  H   -0.69577799083036     -0.02444746353796      1.30672555523997
  H   1.51256246325825      0.84457263306018      0.96414465926908
  N   1.51485949281730     -1.20570017457065      0.53651435574017
  O   1.94366819127890     -1.94158604209360     -0.33815264381171
  O   1.33454165817472     -1.48852466008722      1.71779270052558
  C   -1.13897184331628     -0.67939556728711     -0.71231750548277
  H   -2.21842700499013     -0.58789773034982     -0.59832069146638
  H   -0.86069490712756     -1.71724015247538     -0.51846126714310
  H   -0.87900209618705     -0.42793537140863     -1.73891251116392
  N   -0.85210957621465      1.66899780451568      0.12281380516140
  O   -1.64512828127952      1.95847680583310     -0.76557314774387
  O   -0.35102700477580      2.44957148252767      0.92804998972393
