15
Coordinates from ORCA-job run
  C   1.10426078438771      0.16474098490423      0.10154643937323
  C   -0.40941783697282      0.31186070979280      0.22658747902859
  Cl  1.66244471206136      0.24764146797531     -1.55261653316079
  H   -0.63248600833810      0.32904657536374      1.29672625092346
  H   1.60815036758108      0.93057952049980      0.68749199011736
  N   1.45861792298095     -1.15699210355153      0.75926801660695
  O   1.79709010215890     -2.10689644857626      0.07108188963772
  O   1.31902009337263     -1.14022243784554      1.97907105020136
  C   -1.21487974052862     -0.73842064446199     -0.49944704184169
  H   -0.99687656579091     -0.74131746948580     -1.56577556016850
  H   -2.27922129715167     -0.54843070320479     -0.36614734752516
  H   -0.98800089745764     -1.72370912757877     -0.08724848131260
  N   -0.73491131379127      1.71051840024139     -0.24387477758806
  O   -1.54712581267101      1.84576910868241     -1.15146434841901
  O   -0.14766450984059      2.61583216724497      0.34280097412714
