15
Coordinates from ORCA-job run
  C   1.11261254273465      0.11002554903871      0.08901683476767
  C   -0.38902920806864      0.36829359010132      0.17439461837698
  Cl  1.67905271378476     -0.08178328200714     -1.55334168334174
  H   -0.61179642568933      0.55881796284641      1.22762877493921
  H   1.66350710925246      0.91877210028753      0.56460044584915
  N   1.37970644483318     -1.12282553901629      0.93352876967074
  O   1.24067343481344     -0.92144553175991      2.13686173983997
  O   1.65491644354323     -2.18220160749231      0.39263184323656
  C   -1.25778241656335     -0.72725268438776     -0.39493639975347
  H   -1.10679853027357     -1.64661921672133      0.17434847170186
  H   -1.02755970244112     -0.91577283247141     -1.44191735817845
  H   -2.30755599005311     -0.44655390369205     -0.31844049891700
  N   -0.62385491759086      1.69787733510190     -0.50285701200998
  O   0.01408358809300      2.64327440858947     -0.04664350117499
  O   -1.41817508637475      1.74539365158284     -1.43487504500652
