15
Coordinates from ORCA-job run
  C   0.79291260078168     -0.66206229989803      0.28076696829834
  C   -0.42017314900130      0.24243706302905      0.23072974264571
  Cl  0.80366646950994     -1.59129628439277      1.78214303622490
  H   -0.41761556519003      0.91200956781827      1.09004953840807
  H   0.84975090923562     -1.34906097163327     -0.55933594858123
  N   2.06616349453367      0.14930673549403      0.23319909894904
  O   3.03135072564512     -0.39730492779011     -0.28398516809751
  O   2.03105681987809      1.26709840177102      0.73689139376135
  C   -1.72981998330501     -0.51777287215854      0.10131501032728
  H   -2.55254263451742      0.19369532687845      0.02112255075186
  H   -1.71802807141558     -1.14924546916455     -0.79000537146551
  H   -1.89615088831081     -1.14293791874080      0.97780629683275
  N   -0.29494442122147      1.13583028848695     -0.97152732027748
  O   0.34665637918365      0.70371440691936     -1.92845435003384
  O   -0.89228268580616      2.20358895338093     -0.92171547774374
