15
Coordinates from ORCA-job run
  C   0.79703498387519     -0.31429566230409      0.84421341464175
  C   -0.57599191209404      0.18663893501069      0.40625684634246
  Cl  1.52442094289394      0.76793990360929      2.01657901571607
  H   -1.15561584279005      0.32991340016615      1.31951423889049
  H   0.68110482795911     -1.29769111953113      1.29888362215687
  N   1.72807455545156     -0.55313097710765     -0.33483154054720
  O   2.61771858062669      0.24444133706006     -0.57444158673481
  O   1.46419533817565     -1.57981692062983     -0.95534288620932
  C   -1.30996477924174     -0.70467786852165     -0.57864541717508
  H   -2.30895207807185     -0.29706335685338     -0.74691661352863
  H   -0.78251411110700     -0.76204722970750     -1.52807042890496
  H   -1.40945118005513     -1.71267489836552     -0.17309950519618
  N   -0.44980904106380      1.56229389983920     -0.18057934695493
  O   -1.00102278738087      2.48195846294165      0.41697141315904
  O   0.18077250282229      1.64821209439366     -1.23149122565560
