14

C	0.0	0.0	0.0
C	-0.544391	-0.193496	-1.435154
Br	2.006222	0.0	0.0
H	-1.657032	-0.111263	-1.260802
C	-0.361022	1.332622	0.491238
N	-0.546385	2.422955	0.888687
N	-0.50764	-1.010599	0.819164
H	-0.084041	-1.916525	0.699281
H	-0.715243	-0.759844	1.769789
C	-0.234534	-1.540152	-1.905553
N	-0.013319	-2.631758	-2.279097
C	-0.080236	0.817063	-2.377239
N	0.270624	1.630642	-3.148724
Br	-3.609846	0.0	0.0
