14

C	0.0	0.0	0.0
C	-0.538177	0.242806	-1.426808
Br	1.95363	0.0	0.0
H	-1.647655	0.224251	-1.287192
C	-0.354709	1.149367	0.858668
N	-0.561184	2.039932	1.598706
N	-0.484491	-1.272765	0.437501
H	-1.512263	-1.215258	0.415745
H	-0.19509	-1.438552	1.3953
C	-0.136651	-0.833197	-2.33087
N	0.179075	-1.66887	-3.092847
C	-0.146893	1.544764	-1.960291
N	0.137216	2.6017	-2.387792
Br	-3.575656	0.0	0.0
