16

C	0.0	0.0	0.0
C	-0.202461	0.136457	-1.549033
F	1.39425	0.0	0.0
H	0.155878	1.141021	-1.794268
H	-0.336093	-0.977275	0.345376
N	-0.620049	0.999898	0.773914
H	-0.49976	1.899917	0.317912
H	-1.639914	0.728153	0.67677
C	-1.540196	-0.139162	-2.199295
H	-2.337222	0.30698	-1.592644
H	-1.50928	0.202823	-3.240072
H	-1.741606	-1.210865	-2.172013
N	0.799234	-0.758148	-2.227841
O	1.593405	-0.249205	-3.02151
O	0.743646	-1.961391	-1.979612
F	-2.958432	0.0	0.0
