16

C	0.0	0.0	0.0
C	-0.428201	-0.386071	-1.426822
F	1.411825	0.0	0.0
H	0.478168	-0.785712	-1.89947
H	-0.273549	-0.813094	0.672024
N	-0.49765	1.278492	0.386414
H	-1.529216	1.053579	0.345063
H	-0.251643	1.405134	1.364381
C	-1.018037	0.732404	-2.256837
H	-1.130632	0.424077	-3.296776
H	-0.355062	1.597294	-2.19237
H	-1.988326	0.967989	-1.821487
N	-1.334313	-1.591669	-1.418641
O	-1.09238	-2.471362	-0.598195
O	-2.151761	-1.703157	-2.324062
F	-2.691934	0.0	0.0
