16

C	0.0	0.0	0.0
C	-0.468128	0.075725	-1.466767
F	1.404314	0.0	0.0
H	-1.534971	0.325629	-1.354733
H	-0.33353	-0.971511	0.367054
N	-0.506735	0.995873	0.873926
H	-1.530099	0.782689	0.799392
H	-0.367186	1.898007	0.429378
C	-0.26383	-1.22318	-2.210181
H	-0.941936	-1.950614	-1.762687
H	0.764437	-1.573198	-2.127527
H	-0.509882	-1.125261	-3.26864
N	0.24533	1.195649	-2.132986
O	-0.0413	2.341529	-1.774054
O	1.103404	0.945481	-2.982176
F	-2.762692	0.0	0.0
