16

C	0.0	0.0	0.0
C	-0.425004	0.249955	-1.461675
F	1.402815	0.0	0.0
H	0.495296	0.135922	-2.048088
H	-0.284632	-1.015594	0.273556
N	-0.494081	1.006894	0.881204
H	-0.259136	0.708835	1.824039
H	-1.524673	0.828332	0.748916
C	-1.087867	1.577341	-1.746972
H	-1.177261	1.742966	-2.821212
H	-0.489872	2.369356	-1.29399
H	-2.071485	1.534738	-1.282202
N	-1.265837	-0.889004	-1.983952
O	-2.107321	-0.641714	-2.839107
O	-0.950917	-2.024854	-1.63566
F	-2.691548	0.0	0.0
