15

C	0.0	0.0	0.0
C	-0.399058	-0.02182	-1.486671
Br	2.036743	0.0	0.0
H	0.293497	-0.66881	-2.028682
H	-0.264401	1.003935	-1.86786
N	-0.473869	1.187234	0.611559
H	-0.064029	2.014565	0.200058
H	-0.313866	1.194527	1.610081
N	-0.423224	-1.186778	0.642355
H	-0.716499	-1.009805	1.593447
H	-1.210156	-1.552645	0.10787
N	-1.729645	-0.581087	-1.598601
H	-2.450316	-0.077103	-1.075677
H	-2.029994	-0.64121	-2.561406
Cl	-4.568261	0.0	0.0
