15

C	0.0	0.0	0.0
C	-0.476887	-0.127562	-1.437344
Br	2.011868	0.0	0.0
H	-1.56812	-0.204818	-1.335651
H	-0.088693	-1.062879	-1.856136
N	-0.44921	1.254482	0.537454
H	-1.471875	1.163192	0.577533
H	-0.098173	1.37965	1.480381
N	-0.451219	-1.121435	0.741426
H	-0.176693	-1.997532	0.318085
H	-0.142783	-1.09196	1.703647
N	-0.025224	1.00118	-2.25377
H	-0.684204	1.105598	-3.017223
H	-0.131242	1.825119	-1.66866
Cl	-3.818071	0.0	0.0
