15

C	0.0	0.0	0.0
C	-0.298693	-0.396454	-1.467192
Br	2.038413	0.0	0.0
H	0.093172	-1.409895	-1.618847
H	0.289004	0.263666	-2.112185
N	-0.445516	1.289841	0.428906
H	-0.177211	1.998203	-0.24223
H	-1.463568	1.243551	0.489071
N	-0.521945	-0.942908	0.886766
H	-0.404196	-0.680149	1.854238
H	-0.226297	-1.888665	0.704467
N	-1.680646	-0.343222	-1.873857
H	-2.298771	-0.800697	-1.20842
H	-2.009279	0.614472	-1.882516
Cl	-4.29653	0.0	0.0
