15

C	0.0	0.0	0.0
C	-0.43956	0.384812	-1.41373
Br	1.963374	0.0	0.0
H	-0.031756	1.378106	-1.634254
H	-1.531654	0.461774	-1.349753
N	-0.43059	0.932993	1.017046
H	-1.45234	0.887533	1.009311
H	-0.158016	1.876337	0.757727
N	-0.469123	-1.331798	0.278094
H	-0.257507	-1.537908	1.249294
H	-1.489665	-1.28752	0.190542
N	0.011702	-0.577697	-2.424722
H	0.025842	-1.483363	-1.967373
H	-0.70592	-0.630783	-3.139986
Cl	-3.64704	0.0	0.0
