15

C	0.0	0.0	0.0
C	-0.301497	-0.377482	-1.472443
Br	2.037644	0.0	0.0
H	0.084527	-1.392317	-1.634853
H	0.290279	0.284607	-2.111582
N	-0.450598	1.282251	0.445603
H	-1.469325	1.232087	0.491512
H	-0.175641	2.001262	-0.211898
N	-0.522337	-0.955968	0.873874
H	-0.411079	-0.698517	1.843669
H	-0.213366	-1.896822	0.686236
N	-1.683402	-0.311124	-1.87583
H	-2.312629	-0.739417	-1.20046
H	-1.999026	0.648748	-1.928899
Cl	-4.329438	0.0	0.0
