15

C	0.0	0.0	0.0
C	-0.388305	0.013072	-1.469358
Br	2.066162	0.0	0.0
H	-1.476323	-0.113069	-1.468277
H	0.08479	-0.853499	-1.943426
N	-0.461535	1.147259	0.61822
H	-0.163394	1.285521	1.570377
H	-0.376889	1.959479	0.022883
N	-0.36651	-1.251057	0.604863
H	-1.3828	-1.183453	0.723623
H	0.065274	-1.331829	1.519128
N	-0.054789	1.300916	-2.074158
H	-0.676826	1.487876	-2.847938
H	0.898446	1.290152	-2.412999
Cl	-3.820599	0.0	0.0
