16
Coordinates from ORCA-job run
  C   -0.81362557644806     -0.06865493719818     -0.00785434564036
  C   0.60466565778078     -0.61242466613238     -0.33071900900126
  Br  -2.04104606486092     -0.74932240730938     -1.30938238142691
  H   0.57504167243889     -1.68776485610020     -0.15296271222503
  N   -0.87641949375787      1.46480136909244     -0.02338966363708
  O   -0.61141117859722      1.97847144325643     -1.09951001983525
  O   -1.16525510487614      2.02289213262334      1.02064860941263
  N   -1.28510329852175     -0.50130533590972      1.37926956993175
  O   -0.40176773599739     -0.90457255414930      2.12916123832741
  O   -2.47292993368993     -0.38487511612989      1.62627070720834
  N   1.61458006346764     -0.07397784617017      0.66104877478936
  O   1.57748840968927      1.13721750460151      0.85951569423670
  O   2.42285413208281     -0.87074925758199      1.10799450233185
  N   1.12813568153008     -0.33391300931841     -1.62141037359447
  H   0.83816062162337     -1.01736578399239     -2.30383940428532
  H   0.90663214813644      0.60154332041828     -1.93484118659235
