16
Coordinates from ORCA-job run
  C   -0.81068011364897      0.02641519764402     -0.04555588914563
  C   0.55217563700838     -0.63006141239460     -0.40173330395302
  Br  -2.09782769252034     -0.46543405731212     -1.37861308001852
  H   0.36866075180229     -1.70539477863899     -0.33075115911112
  N   -0.72791252129090      1.54350762151131      0.02952860361831
  O   0.40900843494999      1.99446792217428      0.14492625754746
  O   -1.77299428621785      2.16988395428590      0.00209764476756
  N   -1.33982351240969     -0.45901327668493      1.31457134428133
  O   -1.54499857559027     -1.65804820018580      1.37945608596924
  O   -1.48107098087294      0.38390646348166      2.18491630499976
  N   1.56665158024714     -0.33809942110983      0.71118767608605
  O   1.18539040230016     -0.62799315176816      1.84119970737899
  O   2.65076086409217      0.12020763060171      0.40076290053795
  N   1.12456778595519     -0.30841747720065     -1.64829395053437
  H   0.63747485321213     -0.72530206806503     -2.42593311564763
  H   1.28061737298351      0.68037505366123     -1.77776602677639
