15
Coordinates from ORCA-job run
  C   0.66326084737059     -0.39352271653039     -0.10325892570794
  C   -0.66913937388685      0.22748017501550     -0.59213529084489
  Cl  1.38165071427657     -1.28398113003130     -1.47868849725088
  H   -0.42409980737333      0.80535506129234     -1.48940522095766
  C   1.65498098579393      0.66272711069480      0.36990376453562
  H   1.83225593490733      1.38072118384355     -0.43389527439107
  H   2.60199332619154      0.18901051287119      0.62894427216396
  H   1.26829076462120      1.18688421208654      1.24561825471935
  C   0.36690039918443     -1.34815286539154      0.96562504045899
  N   0.08828322553836     -2.08003225176712      1.84181424411815
  C   -1.16845681684740      1.16936347973172      0.43124078143678
  N   -1.58826424853117      1.92602651908642      1.22657548825905
  N   -1.61686256579837     -0.80389715087974     -0.95580646047606
  H   -2.03206380045415     -1.21906489104596     -0.12946679834534
  H   -2.35872958499267     -0.41891724897600     -1.52606537771803
