15
Coordinates from ORCA-job run
  C   0.60765878710450     -0.40312404638710     -0.00932991244810
  C   -0.71854814986887      0.20644483909647     -0.51966946467671
  Cl  1.20744835964410     -1.49495589655271     -1.30987975031130
  H   -0.46300109931380      0.75225752893597     -1.44218761753776
  C   1.66578571637362      0.65957387487780      0.25531897007451
  H   1.82237868528727      1.25741975542745     -0.64501775842746
  H   1.34724701131577      1.30888184574188      1.07326101276096
  H   2.60789124618468      0.18394165442149      0.52863837782323
  C   0.36058439161258     -1.20543323142801      1.18739075527785
  N   0.20896611212915     -1.80736478623900      2.18471706287718
  C   -1.19522478370190      1.18993684054643      0.45959042223530
  N   -1.57746028000726      1.99026031820828      1.22886928499260
  N   -1.72250861049185     -0.82941714285880     -0.68535754932364
  H   -2.64039029141624     -0.41980559884786     -0.80483152911844
  H   -1.50882709485173     -1.38761595494229     -1.50251230419819
