15
Coordinates from ORCA-job run
  C   0.58440942607689     -0.30773924956813     -0.14530835193507
  C   -0.92556737682101      0.09233311021636     -0.20689002749493
  Cl  1.46240139230293      0.56968350062603     -1.43936635492871
  H   -1.41998459276972     -0.49880590196662      0.57442838068743
  C   1.19911933172378      0.04962386314867      1.20149389764968
  H   0.65632699301478     -0.45692365686059      2.00426065834120
  H   1.15991717798981      1.12839454105141      1.35436836169241
  H   2.24290898496148     -0.26307868190130      1.23189176475692
  C   0.70445147816081     -1.74359690345047     -0.38993051653543
  N   0.77433888603006     -2.90846064968515     -0.53157528663567
  C   -1.49050886104225     -0.32777762939451     -1.49702118952636
  N   -1.93727617197625     -0.65332672549379     -2.53244498168066
  N   -1.23565306512874      1.48126918425649      0.02296763079481
  H   -0.73927436908782      2.08248515027470     -0.62242553586099
  H   -1.03560923343476      1.75592004874691      0.97455155067538
