15
Coordinates from ORCA-job run
  C   0.71358621978453     -0.37233007740778     -0.28008325337894
  C   -0.77505333870682     -0.07980084924109     -0.59685050062438
  Cl  1.65018560096615     -0.16815537005009     -1.79621902586565
  H   -1.07618808464678     -0.77660424173082     -1.38495416704651
  C   1.27181652286637      0.55194677293299      0.79128940575703
  H   2.32220409627163      0.32114786310390      0.97041992262568
  H   0.71993591255044      0.40614089996421      1.72200306584336
  H   1.19120628200064      1.59057259729831      0.46472802480261
  C   0.81543261295329     -1.77156892417392      0.13495478741491
  N   0.91190905745383     -2.89346423876404      0.46917569024765
  C   -0.92003760268252      1.29050705198450     -1.11935931586511
  N   -1.08353816835882      2.40285665082711     -1.46045001879893
  N   -1.57027224991336     -0.33198344428133      0.59172251828420
  H   -1.68173054991837      0.50622156931123      1.14738213254475
  H   -2.48845631062023     -0.67648625977318      0.34624073405933
