15
Coordinates from ORCA-job run
  C   0.67119795777655     -0.39137462208948     -0.05560062746246
  C   -0.66600311181471      0.14972505390148     -0.62055103225847
  Cl  1.41119589303332     -1.42588303754309     -1.31377932804852
  H   -0.42204325048796      0.62104798272764     -1.57832730237431
  C   1.64477990507124      0.72713810837689      0.29635168266776
  H   2.59655882901027      0.30084529557898      0.61384319188914
  H   1.81765933185082      1.34921745949268     -0.58465920709118
  H   1.24465012076417      1.34382372762351      1.10307704354412
  C   0.38061456987040     -1.21889052652436      1.11590721007085
  N   0.10753824805270     -1.84779222010539      2.07032602313487
  C   -1.18583130152625      1.19505732990659      0.28555767784952
  N   -1.64804925445560      1.99826439398904      1.00857394140839
  N   -1.59838645855537     -0.92939253276285     -0.86497185333781
  H   -2.34239437869458     -0.62312754390399     -1.47855719863057
  H   -2.01248709989500     -1.25065886866766      0.00280977863866
