15
Coordinates from ORCA-job run
  C   0.70543005892428     -0.15216155807195     -0.07581864703120
  C   -0.83323570487125     -0.06205605379683     -0.21515035963770
  Cl  1.44955055116234      1.04029862112512     -1.19458645968347
  H   -1.24045409053756     -0.80984112272825      0.47558632208287
  C   1.15098077354248      0.14848951051829      1.34860144285033
  H   0.71740625552974     -0.58918135354853      2.02911783165121
  H   0.80670171974246      1.14180113142159      1.62932729962736
  H   2.23783743538668      0.09552788439312      1.41644018813910
  C   1.13845797227678     -1.48982220357025     -0.47992792233295
  N   1.46778304304649     -2.58385367594999     -0.75498001072943
  C   -1.25289756372135     -0.44186613877854     -1.57851973188033
  N   -1.64039207805341     -0.69268268987465     -2.65906817580115
  N   -1.30193212516092      1.24246595530697      0.21087600015190
  H   -1.10161630912487      1.93335929016385     -0.50295881862052
  H   -2.30461993814190      1.21852240339006      0.35006104121399
