15
Coordinates from ORCA-job run
  C   0.70362605766412     -0.08697158212114     -0.15263924406512
  C   -0.84365108122843     -0.10865464862932     -0.14582612994350
  Cl  1.24999115128467      1.26758103725537     -1.19846429376528
  H   -1.12787686363430     -0.95224831047928      0.49422473315847
  C   1.26118453503315      0.10509653042208      1.25107571391492
  H   0.95188616564877     -0.73138146728588      1.88358490318200
  H   2.35049535321332      0.13723434448074      1.21592574129761
  H   0.87283586232725      1.03275059152203      1.66676002255593
  C   1.19162998368945     -1.33736625919856     -0.73437558299549
  N   1.57468362587836     -2.36524885589027     -1.15614067097278
  C   -1.36395055412986     -0.38197026537524     -1.49985625708777
  N   -1.83412202000179     -0.54759537498983     -2.56395632738659
  N   -1.36156315668304      1.10515233271806      0.45592790010807
  H   -2.34167787008609      0.98608797023123      0.68020602416138
  H   -1.28149118897560      1.87653395734002     -0.19644653216185
