15
Coordinates from ORCA-job run
  C   0.61110281158986     -0.39742266831585     -0.02285230321455
  C   -0.73798177637952      0.18917552919743     -0.49839940461195
  Cl  1.17849730993238     -1.50597178833851     -1.32386899149286
  H   -0.51987975136007      0.72023607333929     -1.43898174579472
  C   1.66589005897350      0.68065468864787      0.18745451984772
  H   1.78504395229544      1.26495645752718     -0.72731102371014
  H   1.36820104586266      1.34013338417470      1.00505866414640
  H   2.62192717567999      0.21956381711426      0.43614294051795
  C   0.41401038712427     -1.18058555543985      1.19568764442797
  N   0.30507088436006     -1.76426118055474      2.20925163594250
  C   -1.19217017938599      1.18617815057713      0.47791249757711
  N   -1.55918550919760      1.99761341028194      1.24297747671462
  N   -1.73596701974328     -0.85970502501109     -0.61104634541003
  H   -2.66143764275299     -0.46138521400217     -0.70695518982621
  H   -1.54412174699868     -1.43018007919761     -1.42507037511381
