15
Coordinates from ORCA-job run
  C   0.70749876954722     -0.34715447418519     -0.28196106228814
  C   -0.77647223946552     -0.00172230786770     -0.58510589918376
  Cl  1.61886562388118     -0.24135331508084     -1.82158699768676
  H   -1.07908079438503     -0.61475646282544     -1.44608364906412
  C   1.32824955778027      0.57641023362464      0.75374319083877
  H   0.72607432288030      0.54312389181101      1.66219948561686
  H   2.34772339825664      0.25831111327788      0.97383344484724
  H   1.35242541145162      1.59633755522941      0.36690940633055
  C   0.73388021406881     -1.73815987726171      0.17249741734639
  N   0.70193969311807     -2.84897391910598      0.55468853187999
  C   -0.88051638891655      1.40420844392474     -0.98508396237949
  N   -0.99326987009949      2.53346340509087     -1.28519705802545
  N   -1.56219032806460     -0.22850026151976      0.62162054329682
  H   -1.81178863410173     -1.20799680747368      0.69103779372418
  H   -2.41333873595120      0.31876278236174      0.60748881474690
