15
Coordinates from ORCA-job run
  C   0.64629827153054     -0.13840344731658     -0.14370730015061
  C   -0.90698220580340     -0.04080396755718     -0.28808969831606
  Cl  1.39304288672709      1.20136371887974     -1.07318542064128
  H   -1.30954419200784     -0.90019172389925      0.26293963126547
  C   1.07658348184824     -0.03104678268264      1.31327686881327
  H   0.79022479953307      0.94106837275591      1.71551248811610
  H   0.60695352735154     -0.82579087381734      1.89953641314101
  H   2.15934710006723     -0.12949153855633      1.39231133982972
  C   1.09648626598270     -1.40778889168876     -0.71112653186148
  N   1.42948124606125     -2.45829117770521     -1.12015597243579
  C   -1.27964877107150     -0.21204567554853     -1.69941556071352
  N   -1.57660499250650     -0.33613248583628     -2.82818716520222
  N   -1.53005221151695      1.15128477483900      0.23047704970380
  H   -1.45946674850880      1.20192866622716      1.23715507690481
  H   -1.13611845768667      1.98534103190628     -0.18634121845320
