15
Coordinates from ORCA-job run
  C   0.70345947658451     -0.09539297890343     -0.12973665446979
  C   -0.84356868788168     -0.07271601343314     -0.18429972981144
  Cl  1.32768455997110      1.30248912080931     -1.06958178042081
  H   -1.17611133542162     -0.94243683345813      0.39461518156236
  C   1.20632666352077     -0.00122087629883      1.30446471184711
  H   2.29654233690457     -0.00099210546776      1.31588902737816
  H   0.82733581836989      0.91268190680060      1.75734589227142
  H   0.84664480776570     -0.86250880755045      1.87377393518071
  C   1.18200797229471     -1.32344579306222     -0.76399832963910
  N   1.54054661736166     -2.33886494714419     -1.23450687046463
  C   -1.31135663610703     -0.25619491413014     -1.57172667540821
  N   -1.67690281746647     -0.37856067739281     -2.68174996050203
  N   -1.35179124905895      1.11871513970824      0.46849397480407
  H   -2.34128380190855      1.01331929858951      0.65539186823495
  H   -1.23053372492860      1.92412848093344     -0.13437459056277
