15
Coordinates from ORCA-job run
  C   0.66873522311423     -0.38198121894519     -0.11591694642078
  C   -0.69288134339802      0.19595972380809     -0.57640295371584
  Cl  1.35568798791077     -1.30450234065500     -1.48661308101071
  H   -0.49196460562744      0.74338076766131     -1.50328035332336
  C   1.65445477334185      0.70899479117324      0.28506416395556
  H   1.28846224807575      1.25507460535463      1.15622309144432
  H   1.78788782056427      1.40232440843706     -0.54820666719768
  H   2.61982424809798      0.26325927289531      0.52524132990519
  C   0.43130464761131     -1.30589954279310      0.99391530686228
  N   0.20151038835897     -2.01581356859075      1.90175430111606
  C   -1.17351854271259      1.16424059279491      0.43136188467004
  N   -1.60166543055206      1.91014885523951      1.23258200198867
  N   -1.63353160023148     -0.86495645965372     -0.86515082027225
  H   -2.01015000004062     -1.25498668724657     -0.00862674606039
  H   -2.40315581451292     -0.51524319947972     -1.42094451194111
