15
Coordinates from ORCA-job run
  C   0.61309382518049     -0.39365225765005     -0.02740529674035
  C   -0.74502043208111      0.18198845099232     -0.49071328247932
  Cl  1.17093771286811     -1.50918885389086     -1.32650206005218
  H   -0.54124252072102      0.70902325331524     -1.43674178887646
  C   1.66449783860427      0.69170838976940      0.16127718479378
  H   2.62532541061298      0.23786495119119      0.40464364546670
  H   1.37225848104103      1.35822269427198      0.97521704750816
  H   1.77119488605021      1.26708636430782     -0.76068142357887
  C   0.43490026738729     -1.16826836836540      1.19947078793182
  N   0.33990209920383     -1.74526423353692      2.21826293442993
  C   -1.19380318374383      1.18145459443412      0.48566369649622
  N   -1.55691589136715      1.99400396138007      1.25139801830964
  N   -1.73784031883177     -0.87335225551177     -0.58502414144748
  H   -1.55143931468537     -1.44929431632915     -1.39646549001140
  H   -2.66684885951796     -0.48133237437799     -0.67339983175019
