15
Coordinates from ORCA-job run
  C   0.57829265852896     -0.37818567312175     -0.03915953691240
  C   -0.75361944430017      0.22997534039546     -0.58371375390658
  Cl  1.13159628002656     -1.57794934063020     -1.25825290279748
  H   -0.50494510237197      0.66266967371273     -1.56006630543055
  C   1.66728884362479      0.66798070575377      0.14959342181002
  H   1.82828865922962      1.19932933511952     -0.79112556521113
  H   1.37390812482184      1.38117768908423      0.92211643351551
  H   2.60110740157092      0.18846764215483      0.44474747194073
  C   0.29472315795321     -1.09050769126384      1.20485505306869
  N   0.02325340659564     -1.63439377355431      2.21085705538682
  C   -1.15594227071556      1.32617216207447      0.30865470189837
  N   -1.45579760953616      2.19301695438138      1.04139285930245
  N   -1.86423109711615     -0.67314874006833     -0.75789505747540
  H   -1.62795622420451     -1.40406325020213     -1.41655326300841
  H   -2.13696678410702     -1.09254103383582      0.12354938781937
