15
Coordinates from ORCA-job run
  C   0.72678223008347     -0.36378032900074     -0.25373984410060
  C   -0.74940185054698     -0.07586342288665     -0.62817339607874
  Cl  1.72504822737027     -0.13107044530728     -1.72603606832785
  H   -1.01406112550617     -0.76571591104432     -1.43519495275525
  C   1.23307071832412      0.54773199252996      0.85372291992181
  H   2.27705988763402      0.32192320724301      1.07225705450206
  H   0.64445831551582      0.38329625450019      1.75848808698315
  H   1.15778246246937      1.59085484383795      0.54002895518853
  C   0.82112015564664     -1.76882441269155      0.14335197004723
  N   0.91292411775520     -2.89620878533155      0.46011203913249
  C   -0.88079554497487      1.29832385470020     -1.14333634201459
  N   -1.03502613342067      2.41139522706992     -1.48648736203306
  N   -1.59095710830685     -0.34505904048657      0.52408284800736
  H   -2.49531081819070     -0.69501585208676      0.23810608105005
  H   -1.73269353385267      0.48701281895422      1.08181801047741
