15
Coordinates from ORCA-job run
  C   0.65093477475095     -0.10980142531297     -0.15081742155735
  C   -0.90257839437443     -0.02458422878058     -0.30404602534379
  Cl  1.38159796876598      1.34241555888441     -0.90709140521450
  H   -1.29456477883445     -0.95217150350624      0.13202251955053
  C   1.06217944165099     -0.16555171196271      1.31459263775560
  H   0.60010446632317     -1.03062855958557      1.79836922376267
  H   0.75397856803344      0.74859326433270      1.82262453917047
  H   2.14558971690884     -0.25464805407427      1.39665766923949
  C   1.13123102270260     -1.29642748181190     -0.85573754502621
  N   1.48842191599172     -2.28547799212898     -1.38124670836585
  C   -1.25404687738770     -0.02778660176204     -1.73097309238838
  N   -1.53434599374158     -0.01370104563901     -2.87079563760956
  N   -1.55562770707839      1.08372899646408      0.34658945582845
  H   -1.49509874661927      1.01524106643930      1.35286573126101
  H   -1.17777537709188      1.96979971844377      0.03598605893744
