15
Coordinates from ORCA-job run
  C   0.66730398799366     -0.07503816201615     -0.07838516956280
  C   -0.85805806067362     -0.01044059497970     -0.41357311781566
  Cl  1.42875442618757      1.47047278257330     -0.57558906176003
  H   -1.26556192910946     -0.98819204667555     -0.12619198809930
  C   0.89960035156006     -0.28603626752796      1.41192417417169
  H   0.49652575064735      0.55608478485766      1.97477147621263
  H   0.41632258166445     -1.21174042762993      1.73597773814546
  H   1.96753582032802     -0.35672298251415      1.61876001113546
  C   1.27631763608306     -1.16162914561664     -0.84245039904013
  N   1.73821738329198     -2.07462056435704     -1.42133681720687
  C   -1.03514393504036      0.12583771452866     -1.86626530996184
  N   -1.17717223656741      0.24130785967594     -3.02561317458942
  N   -1.62535341925241      1.00673481597464      0.26088340607247
  H   -1.24481029551891      1.92937838335254      0.09222458152354
  H   -1.68347806159398      0.83360385035439      1.25486365077481
