15
Coordinates from ORCA-job run
  C   0.59052960045558     -0.35961546220721     -0.02745278470013
  C   -0.74791339573567      0.20851655407792     -0.59838341423392
  Cl  1.20567529432706     -1.53862639586973     -1.23771817918086
  H   -0.49241166413910      0.65012701849247     -1.56889181436733
  C   1.64268243556353      0.71906337662586      0.18541687607731
  H   2.58479771949606      0.26791245759312      0.49806169968073
  H   1.31220360323764      1.42079852080955      0.95336580717412
  H   1.80575484415883      1.25763144792019     -0.75071829152710
  C   0.30338470352546     -1.08479306619619      1.20842210705979
  N   0.02535558270099     -1.64291600993519      2.20466576833783
  C   -1.20183927007236      1.28989436567379      0.28716888195836
  N   -1.54221718404955      2.14588582232811      1.01508661877797
  N   -1.82670869057834     -0.72778833318413     -0.79657912331565
  H   -1.55451005015077     -1.44981871313304     -1.45105723563878
  H   -2.10378352873936     -1.15727158299552      0.07861308389766
