15
Coordinates from ORCA-job run
  C   0.72899331766245     -0.35826350465342     -0.25640852715130
  C   -0.74672555206464     -0.07008982703443     -0.63252754176623
  Cl  1.73140977207846     -0.10343147991944     -1.72220329141199
  H   -1.00567268794195     -0.74929532483390     -1.45043481513764
  C   1.22873669880836      0.54038137987355      0.86437880677370
  H   2.27218483821304      0.31390983220289      1.08480484290034
  H   0.63644925333410      0.36387720670075      1.76438795126821
  H   1.15285728215789      1.58701470151378      0.56306693492198
  C   0.82621763766939     -1.76795121602683      0.12283271854793
  N   0.91756531276148     -2.89866473715436      0.42752416247534
  C   -0.88060401210029      1.31157037361556     -1.12758505343015
  N   -1.03850646484422      2.43027044728578     -1.44983178144366
  N   -1.59194582296387     -0.35842294216778      0.51229555651399
  H   -2.49440122752335     -0.70577926956555      0.21760556118840
  H   -1.73755834524686      0.46487436016343      1.08209447575110
