15
Coordinates from ORCA-job run
  C   0.60893585580233     -0.39990373027669     -0.03048330889983
  C   -0.73106997381324      0.21277066396047     -0.49903922194505
  Cl  1.18277163224316     -1.46549715017009     -1.36437283828686
  H   -0.49926922378493      0.77561957890166     -1.41757079219470
  C   1.66881328000720      0.66228625598479      0.22871922972214
  H   1.80226247280268      1.27658835030661     -0.66424192025646
  H   2.61878888647127      0.18585392124519      0.47172586650159
  H   1.36685614721994      1.29572251143376      1.06523820536712
  C   0.39309526325009     -1.22538785464478      1.15652543791679
  N   0.26848751311358     -1.84756610937642      2.14506518107334
  C   -1.18924945537209      1.17693250741547      0.50794997114770
  N   -1.56059592436675      1.96052908504239      1.29957748998124
  N   -1.73453430222159     -0.82438840759288     -0.65947368583541
  H   -1.53858073655327     -1.36656765601548     -1.49170437423851
  H   -2.65671143479840     -0.41699196621400     -0.74891524005309
