15
Coordinates from ORCA-job run
  C   0.58867506320529     -0.36417453924826     -0.02427511544798
  C   -0.74689303957467      0.20637976108830     -0.60015303017205
  Cl  1.19310335250689     -1.56306079602067     -1.21982421374905
  H   -0.49005168339605      0.63491743931026     -1.57623316812198
  C   1.64866128786090      0.70975338823073      0.17299323941603
  H   1.32422235928039      1.42378777027376      0.93224345908538
  H   1.81402911843714      1.23496009441371     -0.77039875120373
  H   2.58817850262604      0.25615069364344      0.49009651000503
  C   0.29734320168986     -1.07062760979966      1.22126730467568
  N   0.01329539218735     -1.61222318053350      2.22505161935751
  C   -1.19206110026882      1.30119750277132      0.27320327652321
  N   -1.52659625171891      2.16750086625652      0.99144888544732
  N   -1.83242060330968     -0.72486058726608     -0.78494594094653
  H   -2.11323856835014     -1.13871224096431      0.09666260057207
  H   -1.56524703117557     -1.45898856215557     -1.42813667544091
