15
Coordinates from ORCA-job run
  C   0.67008101750307     -0.37484201458068     -0.13079418747846
  C   -0.68121612484557      0.24031372078743     -0.57350207811215
  Cl  1.37839507282671     -1.20375451455597     -1.54908222237624
  H   -0.46148236049884      0.85490657541137     -1.45271312349450
  C   1.65217682898796      0.68131603014099      0.36214473550386
  H   1.27103862781283      1.16961209654632      1.26081141569260
  H   1.80558205552052      1.42833291462932     -0.41989570817230
  H   2.61057016379282      0.21475775691768      0.59068615247768
  C   0.40891999889537     -1.37131064426021      0.90869435085449
  N   0.15931639822311     -2.13990961892062      1.76184267549436
  C   -1.17996603360698      1.12996362368925      0.49600701351622
  N   -1.62643087583899      1.80679400520826      1.34694086590198
  N   -1.61814429652714     -0.79286170827029     -0.95826350276245
  H   -2.37579188815380     -0.40075644121227     -1.50219159392605
  H   -2.01204858409107     -1.24456178153059     -0.14068479311904
