15
Coordinates from ORCA-job run
  C   0.59146906424960     -0.35954439246116     -0.02487335347082
  C   -0.74910964159306      0.20029402703082     -0.59942526714310
  Cl  1.20331784419343     -1.55522574415528     -1.21998446016622
  H   -0.49670512394753      0.63059523517672     -1.57588628879216
  C   1.64355179808545      0.72263668267920      0.16956683075325
  H   1.31491324000245      1.43475215576116      0.92879469278295
  H   1.80319980889018      1.24827666457549     -0.77455524870353
  H   2.58710941866415      0.27655831076036      0.48533608037049
  C   0.30734764994269     -1.06680579907340      1.22190811997620
  N   0.02997109953553     -1.60924202938707      2.22707297026555
  C   -1.20199818253850      1.29133488906606      0.27466682373169
  N   -1.54437706789800      2.15112379719507      0.99712944785768
  N   -1.82763681470163     -0.73932806332766     -0.78275151417368
  H   -1.55582130996046     -1.47142653193515     -1.42623019225212
  H   -2.10423178292431     -1.15499920190514      0.09923135896380
