15
Coordinates from ORCA-job run
  C   0.67231628831841     -0.34030319307066     -0.26925166219199
  C   -0.79309417786826     -0.00300766200161     -0.70007737156617
  Cl  1.71711041815474     -0.20162495052039     -1.71875534312059
  H   -1.01005596233807     -0.62211543456161     -1.57719696284905
  C   1.20458670080475      0.57384087052153      0.82483873153870
  H   2.22258241349772      0.28596346187550      1.08854254811071
  H   0.58264768315782      0.49417212366831      1.71944956272353
  H   1.20935894051023      1.60644871805778      0.47277104174468
  C   0.67643021150522     -1.73512782338400      0.17205677803130
  N   0.61981316145008     -2.84637413651463      0.55060878259840
  C   -0.85185512721283      1.40427423422534     -1.11533231382744
  N   -0.88993795692404      2.54135252563029     -1.40406625603873
  N   -1.81368868123219     -0.25113842952337      0.29121798662287
  H   -1.69842796751504      0.32261468444619      1.11552165697171
  H   -1.84978594430856     -1.22897498884869      0.54967282125208
