15
Coordinates from ORCA-job run
  C   0.58731998444241     -0.36510930414645     -0.02979360447452
  C   -0.73860854412673      0.23101890855896     -0.60148325763439
  Cl  1.20301274064682     -1.52286603893129     -1.25986061048413
  H   -0.46776921000458      0.69421054683003     -1.55776061758937
  C   1.64851141587310      0.69682111267433      0.21926532849378
  H   1.31676325585573      1.38488651178872      0.99909056587837
  H   2.58213243774611      0.22840176341278      0.53219830930424
  H   1.82822274174669      1.25433922123995     -0.70266133166597
  C   0.27815783609573     -1.11488574066494      1.18587273010620
  N   -0.01822091462177     -1.69204261887529      2.16589910782077
  C   -1.19162803004227      1.29424194175822      0.30630548213060
  N   -1.53495196227482      2.13092614230545      1.05500126954385
  N   -1.82484305209226     -0.68847472228798     -0.83469107517344
  H   -1.55278486255366     -1.39700146284306     -1.50388628537765
  H   -2.11631383669050     -1.13646626081943      0.02650398912166
