19

C	0.0	0.0	0.0
C	-0.453498	0.205073	-1.460585
Cl	1.780529	0.0	0.0
H	0.236103	-0.382067	-2.07364
N	-0.518517	0.842771	1.013355
H	-0.425111	1.810684	0.736467
H	-1.49932	0.624069	1.172398
N	-0.385474	-1.449884	0.370272
O	-1.201044	-1.607805	1.267968
O	0.119801	-2.333146	-0.311813
C	-0.330552	1.679071	-1.838895
H	-1.12157	2.263933	-1.362851
H	0.642931	2.100025	-1.572802
H	-0.458362	1.787332	-2.918332
C	-1.872255	-0.29632	-1.700304
H	-2.176893	-0.030114	-2.716421
H	-1.938517	-1.382473	-1.615988
H	-2.622923	0.12312	-1.025591
Br	-4.99963	0.0	0.0
