15

C	0.0	0.0	0.0
C	-0.386181	-0.06289	-1.473557
F	1.424459	0.0	0.0
H	-1.477665	-0.088234	-1.498554
H	-0.314675	0.950685	0.432556
N	-0.481812	-1.072101	0.795706
H	-1.451714	-0.84845	1.022345
H	-0.513284	-1.892269	0.195452
N	0.127653	-1.315542	-2.011063
H	-0.159225	-1.369868	-2.980785
H	1.141622	-1.274678	-1.993724
N	0.067838	1.099853	-2.249492
H	1.00031	1.344992	-1.930028
H	-0.539618	1.88447	-2.034092
Cl	-3.608201	0.0	0.0
