15

C	0.0	0.0	0.0
C	-0.479699	-0.108651	-1.440095
F	1.385042	0.0	0.0
H	-1.552464	0.101611	-1.408592
H	-0.292376	0.986138	0.378564
N	-0.488026	-1.102643	0.779493
H	-0.291497	-0.923748	1.757502
H	-1.506935	-1.076505	0.676859
N	-0.194525	-1.453942	-1.960897
H	-0.113668	-2.078054	-1.163886
H	-1.000001	-1.766024	-2.491018
N	0.167064	0.948287	-2.20926
H	1.120854	0.640484	-2.370399
H	-0.281826	0.990379	-3.116674
Cl	-3.682022	0.0	0.0
