15

C	0.0	0.0	0.0
C	-0.440733	0.031925	-1.487464
F	1.384397	0.0	0.0
H	0.477128	0.054081	-2.082781
H	-0.316225	0.932568	0.472536
N	-0.464976	-1.093265	0.790959
H	-0.48508	-1.912575	0.193895
H	-1.430378	-0.901342	1.045168
N	-1.150357	1.287848	-1.727363
H	-2.022526	1.244262	-1.198554
H	-1.416255	1.320003	-2.707244
N	-1.140513	-1.208567	-1.822067
H	-1.25773	-1.247073	-2.829093
H	-2.07321	-1.150262	-1.411936
Cl	-3.783749	0.0	0.0
