15

C	0.0	0.0	0.0
C	-0.451654	-0.179747	-1.451985
F	1.382298	0.0	0.0
H	-1.543354	-0.109321	-1.451335
H	-0.299536	1.000978	0.34315
N	-0.493391	-1.070499	0.816955
H	-1.513542	-1.025756	0.732738
H	-0.267179	-0.8809	1.78726
N	0.063941	-1.458881	-1.928401
H	-0.48616	-1.731388	-2.733757
H	-0.089891	-2.139986	-1.192826
N	0.06038	0.855701	-2.341685
H	-0.353234	1.745011	-2.080785
H	1.062507	0.912406	-2.192715
Cl	-3.655081	0.0	0.0
