15

C	0.0	0.0	0.0
C	-0.315133	-0.328298	-1.520527
F	1.420854	0.0	0.0
H	0.668002	-0.318826	-1.998753
H	-0.305643	1.02556	0.2197
N	-0.511897	-0.871352	0.99573
H	-1.451888	-0.550599	1.207435
H	-0.608076	-1.788427	0.571106
N	-1.156896	0.63634	-2.224935
H	-2.045715	0.658978	-1.727097
H	-0.756407	1.564922	-2.151901
N	-0.847582	-1.682447	-1.667168
H	-0.606334	-1.984416	-2.605232
H	-1.862344	-1.609426	-1.665931
Cl	-3.422911	0.0	0.0
