15

C	0.0	0.0	0.0
C	-0.52003	-0.141147	-1.431466
F	1.423801	0.0	0.0
H	0.311347	0.12139	-2.094706
H	-0.272998	0.983494	0.381972
N	-0.511144	-1.007489	0.835722
H	-0.231274	-0.88769	1.796143
H	-0.251602	-1.915896	0.48086
N	-1.585289	0.830479	-1.613563
H	-2.355265	0.626206	-0.966257
H	-1.98182	0.709296	-2.53972
N	-0.84329	-1.554509	-1.687165
H	-1.761187	-1.723568	-1.27797
H	-0.936873	-1.68474	-2.688214
Cl	-4.462397	0.0	0.0
