15

C	0.0	0.0	0.0
C	-0.484373	-0.221921	-1.439324
F	1.382522	0.0	0.0
H	-1.499222	-0.621112	-1.379805
H	-0.297858	0.991744	0.36362
N	-0.451125	-1.096465	0.813099
H	-0.214748	-0.907964	1.780928
H	-1.470603	-1.087	0.750491
N	0.338483	-1.176864	-2.168248
H	1.303044	-0.882499	-2.052697
H	0.251468	-2.068392	-1.69163
N	-0.433406	1.050978	-2.156899
H	-1.20898	1.609861	-1.811937
H	-0.646155	0.830798	-3.124373
Cl	-3.600813	0.0	0.0
