15

C	0.0	0.0	0.0
C	-0.404926	0.420538	-1.408608
F	1.418693	0.0	0.0
H	0.032836	-0.33951	-2.084279
H	-0.325434	0.749646	0.723515
N	-0.509422	-1.27016	0.342979
H	-0.064299	-2.004507	-0.189823
H	-0.451618	-1.462524	1.331924
N	0.134648	1.757989	-1.634084
H	-0.221784	2.072841	-2.527685
H	1.144533	1.720005	-1.672229
N	-1.816252	0.473591	-1.679776
H	-2.298545	1.067211	-1.01158
H	-2.251999	-0.430652	-1.54042
Cl	-4.724319	0.0	0.0
