18

C	0.0	0.0	0.0
C	-0.580334	-0.006537	-1.408551
Br	1.974399	0.0	0.0
H	-1.686017	0.004952	-1.178469
C	-0.474994	1.249642	0.717525
H	-1.575002	1.193977	0.70345
H	-0.141915	2.150869	0.204407
H	-0.115153	1.25278	1.749848
C	-0.476788	-1.237625	0.736996
H	-0.131982	-1.21991	1.773967
H	-0.126241	-2.15758	0.263232
H	-1.578069	-1.189105	0.710434
C	-0.267963	-1.247882	-2.135147
N	-0.029262	-2.197665	-2.787485
N	-0.230671	1.186463	-2.17098
H	0.720797	1.098737	-2.51563
H	-0.851755	1.258061	-2.96985
H	-3.216669	0.0	0.0
