18

C	0.0	0.0	0.0
C	-0.386722	-0.220361	-1.493318
Br	1.965979	0.0	0.0
H	0.34899	-0.920082	-1.910721
C	-0.5315	1.298407	0.570686
H	-0.23418	1.395325	1.618486
H	-0.169154	2.168246	0.019473
H	-1.628246	1.245046	0.514893
C	-0.468497	-1.182961	0.833132
H	-0.061721	-1.102968	1.84531
H	-1.562627	-1.153011	0.871383
H	-0.151691	-2.129648	0.391406
C	-0.195523	1.04168	-2.252262
N	-0.072774	2.003845	-2.917439
N	-1.703377	-0.809563	-1.616069
H	-2.039443	-0.704624	-2.567562
H	-2.441036	-0.390114	-0.974436
H	-3.564335	0.0	0.0
