18

C	0.0	0.0	0.0
C	-0.387922	0.038255	-1.508388
Br	1.969423	0.0	0.0
H	0.357798	-0.563461	-2.042168
C	-0.531588	1.181102	0.783602
H	-0.165855	2.13143	0.391859
H	-0.239699	1.095109	1.833706
H	-1.628363	1.140147	0.712997
C	-0.465634	-1.307612	0.62027
H	-0.148237	-2.165393	0.024597
H	-0.05752	-1.399435	1.630786
H	-1.559763	-1.287051	0.664607
C	-0.223706	1.416338	-2.03491
N	-0.134864	2.481775	-2.524156
N	-1.695335	-0.543959	-1.731582
H	-2.024252	-0.295822	-2.659407
H	-2.439064	-0.233982	-1.037465
H	-3.559165	0.0	0.0
