18

C	0.0	0.0	0.0
C	-0.581313	-0.045076	-1.405909
Br	1.974453	0.0	0.0
H	-1.687614	-0.031648	-1.174993
C	-0.475413	1.266365	0.6833
H	-0.143568	2.154911	0.149424
H	-1.573885	1.208908	0.666102
H	-0.120559	1.297116	1.716023
C	-0.47597	-1.218841	0.764799
H	-1.575936	-1.170671	0.731892
H	-0.125056	-2.148986	0.314102
H	-0.135972	-1.177176	1.801824
C	-0.264569	-1.304354	-2.098949
N	-0.048356	-2.277479	-2.723507
N	-0.233857	1.132441	-2.19318
H	-0.819745	1.158532	-3.019527
H	0.732531	1.062684	-2.49574
H	-3.211131	0.0	0.0
