18

C	0.0	0.0	0.0
C	-0.375967	0.000648	-1.513109
Br	1.969327	0.0	0.0
H	0.371974	-0.619484	-2.023438
C	-0.530701	1.202258	0.751431
H	-0.238146	1.143779	1.803644
H	-1.627503	1.158512	0.681845
H	-0.163884	2.141858	0.334587
C	-0.472662	-1.289262	0.650463
H	-1.567138	-1.26024	0.68819
H	-0.070977	-1.357157	1.6657
H	-0.1565	-2.163759	0.07842
C	-0.196793	1.363691	-2.07339
N	-0.090952	2.419813	-2.579698
N	-1.684571	-0.579592	-1.734415
H	-2.427	-0.258288	-1.044263
H	-2.010096	-0.341702	-2.665845
H	-3.533075	0.0	0.0
