16

C	-0.139916	-0.197054	-1.408222
C	0.0727	-0.034407	0.09587
Cl	0.049156	-1.915711	-1.852387
H	1.11623	-0.313347	0.252975
H	0.00629	1.040887	0.288475
N	-1.625797	0.198864	-1.667203
O	-1.848436	1.401506	-1.526124
O	-2.478042	-0.64079	-1.930197
N	0.682979	0.581638	-2.245455
H	0.513311	1.553725	-1.997304
H	1.714622	0.399958	-1.9206
C	-0.894597	-0.794034	0.994384
H	-1.924237	-0.449718	0.85932
H	-0.868127	-1.865443	0.790408
H	-0.630078	-0.64111	2.044591
H	3.025193	0.262451	-1.262579
