15

C	-0.248567	0.105152	0.068765
C	-0.304146	0.397339	-1.434541
F	0.589841	-1.007743	0.28808
H	0.72141	0.572588	-1.791724
H	-1.292012	-0.156465	0.343761
C	0.308147	1.21278	0.853421
N	0.759257	2.11129	1.461987
C	-1.191382	1.612472	-1.668791
H	-2.170559	1.347374	-1.261278
H	-0.804673	2.515669	-1.187751
H	-1.277215	1.787192	-2.743707
N	-0.888405	-0.738942	-2.140283
H	-1.796387	-0.861147	-1.647874
H	-0.328993	-1.556473	-1.916094
F	-2.886006	-0.491734	-0.33907
