15

C	-0.311398	0.056935	-1.483979
C	0.0	0.0	0.0
F	-1.620173	0.521988	-1.746938
H	1.099986	0.0	0.0
H	-0.364739	0.943356	0.422393
C	0.704871	0.970254	-2.149669
H	0.511868	1.992759	-1.813242
H	0.63494	0.933373	-3.238745
H	1.694006	0.671739	-1.77658
C	-0.249356	-1.296653	-2.073461
N	-0.208158	-2.37189	-2.543178
N	-0.62935	-1.149289	0.667118
H	-0.904671	-0.873726	1.601231
H	0.096507	-1.84832	0.783982
F	2.74	0.0	0.0
