15

C	-0.306163	0.062283	-1.486488
C	0.0	0.0	0.0
F	-1.656703	0.395405	-1.741689
H	1.093421	0.0	0.0
H	-0.423692	-0.90772	0.44795
C	0.607797	1.081557	-2.137412
H	0.505551	1.083554	-3.225513
H	0.33653	2.057478	-1.731767
H	1.625865	0.836058	-1.810274
C	-0.118993	-1.272406	-2.090483
N	-0.007468	-2.337479	-2.572588
N	-0.425013	1.246542	0.639179
H	0.298427	1.504931	1.297035
H	-1.295301	1.129586	1.139331
F	2.705071	0.0	0.0
