14
Coordinates from ORCA-job run
  C   0.98528122023594     -0.39727859811074      0.36692825207120
  C   -0.39745217072337     -0.58370072656330     -0.24938556403411
  Br  2.28514193636511     -1.47710692737854     -0.53578182842630
  H   -0.56967326249156     -1.66000725318818     -0.32166555677677
  H   0.98082581826034     -0.68477445369466      1.41765614771680
  N   1.37634957128391      1.06796930315461      0.35167026085538
  O   0.42577534678959      1.84183638732061      0.46219435938354
  O   2.55612345544286      1.37053670337401      0.31135530861709
  N   -0.54136760376055      0.02457272120473     -1.51051776628342
  H   -1.33607326083855     -0.34300995213181     -2.01260506710051
  H   -0.63807817366296      1.02759432862536     -1.42720553704285
  N   -1.45177193598225     -0.14630909759621      0.80157504033152
  O   -1.28094303833916     -0.56093830293375      1.94349771695537
  O   -2.39513790257934      0.52061586791786      0.40328423373306
