14
Coordinates from ORCA-job run
  C   1.01341181885706      0.09009640396248     -0.12694282655806
  C   -0.38829190057493     -0.50798612711366     -0.11020421999084
  Br  1.14766575459090      1.57747225307844     -1.32717119376687
  H   -0.43633887564992     -1.21295115078217      0.72237155697022
  H   1.69930815022699     -0.68351967608743     -0.46988578210994
  N   1.47835398463775      0.43004441365657      1.28284408590996
  O   1.44549716965217     -0.53857101834490      2.03447306443215
  O   1.86552712849896      1.55362547750032      1.54701827761185
  N   -0.67967411055775     -1.14956249130307     -1.33376657694173
  H   -0.76506156510166     -0.48057211864548     -2.08862556186822
  H   -1.53913428023889     -1.67787371294594     -1.27204493546407
  N   -1.37914705738780      0.60400300786295      0.27951643361398
  O   -1.14104312675030      1.18047103141736      1.33569883727279
  O   -2.32207309020259      0.81532370774452     -0.47328115911121
