14
Coordinates from ORCA-job run
  C   1.01106137545290      0.04114627857902     -0.14561062331950
  C   -0.40339901672376     -0.50658763921061     -0.00485707403651
  Br  1.16883040937177      1.24369234184795     -1.62897448497427
  H   -0.46285846835695     -1.03534720130431      0.94934242681371
  H   1.67261944437856     -0.80446776609376     -0.32979556732114
  N   1.50344127772201      0.64937407997748      1.16078855327114
  O   1.99541539241716      1.76217660323030      1.17011931426400
  O   1.40821003241603     -0.12374278259766      2.10745355790841
  N   -0.71911519764289     -1.36929551848171     -1.07452091804979
  H   -0.82360437684326     -0.86100602768919     -1.94305094601018
  H   -1.56026486607976     -1.89709176461558     -0.88979088505015
  N   -1.36977899975906      0.68057542565504      0.16806500762454
  O   -1.04398878391641      1.52672588636540      0.99206555583846
  O   -2.37556822243635      0.69284808433765     -0.53223391695871
