18

C	-0.269749	0.006353	-1.458467
C	-0.029945	-0.008861	0.066358
F	-1.667358	0.074731	-1.659462
H	1.060449	0.07633	0.134439
N	0.33806	1.135582	-2.095502
H	0.02652	1.979012	-1.619597
H	1.351023	1.030475	-1.873762
C	0.2446	-1.255276	-2.110896
H	-0.301335	-2.134303	-1.76302
H	1.311798	-1.337575	-1.880514
H	0.112459	-1.150915	-3.188934
C	-0.536781	-1.256718	0.792991
H	-1.585722	-1.446809	0.552574
H	0.059682	-2.122621	0.501734
H	-0.444471	-1.13596	1.875356
C	-0.624299	1.187591	0.658638
N	-1.107866	2.136408	1.156314
H	2.768765	0.324791	-0.902275
