18

C	-0.307364	0.05619	-1.466439
C	-0.037935	0.154103	0.051632
F	-0.219409	1.419188	-1.909083
H	1.006963	0.480009	0.136099
N	0.664077	-0.716385	-2.115026
H	0.28734	-1.541382	-2.5573
H	1.508548	-0.956852	-1.534393
C	-1.726721	-0.356051	-1.814851
H	-1.833758	-0.301772	-2.901119
H	-2.449737	0.324306	-1.360834
H	-1.934798	-1.376741	-1.489197
C	-0.147617	-1.191274	0.770708
H	0.66645	-1.820006	0.400372
H	-1.124315	-1.656771	0.61433
H	-0.00281	-1.051869	1.845335
C	-0.909308	1.152601	0.670808
N	-1.644908	1.909641	1.187889
H	2.686562	-1.385733	-0.482593
