18

C	-0.283825	0.003249	-1.452283
C	-0.026023	-0.00191	0.069495
F	-1.680995	0.113167	-1.637664
H	1.068436	0.050935	0.123508
N	0.351125	1.105516	-2.109838
H	0.072496	1.963678	-1.639907
H	1.362812	0.970888	-1.899199
C	0.18295	-1.281207	-2.095848
H	-0.385153	-2.138853	-1.73053
H	1.249921	-1.393786	-1.877509
H	0.040211	-1.185571	-3.173341
C	-0.561272	-1.225517	0.81672
H	0.005989	-2.112132	0.529457
H	-1.618041	-1.387181	0.590127
H	-0.453124	-1.094774	1.896449
C	-0.575678	1.218977	0.654929
N	-1.01781	2.190307	1.147713
H	2.768938	0.230215	-0.932661
