13

C	0.0	0.0	0.0
C	-0.490767	0.256378	-1.420909
F	1.385537	0.0	0.0
H	-0.25291	-0.638353	-2.002258
H	-1.582726	0.37488	-1.3823
C	-0.336898	1.15125	0.889285
N	-0.533106	2.068967	1.595329
N	-0.487737	-1.262465	0.439229
H	-1.509562	-1.234601	0.338552
H	-0.286538	-1.374242	1.427177
C	0.150303	1.417486	-2.025876
N	0.665888	2.339503	-2.537351
Br	-3.667212	0.0	0.0
