13

C	0.0	0.0	0.0
C	-0.488431	-0.320442	-1.410948
F	1.379455	0.0	0.0
H	-1.587407	-0.331505	-1.38848
H	-0.157473	0.468174	-2.091761
C	-0.349138	1.414236	0.332325
N	-0.526501	2.54698	0.588154
N	-0.481043	-0.972324	0.917673
H	-1.503198	-0.984643	0.832458
H	-0.251266	-0.693297	1.865361
C	0.0426	-1.600788	-1.867183
N	0.450267	-2.618302	-2.286336
Br	-3.666116	0.0	0.0
