13

C	0.0	0.0	0.0
C	-0.529591	-0.23015	-1.409631
F	1.40194	0.0	0.0
H	-1.624164	-0.089602	-1.346525
H	-0.33867	-1.271813	-1.685714
C	-0.369986	1.34093	0.500725
N	-0.523603	2.427324	0.916619
N	-0.506504	-0.990025	0.85563
H	-0.395755	-0.786354	1.836217
H	-0.199044	-1.919268	0.614533
C	0.091921	0.64706	-2.394683
N	0.594504	1.334353	-3.202491
Br	-3.840846	0.0	0.0
