13

C	0.0	0.0	0.0
C	-0.182644	0.193486	-1.529799
F	1.381825	0.0	0.0
H	0.392912	1.092398	-1.740915
H	0.370749	-0.651022	-1.945269
C	-0.386912	1.200394	0.785931
N	-0.568307	2.18542	1.40145
N	-0.464469	-1.265745	0.416384
H	-1.495168	-1.248167	0.34642
H	-0.23923	-1.393974	1.391678
C	-1.434346	0.322432	-2.26407
N	-2.184653	0.536009	-3.145207
Br	-3.45273	0.0	0.0
