13

C	0.0	0.0	0.0
C	-0.473297	-0.291914	-1.423778
F	1.378542	0.0	0.0
H	-0.106304	0.497188	-2.084876
H	-1.571706	-0.276343	-1.427262
C	-0.344937	1.410088	0.3534
N	-0.514185	2.541066	0.622964
N	-0.493277	-0.983341	0.896185
H	-0.286071	-0.712859	1.850851
H	-1.51391	-0.996563	0.79034
C	0.03913	-1.578478	-1.883492
N	0.440214	-2.598496	-2.302677
Br	-3.664762	0.0	0.0
