15

C	0.0	0.0	0.0
C	-0.51946	0.125776	-1.416979
Cl	1.789007	0.0	0.0
H	0.014987	0.955733	-1.883216
H	-1.579574	0.381545	-1.319521
N	-0.377877	1.233256	0.836566
O	-0.439539	2.291505	0.229345
O	-0.494709	1.066798	2.041375
C	-0.431178	-1.20414	0.702916
N	-0.612398	-2.243007	1.221857
C	-0.372682	-1.169975	-2.201973
H	-0.678896	-1.000306	-3.236821
H	0.655084	-1.543387	-2.207129
H	-1.029832	-1.934537	-1.783785
Br	-3.621333	0.0	0.0
