15

C	0.0	0.0	0.0
C	-0.553433	-0.077245	-1.404783
Cl	1.769196	0.0	0.0
H	-0.061022	0.702759	-1.989257
H	-1.620068	0.157802	-1.312668
N	-0.377224	1.340851	0.663433
O	-0.436364	1.350052	1.884114
O	-0.496264	2.295875	-0.088143
C	-0.434821	-1.08815	0.872117
N	-0.640889	-2.040254	1.529071
C	-0.380639	-1.457102	-2.023193
H	-0.990041	-2.186937	-1.487102
H	0.660563	-1.790074	-2.023185
H	-0.730447	-1.43145	-3.05799
Br	-3.695397	0.0	0.0
