17

C	0.0	0.0	0.0
C	-0.540272	0.133473	-1.429162
Cl	1.785067	0.0	0.0
H	-1.626278	0.328051	-1.233414
C	-0.33544	1.182765	0.838145
N	-0.484572	2.025747	1.645433
N	-0.567603	-1.199526	0.536214
H	-0.363013	-1.229745	1.53194
H	-1.606325	-0.990969	0.44495
C	-0.351217	-1.110104	-2.263376
H	-0.714434	-0.928602	-3.275968
H	-0.931755	-1.912069	-1.812808
H	0.695723	-1.408915	-2.317157
N	0.038012	1.332565	-2.094244
O	-0.214422	2.428212	-1.59111
O	0.717114	1.177415	-3.113613
H	-2.907759	0.0	0.0
