17

C	0.0	0.0	0.0
C	-0.523483	-0.237925	-1.432871
Cl	1.794412	0.0	0.0
H	-1.599235	0.031888	-1.304718
C	-0.361964	1.358175	0.467982
N	-0.512025	2.440294	0.899616
N	-0.544439	-0.925406	0.943303
H	-0.329239	-1.868911	0.636759
H	-1.583395	-0.762622	0.830669
C	-0.391137	-1.66522	-1.90489
H	-1.13039	-2.267998	-1.376676
H	-0.618479	-1.723186	-2.969145
H	0.611433	-2.069553	-1.748347
N	0.098478	0.704871	-2.395073
O	0.898455	0.264692	-3.228804
O	-0.228317	1.889672	-2.301384
H	-2.894649	0.0	0.0
