17

C	0.0	0.0	0.0
C	-0.652651	0.092084	-1.363927
Cl	1.801243	0.0	0.0
H	-1.782748	0.17258	-0.99091
C	-0.34134	1.179624	0.839549
N	-0.568323	2.020707	1.629518
N	-0.498986	-1.211308	0.600486
H	-1.532974	-1.072863	0.556506
H	-0.240469	-1.206981	1.582922
C	-0.486887	-1.130537	-2.237102
H	0.554576	-1.255491	-2.551188
H	-0.79249	-2.010688	-1.674656
H	-1.113359	-1.030125	-3.122477
N	-0.318396	1.313908	-2.096371
O	0.21786	2.252889	-1.495544
O	-0.654432	1.369751	-3.286629
H	-2.862009	0.0	0.0
