17

C	0.0	0.0	0.0
C	-0.207923	-0.003214	-1.582691
Cl	1.806443	0.0	0.0
H	0.372597	0.834992	-1.969728
C	-0.379475	1.35726	0.437152
N	-0.550571	2.475215	0.756391
N	-0.641716	-0.964567	0.794225
H	-0.519597	-1.871919	0.355409
H	-1.675385	-0.696507	0.694185
C	-1.596848	0.012677	-2.185095
H	-1.475488	0.040458	-3.276805
H	-2.180106	-0.847686	-1.871158
H	-2.15442	0.876109	-1.832759
N	0.481131	-1.200571	-2.170974
O	1.252012	-1.008272	-3.109294
O	0.191306	-2.309496	-1.722173
H	-3.054928	0.0	0.0
