17

C	0.0	0.0	0.0
C	-0.583705	-0.230913	-1.403116
Cl	1.792752	0.0	0.0
H	-1.678987	-0.189698	-1.200432
C	-0.331931	1.38256	0.437973
N	-0.501881	2.475891	0.837608
N	-0.578455	-1.014385	0.820167
H	-0.335028	-0.830468	1.790195
H	-1.620359	-0.819848	0.706537
C	-0.142869	-1.528691	-2.04288
H	0.921989	-1.507354	-2.284222
H	-0.339145	-2.33997	-1.343276
H	-0.718569	-1.695852	-2.956744
N	-0.311597	0.890067	-2.354462
O	-1.281075	1.346444	-2.961017
O	0.85324	1.251886	-2.531685
H	-2.951349	0.0	0.0
