15
Coordinates from ORCA-job run
  C   -0.61295576659396      0.25374158533434     -0.13529203486431
  C   0.71502189751042      0.13610607114911      0.60339604258962
  Cl  -0.35708171093419      1.36137960865637     -1.59097947779990
  H   0.99015754719941      1.12917372273912      0.97390611414456
  H   0.51052329472655     -0.48716726060187      1.48143025128666
  N   -1.00796260718417     -1.01781563765157     -0.69402266305072
  H   -1.73626796991978     -0.89174994442717     -1.38641738211973
  H   -1.37843929289169     -1.58087675751965      0.06477360534854
  N   -1.60203557507748      0.78770973940107      0.74880452271655
  H   -2.47731018095260      0.93367088277626      0.25908315652743
  H   -1.30368621777038      1.67267654842496      1.14210093362690
  C   1.85036354885599     -0.46095127320443     -0.21439067407454
  H   1.55732562734734     -1.42855320598787     -0.62007472735243
  H   2.73364030820007     -0.59500139636364      0.41445035824201
  H   2.12170709748448      0.18865731727497     -1.04676802522065
