15
Coordinates from ORCA-job run
  C   -0.70721146291791      0.08920462833891      0.27647170159307
  C   0.72785165403299      0.44400437768227     -0.11317998521249
  Cl  -0.76930933393043     -0.12300545573080      2.07507502284867
  H   0.70683567087218      0.67802859929712     -1.18700737052133
  H   0.98929682683052      1.37231890086004      0.40297391211934
  N   -1.68077639443502      1.13467215718194     -0.00369305085181
  H   -1.46485528384101      1.97437470231537      0.52234548546734
  H   -1.63633239536235      1.35852259463243     -0.99310779930379
  N   -1.08561091745247     -1.15409738236226     -0.32796198267305
  H   -0.86341485798734     -1.14145595343528     -1.31695976404926
  H   -2.08420375142339     -1.28352829267376     -0.21267283527569
  C   1.76799359821616     -0.63400141276144      0.16483474982609
  H   1.82666456357857     -0.84651315096538      1.23247825752048
  H   2.75374609838450     -0.30496117381381     -0.17295092931947
  H   1.51832598543499     -1.56356313856535     -0.34664541216810
