15
Coordinates from ORCA-job run
  C   -0.69910426398747      0.14545961603633      0.27288343133538
  C   0.57398468223387     -0.63901255346384     -0.04486161975953
  Cl  -0.66846817780018      0.58630392861512      2.03031645546705
  H   0.47008986804855     -0.98831876213904     -1.08192665065082
  H   0.57635031603306     -1.53252276586184      0.58614375440645
  N   -0.72787559297800      1.36068420441350     -0.48654389303195
  H   -0.53523013984195      1.16518228287684     -1.46241079672658
  H   -1.64909813573046      1.77545464566331     -0.40562476497785
  N   -1.92941413234283     -0.61478784541483      0.10646950129515
  H   -1.96612964240948     -0.96221336790934     -0.84693115002503
  H   -1.94600821075973     -1.41000959198938      0.73558398586210
  C   1.87723977636131      0.13348408953301      0.11658482552383
  H   2.01121908114623      0.45110213412436      1.15081587567372
  H   2.72681848758865     -0.49529647036757     -0.16077004007255
  H   1.88662608443843      1.02549045588337     -0.50972891431937
