15
Coordinates from ORCA-job run
  C   -0.80525242307748      0.09483434454684      0.23992346019021
  C   0.62122150137221     -0.05027040937880      0.77297294369017
  Cl  -1.85515348319942      0.35890257344973      1.75804107366230
  H   0.65593718290909     -0.91597192084376      1.44283113098090
  H   0.84009171569087      0.82531627045733      1.38992524976517
  N   -1.07787321637222      1.23275851731421     -0.59702981962270
  H   -0.83371072201351      2.09516577860569     -0.12806353560736
  H   -0.54883739732639      1.14349205683068     -1.45604710512777
  N   -1.19082797208979     -1.05426821960836     -0.49085793077820
  H   -1.10250353269321     -1.89647531195525      0.06211490867719
  H   -2.14581710097552     -0.95216343567977     -0.81132103708553
  C   1.65783803597195     -0.19569696087621     -0.33640601389482
  H   1.43637825632564     -1.05255291054102     -0.97296170065668
  H   2.65290161424698     -0.33173350071360      0.09325186819717
  H   1.69560754123081      0.69666312839230     -0.96537349239005
