15
Coordinates from ORCA-job run
  C   -0.75132668938423      0.04596511748713      0.13738878941202
  C   0.60062793259217     -0.65660399980423      0.02294805989188
  Cl  -0.90413174107343      0.58576188763065      1.91751119838706
  H   0.60150629446931     -1.13967405183774     -0.96090823441697
  H   0.62642034496913     -1.44722811706301      0.77768385521334
  N   -0.85242343085421      1.12535148434078     -0.76987752117488
  H   -1.77096748001757      1.54446047459426     -0.69249348501469
  H   -0.14320325010325      1.82705699302428     -0.61025008348403
  N   -1.90321040847034     -0.79287732057529     -0.08288644571747
  H   -1.85186808535274     -1.15868163565453     -1.02748469035242
  H   -1.91369323533943     -1.56149520574989      0.57527460374473
  C   1.82508012438745      0.24084814877070      0.15551814625338
  H   1.89713111525278      0.94148792403047     -0.67951052371242
  H   2.73712140647441     -0.35980771706830      0.14859788346913
  H   1.80193710244996      0.80443601787472      1.08948844750132
