15
Coordinates from ORCA-job run
  C   -0.76083557245667     -0.01109156294987      0.12959483147326
  C   0.62275673255559     -0.64909973272517     -0.01465906594127
  Cl  -0.91506149755742      0.49508050100498      1.91611016359871
  H   0.65317948465443     -1.05527730478547     -1.03195407137777
  H   0.68691217127404     -1.49700801683131      0.67495735457557
  N   -1.00943698208304      1.19388984197134     -0.61775578513311
  H   -0.38066153246720      1.93489627738249     -0.33997461930581
  H   -0.89070834200676      0.99161749466658     -1.60411761010791
  N   -1.75850264195771     -0.94008270937180     -0.25255646548851
  H   -2.67514984270748     -0.53061217458024     -0.12076656371630
  H   -1.68796108881257     -1.80314502855883      0.26998806290865
  C   1.79769634491086      0.29186771606152      0.20853470742865
  H   1.77922295143253      0.72290703543880      1.21004459169902
  H   2.73912003443681     -0.24885807209855      0.09129070591857
  H   1.79942978078459      1.10591573537553     -0.51973623653175
