15
Coordinates from ORCA-job run
  C   -0.74968909638485     -0.03967977530313      0.29468772627828
  C   0.62560762253008     -0.65165479742864      0.02055749851587
  Cl  -0.79368846557668      0.48689460286032      2.02918813431428
  H   0.75199062077506     -1.49785161438112      0.69996454653643
  H   0.58810145488403     -1.05850670128987     -0.99965317534764
  N   -1.07880746690722      1.15301852575640     -0.46841124437852
  H   -0.98542133584102      0.94505921127211     -1.45758880712928
  H   -0.46126139772846      1.92208757817487     -0.23821894271314
  N   -1.74584018153335     -1.05773423745511      0.12954855884714
  H   -2.66179958223230     -0.62375867490886      0.13106896397885
  H   -1.60696226464328     -1.54401272933866     -0.74811893611282
  C   1.79891164346390      0.31099035622140      0.13278984862353
  H   1.85961019932542      0.74437872558212      1.13179858730089
  H   1.72298835990758      1.12367013667950     -0.59306441263267
  H   2.73625988996109     -0.21390060644132     -0.06254834608117
