15
Coordinates from ORCA-job run
  C   -0.72795341131481      0.23145277283329      0.10998713642416
  C   0.77599588604713      0.44918239837420     -0.07094543746920
  Cl  -1.00017613608255     -0.01546329945864      1.93619026274409
  H   1.07401441880575      1.31917690943034      0.52315564220417
  H   0.90855289482056      0.71578254304891     -1.12549554400251
  N   -1.43674991134666      1.34961996600314     -0.39221980538274
  H   -1.13065804438767      2.21205611268256      0.03836355061152
  H   -2.42943438629289      1.22079936290072     -0.23978208700898
  N   -1.30239697704415     -0.93406380958869     -0.50943954319538
  H   -1.14077491381417     -0.88091259507248     -1.50890521733753
  H   -0.89883586056208     -1.78382625885693     -0.13980985640263
  C   1.65227171030034     -0.74404901279665      0.28145487747136
  H   1.42106599645839     -1.60705452377959     -0.34692919362030
  H   1.53143718941674     -1.03368505279786      1.32574565353459
  H   2.70364154499607     -0.49801551292234      0.11862956142936
