15
Coordinates from ORCA-job run
  C   -0.79571347566667      0.21979613768803      0.38835159760261
  C   0.65741245180185     -0.05936361975063      0.78005512462857
  Cl  -1.70715749361255      0.43919825158216      1.93883933266135
  H   1.00634809949559      0.77906590907469      1.38728199871926
  H   0.66015383563648     -0.94589593110389      1.42057987647430
  N   -0.88411877391987      1.45156832223024     -0.34246155362656
  H   -1.83628379256854      1.56527829037826     -0.67156687445569
  H   -0.26464442321052      1.42756663555256     -1.14320206218506
  N   -1.48680180718885     -0.85737104743257     -0.30077194905155
  H   -1.03474973909426     -1.03063145553555     -1.19142802597671
  H   -1.47080442732156     -1.71034226164360      0.24697174562729
  C   1.59570655475871     -0.27449893578351     -0.40514245389104
  H   2.58316407847175     -0.57315032840957     -0.04732542360731
  H   1.24223917898675     -1.06688152062027     -1.06957611248568
  H   1.73524973343168      0.63666155377363     -0.99160522043381
