18

C	-0.476542	0.033975	-1.414824
C	0.0	0.0	0.0
F	-1.850616	0.152686	-1.536756
H	1.094993	0.0	0.0
C	0.123734	1.119378	-2.206989
N	0.546367	2.024909	-2.823423
N	-0.120114	-1.281657	-2.117183
O	1.017605	-1.373245	-2.556046
O	-0.989043	-2.146627	-2.136869
C	-0.474069	-1.250307	0.73038
H	-1.559905	-1.394922	0.693012
H	0.015183	-2.143239	0.335315
H	-0.167924	-1.161195	1.775503
C	-0.438648	1.277101	0.710466
H	-0.08529	2.16484	0.178879
H	-1.525198	1.349715	0.839061
H	0.035587	1.290764	1.694421
F	2.58135	0.0	0.0
