18

C	-0.433657	-0.005867	-1.442398
C	0.0	0.0	0.0
F	-0.052593	-1.15202	-2.076471
H	1.096872	0.0	0.0
C	-1.893506	0.139995	-1.633607
N	-3.064656	0.191907	-1.718525
N	0.219799	1.145114	-2.216114
O	-0.294844	2.249396	-2.054595
O	1.186535	0.881318	-2.909062
C	-0.49158	-1.276918	0.671523
H	-0.140492	-2.159931	0.135986
H	-1.585783	-1.323866	0.765161
H	-0.058127	-1.313891	1.674098
C	-0.466202	1.236521	0.755813
H	-0.020222	2.144659	0.350779
H	-1.557964	1.355969	0.770405
H	-0.116558	1.139757	1.787016
F	2.590262	0.0	0.0
