18

C	-0.430229	-0.010801	-1.443763
C	0.0	0.0	0.0
F	-0.060373	-1.16552	-2.069111
H	1.096848	0.0	0.0
C	-1.887588	0.150691	-1.640331
N	-3.057862	0.216495	-1.728573
N	0.239222	1.1273	-2.223461
O	-0.259219	2.239565	-2.066026
O	1.200325	0.846288	-2.91736
C	-0.495015	-1.273157	0.675744
H	-1.589848	-1.320475	0.761845
H	-0.069187	-1.303649	1.681812
H	-0.139455	-2.159074	0.148126
C	-0.4656	1.240545	0.749532
H	-0.020259	2.146448	0.338947
H	-1.557405	1.359674	0.764429
H	-0.114991	1.149537	1.780929
F	2.590517	0.0	0.0
