18

C	-0.455667	0.054681	-1.425214
C	0.0	0.0	0.0
F	-1.828169	0.190886	-1.564223
H	1.095043	0.0	0.0
C	0.172364	1.138021	-2.198276
N	0.63844	2.041416	-2.785401
N	-0.107219	-1.259812	-2.130527
O	-0.982085	-2.116279	-2.161054
O	1.031616	-1.358326	-2.563416
C	-0.482602	-1.257273	0.709577
H	-0.189123	-1.180307	1.759421
H	0.01064	-2.146233	0.310693
H	-1.568654	-1.400962	0.658559
C	-0.444047	1.270573	0.717058
H	-0.079938	2.163208	0.200836
H	0.014766	1.273603	1.709726
H	-1.532897	1.345641	0.831103
F	2.581544	0.0	0.0
