18

C	-0.441359	0.015151	-1.43861
C	0.0	0.0	0.0
F	-0.048665	-1.113105	-2.097843
H	1.108134	0.0	0.0
C	-1.90443	0.145117	-1.616079
N	-3.077343	0.185947	-1.681451
N	0.19425	1.189686	-2.189725
O	1.190303	0.958741	-2.852892
O	-0.355476	2.278184	-2.036309
C	-0.48607	-1.286515	0.655989
H	-0.137412	-2.161009	0.105126
H	-1.579437	-1.336974	0.756241
H	-0.045862	-1.338344	1.654642
C	-0.465372	1.22606	0.773352
H	-1.557594	1.339946	0.799219
H	-0.105627	1.120596	1.800083
H	-0.028241	2.141524	0.374517
F	2.587789	0.0	0.0
