15

C	0.0	0.0	0.0
C	-0.202056	-0.055028	-1.58316
F	1.376236	0.0	0.0
H	0.541863	0.662848	-1.934428
C	-0.476743	1.300074	0.48386
N	-0.594482	2.417354	0.830407
C	-0.475867	-1.10879	0.82626
N	-0.601895	-2.003733	1.578136
N	-1.446588	0.100465	-2.217002
H	-2.152844	-0.043801	-1.444605
H	-1.522396	1.055226	-2.5376
N	0.399842	-1.387639	-2.014008
O	1.376673	-1.346494	-2.76395
O	-0.167702	-2.408575	-1.64007
F	-2.449577	0.0	0.0
