15

C	0.0	0.0	0.0
C	-0.258908	0.454295	-1.490811
F	1.370164	0.0	0.0
H	0.717708	0.828349	-1.825478
C	-0.455862	0.990103	0.9882
N	-0.513525	1.765315	1.872036
C	-0.434533	-1.352904	0.392746
N	-0.569372	-2.428447	0.853378
N	-1.245539	1.412302	-1.717076
H	-1.152122	1.836563	-2.629655
H	-2.155632	1.014454	-1.476
N	-0.411181	-0.83069	-2.358061
O	-1.364281	-0.888163	-3.129039
O	0.487258	-1.666094	-2.266449
F	-2.273876	0.0	0.0
