15

C	0.0	0.0	0.0
C	-0.358263	0.395003	-1.498053
F	1.384792	0.0	0.0
H	0.617168	0.645412	-1.925944
C	-0.429972	1.087818	0.890434
N	-0.521826	2.020861	1.59966
C	-0.454092	-1.298329	0.506665
N	-0.573804	-2.368439	0.978992
N	-1.294268	1.418752	-1.758591
H	-2.081344	1.175797	-1.132906
H	-0.889369	2.312728	-1.511294
N	-0.742117	-0.877214	-2.230431
O	-1.78024	-0.918544	-2.869969
O	0.090479	-1.783667	-2.149669
F	-2.345613	0.0	0.0
