15

C	0.0	0.0	0.0
C	-0.420905	-0.039542	-1.50589
F	1.378136	0.0	0.0
H	-1.433769	0.348585	-1.533219
C	-0.438211	1.219658	0.696162
N	-0.531685	2.228643	1.292554
C	-0.463627	-1.204224	0.694812
N	-0.513773	-2.251522	1.228881
N	-0.332189	-1.323385	-2.121882
H	-1.108345	-1.874161	-1.773695
H	0.537316	-1.783503	-1.879871
N	0.498089	0.918163	-2.22072
O	0.199803	2.109784	-2.135415
O	1.475562	0.467714	-2.810888
F	-2.355464	0.0	0.0
