15

C	0.0	0.0	0.0
C	-0.49236	0.36971	-1.460704
F	1.377948	0.0	0.0
H	-1.142597	1.22785	-1.373684
C	-0.424125	1.017607	0.973113
N	-0.5248	1.885403	1.760271
C	-0.438256	-1.34436	0.387752
N	-0.541434	-2.478367	0.680214
N	-1.152028	-0.643779	-2.20859
H	-0.593552	-1.489389	-2.221735
H	-1.981911	-0.786034	-1.622332
N	0.728982	0.847907	-2.203594
O	1.014458	2.037661	-2.075889
O	1.370588	0.031037	-2.858085
F	-2.356862	0.0	0.0
