15

C	0.0	0.0	0.0
C	-0.456574	0.175582	-1.490897
F	1.377946	0.0	0.0
H	-1.341444	0.799812	-1.475106
C	-0.429121	1.121278	0.848827
N	-0.527162	2.05183	1.560952
C	-0.460043	-1.282799	0.537875
N	-0.550342	-2.379891	0.951256
N	-0.724099	-1.02542	-2.217648
H	0.036058	-1.691067	-2.104437
H	-1.571861	-1.398154	-1.794565
N	0.639962	0.95204	-2.190842
O	1.455547	0.344288	-2.879462
O	0.646293	2.16867	-1.990225
F	-2.334677	0.0	0.0
