15

C	0.0	0.0	0.0
C	-0.398714	0.008906	-1.489789
F	1.38096	0.0	0.0
H	-1.491564	0.106479	-1.471975
C	-0.46236	1.161427	0.771439
N	-0.513977	2.112299	1.462379
C	-0.452778	-1.247941	0.630666
N	-0.577231	-2.29483	1.149881
N	0.087739	-1.163099	-2.119558
H	1.092679	-1.116938	-2.226652
H	-0.334033	-1.271296	-3.030682
N	0.199548	1.284908	-2.097531
O	-0.334403	2.348463	-1.79787
O	1.158689	1.168468	-2.8624
F	-2.390625	0.0	0.0
