15

C	0.0	0.0	0.0
C	-0.411757	0.126698	-1.479199
F	1.380749	0.0	0.0
H	-1.504254	0.249918	-1.432714
C	-0.456013	1.091079	0.873417
N	-0.530053	1.964837	1.657439
C	-0.453735	-1.291504	0.537428
N	-0.554369	-2.360397	1.016525
N	0.023367	-1.01604	-2.195629
H	1.027614	-0.997396	-2.319349
H	-0.415219	-1.045765	-3.104782
N	0.216616	1.420343	-2.008282
O	-0.212463	2.476571	-1.551661
O	1.090444	1.330396	-2.874007
F	-2.402519	0.0	0.0
