15

C	0.0	0.0	0.0
C	-0.486834	0.302515	-1.482967
F	1.369522	0.0	0.0
H	-1.09211	1.19978	-1.455932
C	-0.441636	1.045601	0.93254
N	-0.549089	1.930787	1.699276
C	-0.441601	-1.333496	0.432586
N	-0.536852	-2.452846	0.777947
N	-1.193285	-0.722407	-2.174873
H	-0.663057	-1.585861	-2.156091
H	-2.020842	-0.808973	-1.572705
N	0.762889	0.65456	-2.258429
O	1.348562	-0.249842	-2.846365
O	1.132764	1.826755	-2.217285
F	-2.361856	0.0	0.0
