15

C	0.0	0.0	0.0
C	-0.410645	0.021225	-1.486461
F	1.380748	0.0	0.0
H	-1.503467	0.139541	-1.448583
C	-0.456714	1.152058	0.789662
N	-0.529355	2.084301	1.503011
C	-0.459973	-1.25052	0.620525
N	-0.565222	-2.285783	1.167348
N	0.034634	-1.164699	-2.121443
H	1.037698	-1.143626	-2.252756
H	-0.409409	-1.266168	-3.022935
N	0.205298	1.280169	-2.104727
O	1.089401	1.139168	-2.952044
O	-0.24495	2.360616	-1.734698
F	-2.401859	0.0	0.0
