15

C	0.0	0.0	0.0
C	-0.559644	-0.047582	-1.415609
Br	1.941368	0.0	0.0
H	-1.656461	0.057866	-1.211454
H	-0.23527	-1.00111	0.371904
N	-0.550182	1.05759	0.78873
H	-1.574628	0.886745	0.629617
H	-0.35965	0.832556	1.761032
N	-0.267813	-1.295838	-2.040787
H	0.709449	-1.331195	-2.307813
H	-0.817238	-1.382724	-2.884567
N	-0.123027	1.133421	-2.273686
O	0.160006	0.893223	-3.454209
O	-0.130921	2.257279	-1.786834
F	-2.838309	0.0	0.0
