15

C	0.0	0.0	0.0
C	-0.479668	-0.090628	-1.450902
Br	2.044004	0.0	0.0
H	-1.579571	-0.005074	-1.278582
H	-0.24858	-0.973364	0.418794
N	-0.522377	1.020666	0.823337
H	-1.547104	0.767122	0.761828
H	-0.413158	1.906385	0.342835
N	-0.112717	-1.318216	-2.066423
H	0.878315	-1.32161	-2.275851
H	-0.621265	-1.43667	-2.932459
N	-0.029438	1.119338	-2.252952
O	0.611701	0.930134	-3.289793
O	-0.339989	2.235949	-1.83572
F	-2.769707	0.0	0.0
