15

C	0.0	0.0	0.0
C	-0.444016	0.196782	-1.483365
Br	1.954093	0.0	0.0
H	0.418609	0.269142	-2.151634
H	-0.277201	-1.001879	0.309368
N	-0.517	0.93279	0.943739
H	-0.442708	1.857128	0.53038
H	-1.527799	0.684719	0.913474
N	-1.300469	1.308839	-1.635918
H	-1.553306	1.398419	-2.61152
H	-2.137675	1.034627	-1.071237
N	-1.083868	-1.126931	-1.990402
O	-0.668906	-2.193369	-1.543993
O	-1.88532	-1.025503	-2.914339
F	-2.791855	0.0	0.0
