15

C	0.0	0.0	0.0
C	-0.447522	-0.274255	-1.483938
Br	1.950518	0.0	0.0
H	0.450771	-0.3755	-2.098362
H	-0.262286	-0.851255	0.625927
N	-0.523211	1.260922	0.43655
H	-0.237628	1.40153	1.39913
H	-1.547905	1.025613	0.428525
N	-1.345792	0.656333	-2.088941
H	-2.185471	0.581087	-1.485476
H	-0.941593	1.571226	-1.910003
N	-1.042007	-1.667186	-1.550433
O	-2.00094	-1.875406	-2.275592
O	-0.434713	-2.535967	-0.921227
F	-2.752363	0.0	0.0
