16
Coordinates from ORCA-job run
  C   0.97283945293576     -0.23045451842366      0.23110706486463
  C   -0.39230731378217      0.48873717584852      0.31490004233256
  Cl  1.55704875380370     -0.63161158434115      1.88206453579182
  H   -0.24848865734630      1.35194334732061      0.97975792762728
  N   0.83403060581530     -1.43627009549606     -0.53085417537594
  H   1.73689937673941     -1.85160894312877     -0.72629179760610
  H   0.37298115418754     -1.18486198695945     -1.40097034465812
  C   1.95542484864340      0.72075863576478     -0.32861947576240
  N   2.69333465797732      1.48208761028597     -0.83702765104425
  C   -1.47862378871063     -0.41087165585201      0.88054647145535
  H   -2.39912620874080      0.16749599780868      0.99940997944494
  H   -1.66730485151716     -1.24766654043561      0.20820643908740
  H   -1.19926775891126     -0.80658676250101      1.85581235568575
  N   -0.73119570559892      0.86309127651487     -1.05809832149395
  H   -0.27576935240107      1.72900375866018     -1.32199216518724
  H   -1.73047521309411      0.99581428493414     -1.14795088516172
