16
Coordinates from ORCA-job run
  C   0.85061670234832     -0.13953833998607     -0.32743569831553
  C   -0.51454037881789      0.12580291684306      0.33149478356284
  Cl  1.20309888690302      1.05639023859155     -1.60653170459381
  H   -0.59891128323762     -0.68166415360897      1.08505933319581
  N   1.88684435088411     -0.01680276765083      0.68330403075233
  H   1.80527204602881     -0.79222955885289      1.33449578552089
  H   2.80279983386956     -0.06377989019488      0.25082714294093
  C   0.83879914949876     -1.46787307096779     -0.96851733160706
  N   0.84907659417637     -2.55933426600370     -1.40527549792778
  C   -1.67779650772127     -0.00239167660597     -0.63655961326397
  H   -1.60589919268611      0.76738251898215     -1.40528093519021
  H   -2.61759937138576      0.14166605134404     -0.09721608066651
  H   -1.71062727181783     -0.98785949374130     -1.10555106412448
  N   -0.48987889421147      1.45592879369123      0.90692678690976
  H   0.31298342185748      1.55183221690738      1.51642754137970
  H   -1.33423808568847      1.61147048125297      1.44283252142709
