16
Coordinates from ORCA-job run
  C   0.87665582681925     -0.31827986668814     -0.30784932688476
  C   -0.45635737573813      0.00660639429171      0.39952480690645
  Cl  1.19760768813354      1.02883452097263     -1.55388271474683
  H   -0.58957797989571     -0.83336741137712      1.09073219218544
  N   1.89617960885559     -0.43338914925263      0.65511048936904
  H   2.81371290587406     -0.54672652654423      0.24539513560224
  H   1.85291638367596      0.37221075156530      1.27027350800769
  C   0.76897140507463     -1.54842252542592     -1.09601011118425
  N   0.65911856123348     -2.54939162328486     -1.70055714642209
  C   -1.65107803250139      0.07789968829165     -0.54101993703116
  H   -1.56008866954166      0.92438307865027     -1.22392450140126
  H   -2.56275769047289      0.20720896882283      0.04704801910410
  H   -1.75734727372536     -0.83355604809964     -1.13389344290318
  N   -0.22920735047896      1.19723619498405      1.21172303669463
  H   -0.88186358072705      1.21886355427281      1.98451614269860
  H   -0.37688442658537      2.02988999882129      0.65281385000535
