16
Coordinates from ORCA-job run
  C   0.97938168944660     -0.19395957153774      0.02535697016629
  C   -0.31351874799972      0.57585738933727      0.35097839339302
  Cl  1.72373308535587     -0.75785280297266      1.61981155903675
  H   -0.04155124063756      1.33617097392479      1.08915425211803
  N   0.71742856599915     -1.26538570952598     -0.87306017535285
  H   1.57345006452633     -1.66684432610991     -1.23531229753729
  H   0.18152677472173     -1.99250007383569     -0.41560563536429
  C   1.97145579099567      0.70827544075359     -0.56733198478537
  N   2.81014067899351      1.39305835797730     -1.02082842948552
  C   -1.40117926405078     -0.32628333864472      0.93214736793704
  H   -1.75868079703369     -1.03368879552753      0.17874624414530
  H   -1.06741850900169     -0.87608248617758      1.81421339242830
  H   -2.25401558658044      0.29118309939116      1.22356056102048
  N   -0.68439706805806      1.26547959842723     -0.87514284765298
  H   -1.02329806011177      0.59675357816351     -1.55628726317102
  H   -1.41205737656514      1.94481866635697     -0.69240010689588
