16
Coordinates from ORCA-job run
  C   0.97193201098232     -0.21362145906066      0.07547118506795
  C   -0.37178735057429      0.52935408980113      0.29388197565536
  Cl  1.67063682601136     -0.53485825710245      1.77235597175171
  H   -0.17939697850905      1.25645708400811      1.09369559924997
  N   0.84339069733575     -1.38693475656489     -0.69521048691282
  H   1.74107566365212     -1.80149228421307     -0.90916662085498
  H   0.25443514004994     -2.06959114947876     -0.23780013507978
  C   1.92743832882369      0.69777958722464     -0.55993069001848
  N   2.66624716536472      1.45971885795694     -1.06293075597073
  C   -1.46293009785885     -0.42883999309666      0.74255291502659
  H   -1.14519366460061     -1.03973004347206      1.58862468900651
  H   -2.34286627337878      0.13858137676567      1.05445204620214
  H   -1.75563865926741     -1.07285632315036     -0.09022755263901
  N   -0.74761215644585      1.14865650108245     -0.96642467926191
  H   -1.75100622023193      1.25753278878980     -1.02755969816467
  H   -0.31972443135310      2.05984398051016     -1.07078376305785
