16
Coordinates from ORCA-job run
  C   1.04727792470433     -0.26358996214874      0.09053716631473
  C   -0.28569450367852      0.48244007338532      0.36543084392421
  Cl  1.72208701067339     -0.84908700668540      1.64483932758262
  H   -0.07199791220107      1.25379591190901      1.11932973129375
  N   0.95999017161291     -1.37710102221976     -0.82298516970315
  H   0.41432034724102     -1.06010490905822     -1.62045338370068
  H   0.47162808407281     -2.14304233271769     -0.37366890365429
  C   1.99542766968445      0.72061176203017     -0.45640721792746
  N   2.68416647220186      1.56244395913426     -0.89971155929121
  C   -1.36785889121919     -0.44704106522308      0.88712132441224
  H   -1.65880238955907     -1.16121395573534      0.11381687989082
  H   -1.04451614298044     -0.98915192998403      1.77529077011474
  H   -2.25244539226664      0.13623656671639      1.15520052086044
  N   -0.70154996091262      1.02501301318858     -0.92586893041274
  H   -1.69545922098004      1.21680037412911     -0.92486968056089
  H   -0.21757326639317      1.89199052327945     -1.12860171914312
