16
Coordinates from ORCA-job run
  C   0.94941360789474     -0.24007886392313     -0.04367522269364
  C   -0.36139240866766      0.38394008472438      0.46414103273238
  Cl  2.33856086432498      0.75059273487728      0.68652705525912
  H   -0.34219233158092      0.24392077856243      1.55922746299767
  N   1.03493391891461     -1.61064129332308      0.31084725058415
  H   0.99725750025344     -1.72018841505526      1.31756193786939
  H   1.88410456779848     -2.03653094464441     -0.03915963625410
  C   1.07097964053461     -0.09180224365900     -1.49513167691033
  N   1.13836020350237     -0.01667231661542     -2.66495332728219
  C   -1.56021476861161     -0.35055318483681     -0.11970218829272
  H   -2.47961715858104      0.05237111993499      0.31450876233228
  H   -1.51540056598923     -1.41770486749888      0.08945023892075
  H   -1.59763630059526     -0.19995297875785     -1.20094322472507
  N   -0.41202739908715      1.77492724716676      0.05425823781388
  H   -1.35349332613777      2.13061609859252      0.15678802691522
  H   0.20836395602740      2.34675704445549      0.61225527073320
