16
Coordinates from ORCA-job run
  C   0.90895213503937     -0.28095876648646      0.18281414935387
  C   -0.41023795210674      0.49535925334335      0.45251533545326
  Cl  1.48782781650877     -1.05213929398159      1.69454481683260
  H   -0.18509096931530      1.18338321765892      1.27486326092531
  N   0.70507824112463     -1.32094587493942     -0.79776217670874
  H   0.44341591229199     -0.89380508026755     -1.67988775174486
  H   1.56432013634406     -1.83894630976458     -0.94370726770881
  C   1.94723003797352      0.69290315042775     -0.21068266534001
  N   2.72444927672925      1.48748548512802     -0.59507729346580
  C   -1.53969367217828     -0.43453932047137      0.86606900111485
  H   -1.78002445737116     -1.12968135240006      0.05983500102623
  H   -2.41904121808354      0.17149287793858      1.08771760723673
  H   -1.27847537972233     -1.01868747876364      1.74729729400401
  N   -0.84062582593568      1.29135056609651     -0.68090791625157
  H   -1.19964051749241      0.72403037278953     -1.43689314385973
  H   -0.12844356380613      1.92469855369200     -1.02073825086735
