16
Coordinates from ORCA-job run
  C   0.91242549598843     -0.19674074529895      0.26035161676842
  C   -0.46289968940513      0.52009176629732      0.36525253202844
  Cl  1.45074650051053     -0.73299343766909      1.88447717837937
  H   -0.32371033035142      1.31848795089830      1.10247217159853
  N   0.82421801707534     -1.36260528450282     -0.58693096198069
  H   0.58688433849116     -1.06692559277538     -1.52786021959835
  H   1.71955495243534     -1.83689296717802     -0.62505807164833
  C   1.91186516380958      0.78561117903629     -0.20584207425469
  N   2.66058860299430      1.57521850005250     -0.65198505363437
  C   -1.55729968037153     -0.42214860786361      0.84073384035395
  H   -2.48163665904950      0.14844331377407      0.93866835280875
  H   -1.31259549359902     -0.87152584470292      1.80215741213462
  H   -1.71017281574124     -1.22823879633655      0.12116329380763
  N   -0.87573092836472      1.13868252884857     -0.87980524694589
  H   -1.15695881765976      0.45919248154166     -1.57391890155623
  H   -0.18427865676237      1.77034355587863     -1.26287586826115
