16
Coordinates from ORCA-job run
  C   0.86076332115720     -0.22338629467826     -0.35286614513492
  C   -0.51335545120851      0.03167065454925      0.34407882756974
  Cl  1.19606777768890      1.13972846827374     -1.48180005907776
  H   -0.64250410710223     -0.84673396232395      0.99153611137317
  N   1.99888427604280     -0.32634089667047      0.52996196638854
  H   2.07329312027016      0.51002038105343      1.09636887005393
  H   1.90586295859022     -1.14022799321676      1.12816282753973
  C   0.78626526001034     -1.46114351419861     -1.13717176097853
  N   0.70757198852239     -2.48723046860308     -1.70372656560798
  C   -1.67527019890246      0.09097217414141     -0.63532237416138
  H   -2.60537355971305      0.13673815136215     -0.06802720733125
  H   -1.70285174344329     -0.78185731559410     -1.29001133804370
  H   -1.61064243993420      0.98569722266641     -1.25762786167524
  N   -0.54069312512145      1.19838199586855      1.19919748170224
  H   0.11242906943346      1.13116362652038      1.96812800059854
  H   -0.35144714629027      2.04154777084988      0.67111922678487
