16
Coordinates from ORCA-job run
  C   0.91592902699102     -0.21433273424352      0.09203152431986
  C   -0.42043432149531      0.49516137662018      0.44580039326554
  Cl  1.57359618797811     -1.00592026551125      1.62554861522006
  H   -0.22159807565719      1.09102351298278      1.34127985963259
  N   0.74317283920362     -1.12663765636410     -0.98279535900093
  H   1.62716586098840     -1.49503651137216     -1.31146794849423
  H   0.14683883289021     -1.89670506869240     -0.70638204494618
  C   1.91299011692119      0.79287339180572     -0.28257696686660
  N   2.68020854069206      1.62899657718709     -0.58584328183464
  C   -1.52676059967368     -0.50823770131380      0.73986268781982
  H   -2.39230680802212      0.03661810440280      1.11663959240818
  H   -1.22742052297215     -1.25153898925026      1.48004023755803
  H   -1.84026617871346     -1.01472959311226     -0.17724984108344
  N   -0.85810960184605      1.39265167747490     -0.60525158026094
  H   -0.88385106679334      0.89673587477566     -1.48902042355785
  H   -0.22715423049135      2.17907800461068     -0.70261546417929
