16
Coordinates from ORCA-job run
  C   0.96443139040568     -0.27659634809501      0.21375351454283
  C   -0.38150826555407      0.46886645527877      0.35626001496652
  Cl  1.52664284720733     -0.84159566938560      1.82369345372839
  H   -0.21926278508174      1.26426356477669      1.09718785544398
  N   0.79881310807054     -1.40450666781969     -0.65501503835350
  H   1.69167795319734     -1.82588877918470     -0.88132166883819
  H   0.35287907503494     -1.06261792523836     -1.50186649061939
  C   1.97587058216057      0.69437779432171     -0.25329274064812
  N   2.73679918206521      1.47873809447037     -0.68728584977578
  C   -1.49524873830801     -0.44840423489104      0.83320969558254
  H   -1.70162777809490     -1.21526966936570      0.08673232687757
  H   -2.40074183705088      0.14161991327391      1.00033944512870
  H   -1.23295458830471     -0.93826752434088      1.76975436470304
  N   -0.70064277752011      0.97463369540357     -0.97889879024369
  H   -0.21986732962948      1.84774397509777     -1.16168406595358
  H   -1.69526003859770      1.14290332569820     -1.06056602654132
