16
Coordinates from ORCA-job run
  C   1.02580722382485     -0.17495074874406      0.13089442593478
  C   -0.32612531146609      0.43175831345925      0.55338818721538
  Cl  2.34024107093312      0.62793013973358      1.03474816495198
  H   -0.32168408872019      0.38001113895688      1.64621673043109
  N   1.07865195447371     -1.58570897351478      0.46009369804807
  H   0.48692963277531     -2.10611033293007     -0.17889870142364
  H   2.02764970741295     -1.92511288954969      0.34799324098469
  C   1.24340164615258      0.10019617444210     -1.30299221801644
  N   1.33286927318924      0.25158264989675     -2.46567062088416
  C   -1.49511638020999     -0.38869969229269      0.00912028137931
  H   -1.46156035223978     -0.43856281778223     -1.08465298619109
  H   -1.51666492497534     -1.40125073693693      0.41617375505054
  H   -2.43065942833947      0.10039218088369      0.28910493712883
  N   -0.34544124856964      1.82973249711653      0.15486437213305
  H   -0.93204724757507      2.36966640078747      0.77625271778385
  H   -0.70725152666618      1.92912669647421     -0.78663598452625
