16
Coordinates from ORCA-job run
  C   0.96279101676572     -0.23269678168584      0.12005799373614
  C   -0.38910722956569      0.49987644579762      0.32248301775524
  Cl  1.53838404401262     -0.74021983753452      1.81699538210482
  H   -0.25053657953512      1.13501899810114      1.20716998082011
  N   0.88261424404505     -1.31598247306825     -0.77847704859676
  H   1.79116348555425     -1.71549904784736     -0.97439211109679
  H   0.26098677271649     -2.03690313420961     -0.43762357660838
  C   1.96530257975323      0.72832279837126     -0.34755117706123
  N   2.74217311954545      1.52880590028428     -0.71493436500719
  C   -1.51419182386245     -0.48681240907389      0.58814081738986
  H   -2.41120141120368      0.05481278487460      0.89741133968335
  H   -1.26024470768051     -1.18864135396849      1.38376303108149
  H   -1.75032841816714     -1.03419202415162     -0.32760017424851
  N   -0.67187931205511      1.25458055731805     -0.88745603217012
  H   -0.22916454586586      2.16433736444061     -0.86471085046857
  H   -1.66776123445726      1.38719221235201     -1.00227622731345
