16
Coordinates from ORCA-job run
  C   0.84451831799687     -0.42396103080073     -0.26606634202662
  C   -0.48897529884267      0.03954698082730      0.35734413570684
  Cl  1.49565294043463      0.97534135422018     -1.31117230144589
  H   -0.81949245524882     -0.83323013757421      0.93197997654563
  N   1.72928069552035     -0.80259874228358      0.76044786520676
  H   2.65642444912293     -1.02069869920589      0.42094022854478
  H   1.74434296916321     -0.06862895293361      1.46080447407733
  C   0.63387645351978     -1.53046943800973     -1.20226835396059
  N   0.43835860202393     -2.43123078837917     -1.93042835872202
  C   -1.55590921900742      0.39933445095548     -0.66714223440879
  H   -1.74411492027383     -0.42159336393863     -1.36328390992352
  H   -1.26428769683398      1.27974314423397     -1.24270270052323
  H   -2.49040742678714      0.62337489483683     -0.14691566295120
  N   -0.16791398902260      1.08833179670773      1.31995862087855
  H   -0.89009425225331      1.14143904804769      2.02654863451760
  H   -0.12225916951192      1.98529948329637      0.84995592848439
