16
Coordinates from ORCA-job run
  C   0.85065461734296     -0.23398916364683     -0.26679607013870
  C   -0.52336103955575      0.16681969951543      0.29875553170589
  Cl  1.51039984342875      1.03192710114265     -1.34078574837372
  H   -0.80555006489550     -0.69900878513065      0.92941088641189
  N   1.77920565266107     -0.39677225310081      0.83855576629378
  H   1.51382743610324     -1.21880352268013      1.37328611113635
  H   2.71919315164593     -0.54006121749478      0.48606979416794
  C   0.71342836849526     -1.45911718584470     -1.07609904569108
  N   0.61153216321808     -2.47987336287404     -1.65046570357739
  C   -1.58242282269725      0.33867154525219     -0.77622353274029
  H   -1.31553012567538      1.17014656259611     -1.42899964983560
  H   -1.71056131504093     -0.56838076410307     -1.37042578953432
  H   -2.54272707966890      0.56859294383624     -0.30731742270623
  N   -0.36520385349110      1.40008227763561      1.04375491700421
  H   0.37516631981472      1.29640535205222      1.72673648029930
  H   -1.22905125168519      1.62336077284456      1.52154347557796
