16
Coordinates from ORCA-job run
  C   1.05051560871636     -0.23301574453986      0.12909544118397
  C   -0.30968027520618      0.48247821022242      0.34522430797210
  Cl  1.69138189255771     -0.76415837168487      1.71698013011950
  H   -0.14047763758277      1.27606305835844      1.08724145232946
  N   1.02162632118446     -1.36917460859167     -0.75984451330954
  H   0.49523911622607     -1.08489475981505     -1.58220673511373
  H   0.53770972094673     -2.13680788111017     -0.30859554364244
  C   1.98893512048419      0.76379008618078     -0.41175094371203
  N   2.66901959044938      1.61334299930639     -0.85368046870347
  C   -1.38291173222561     -0.46412057016876      0.85444423399128
  H   -1.07311797704737     -0.97859091856819      1.76364849873372
  H   -1.63141022016263     -1.20195709953591      0.08858319072073
  H   -2.29006463307082      0.10107778338608      1.08288544542497
  N   -0.69888147113977      0.98458819122410     -0.97066925675842
  H   -0.23184559483160      1.85971804467233     -1.17814344618131
  H   -1.69703782929816      1.14966158066395     -1.00421179305478
