16
Coordinates from ORCA-job run
  C   0.98156295418978     -0.16220718721806      0.10482104894994
  C   -0.38253298695141      0.42642277244433      0.49263275687892
  Cl  2.26740175622146      0.78367972802923      0.93388654804997
  H   -0.41553839784565      0.34868774270857      1.58937724864199
  N   1.09936488634296     -1.52765221370198      0.57460393470625
  H   0.53487504735517     -2.13176485264798     -0.01355327174142
  H   2.06273270092901     -1.83332096459013      0.48984767776135
  C   1.20547985580407     -0.02101972900844     -1.34553478190671
  N   1.36671888821676     -0.03852455633590     -2.50965314518724
  C   -1.51644209101141     -0.39441655215252     -0.10569157937022
  H   -2.47405302732710      0.05485075120056      0.17053841222708
  H   -1.52241288824324     -1.41494554367164      0.27873177691431
  H   -1.45261524253194     -0.40504693301441     -1.19673965995764
  N   -0.45816802206502      1.78495055230438     -0.01834539735580
  H   0.11678578702929      2.40976664715856      0.53266133754889
  H   -1.41215922011273      2.11954033849544      0.02341709384033
