16
Coordinates from ORCA-job run
  C   0.85945488896829     -0.39338346340601     -0.26612831150348
  C   -0.49591292883864      0.01379043198096      0.34929921622352
  Cl  1.49280479915150      1.05956229658001     -1.24772650971365
  H   -0.81478015083999     -0.88842954795029      0.88351010170146
  N   1.73535095411819     -0.78847338766924      0.76111788034973
  H   1.72004681013171     -0.08263910130451      1.48966945633337
  H   2.67343331770293     -0.97194738206108      0.43138084920088
  C   0.69278814466478     -1.46912757278614     -1.24622470382892
  N   0.53204961669330     -2.34693039298775     -2.00993472990815
  C   -1.55284011722519      0.38857234318495     -0.68001480082442
  H   -1.70367143763071     -0.40374688872340     -1.41691318957530
  H   -2.50336295257810      0.56155467613221     -0.16957580323008
  H   -1.27588581716651      1.30246186535345     -1.20838175905143
  N   -0.21768669741951      1.03198241673959      1.35720796120051
  H   -0.95274245023202      1.03951740295701      2.05246891373105
  H   -0.18804597950004      1.94723630396023      0.92224542889490
