16
Coordinates from ORCA-job run
  C   0.95537593243306     -0.14062396194764      0.13591833457527
  C   -0.42787408666945      0.40641139699978      0.56961033651101
  Cl  2.23509603303707      0.78698525476940      0.98962955173728
  H   -0.42929350707537      0.30937953709671      1.66023909038344
  N   1.10988156119778     -1.52443957425404      0.52273429977465
  H   0.50561542911243     -2.10587944993106     -0.04743084649048
  H   2.06685868985235     -1.82369997942767      0.37057008783855
  C   1.14237826818331      0.10234660251234     -1.30754423781790
  N   1.22192731464081      0.23292385141397     -2.47356703954862
  C   -1.55119162870665     -0.44035141102849     -0.01568949917531
  H   -2.50085672530456      0.00960774030784      0.27506118271260
  H   -1.53281188182999     -1.46411797094753      0.35982805713774
  H   -1.50825685500850     -0.45697876347482     -1.10975516296523
  N   -0.65923275786591      1.79422889568844      0.23246500996226
  H   -0.69107882549577      1.92284588650801     -0.77262306546269
  H   0.06346303949941      2.39236194571476      0.61155390082745
