16
Coordinates from ORCA-job run
  C   0.87902366450253     -0.19831692730221     -0.32710275143678
  C   -0.53699181498894     -0.01080534645693      0.30405870537868
  Cl  1.36268223329304      1.34110484964144     -1.12729509351632
  H   -0.75631630028960     -0.99270567589777      0.74597513869623
  N   1.93475956787306     -0.53869592948650      0.59824076400297
  H   2.00174699748593      0.16899675761570      1.31982020383559
  H   1.75138066906206     -1.44290577866789      1.02018737892855
  C   0.81984137238587     -1.24792202729350     -1.35051451305186
  N   0.72156356842486     -2.12614585543855     -2.12453921260730
  C   -1.60974068318866      0.31187519405322     -0.72442128534866
  H   -2.58178952028704      0.29260563178809     -0.23068302717092
  H   -1.45799791984860      1.31005133961064     -1.14000851723358
  H   -1.61642481699266     -0.40543305261905     -1.54692265516938
  N   -0.58721759333196      0.95924089622742      1.37637420022419
  H   -0.00153258052512      0.70218425011731      2.15946307275285
  H   -0.32298684357477      1.87987167410857      1.04736759171573
