16
Coordinates from ORCA-job run
  C   1.02186107594467     -0.13751612944673      0.03320189209378
  C   -0.35772481176861      0.36846079365441      0.55078701348233
  Cl  2.29702043490831      0.83745196712473      0.86771815743832
  H   -0.32159841712211      0.21691208834702      1.63766404631042
  N   1.32801635599477     -1.52403982130742      0.27053572055334
  H   0.79092396237368     -2.12191303459062     -0.34524018458325
  H   1.13375558612248     -1.76331100250309      1.23651307715576
  C   1.11524544840033      0.13608098373567     -1.40501765074404
  N   1.09558121395151      0.35947687647856     -2.55818267695132
  C   -1.48895277993112     -0.46466531230654     -0.03878933287254
  H   -1.51799424489489     -0.37054595278988     -1.12893978534956
  H   -2.43306931769851     -0.08851305411866      0.35611563863086
  H   -1.40571653379794     -1.52117241903600      0.21770325631387
  N   -0.63559512014612      1.76759680522759      0.30895397273473
  H   -0.71740611691693      1.94831672801472     -0.68551248969249
  H   0.09665326458046      2.35738048351622      0.68248934547981
