15

C	0.0	0.0	0.0
C	-0.604646	0.068067	-1.389687
Cl	1.806511	0.0	0.0
H	-1.687255	-0.067221	-1.225306
H	-0.436454	1.094811	-1.730721
N	-0.484498	0.968517	0.845049
H	-1.106113	1.676757	0.484811
H	-0.209527	0.993699	1.806391
N	-0.295104	-1.37607	0.643973
O	-0.118994	-1.441407	1.852305
O	-0.654252	-2.30756	-0.062401
N	0.018205	-0.847899	-2.353297
H	-0.406463	-1.755272	-2.22556
H	-0.226799	-0.513439	-3.277298
Cl	-3.948431	0.0	0.0
