15

C	0.0	0.0	0.0
C	-0.499856	-0.028168	-1.454144
Cl	1.779757	0.0	0.0
H	0.270632	-0.511515	-2.065441
H	-0.583927	1.021985	-1.758312
N	-0.522046	1.119681	0.694717
H	-1.541607	1.055392	0.593657
H	-0.3114	0.988131	1.68035
N	-0.351517	-1.270448	0.719951
O	-0.226776	-2.412743	-0.112846
O	0.069611	-1.393419	1.90563
N	-1.711684	-0.842325	-1.666748
H	-2.42213	-0.30697	-2.167167
H	-0.988106	-2.257806	-0.734929
Cl	-3.676083	0.0	0.0
