15

C	0.0	0.0	0.0
C	-0.409724	0.641609	-1.369878
Cl	1.825721	0.0	0.0
H	0.461243	0.562385	-2.019213
H	-0.54613	1.701884	-1.132114
N	-0.582551	0.597745	1.107601
H	-0.459091	0.025761	1.934516
H	-1.588551	0.685317	0.925624
N	-0.252198	-1.544038	-0.056159
O	-0.001659	-2.11837	-1.109887
O	-0.638838	-2.080795	0.974737
N	-1.550331	0.158452	-2.099813
H	-1.395382	-0.806502	-2.355735
H	-2.399787	0.197166	-1.53774
Cl	-3.891076	0.0	0.0
