15

C	0.0	0.0	0.0
C	-0.462122	0.120277	-1.440131
Cl	1.871225	0.0	0.0
H	0.047592	-0.644311	-2.032475
H	-1.5348	-0.095781	-1.406104
N	-0.524688	0.949447	0.848248
H	-0.646097	0.571852	1.779337
H	-1.418919	1.269291	0.479667
N	-0.260856	-1.445382	0.500301
O	-0.235754	-2.349286	-0.325093
O	-0.428848	-1.584505	1.705576
N	-0.271205	1.489279	-1.897976
H	0.698919	1.640608	-2.142399
H	-0.840134	1.643136	-2.719386
Cl	-3.626601	0.0	0.0
