15

C	0.0	0.0	0.0
C	-0.490225	0.018746	-1.434335
Cl	1.875199	0.0	0.0
H	-0.051693	-0.83548	-1.953067
H	-1.571531	-0.135861	-1.365043
N	-0.518069	0.993698	0.804921
H	-1.525682	1.048578	0.617128
H	-0.369384	0.76671	1.781064
N	-0.241405	-1.434058	0.59281
O	-0.230949	-2.38878	-0.174843
O	-0.383103	-1.498468	1.808132
N	-0.20659	1.303361	-2.055773
H	-0.982235	1.572997	-2.643677
H	0.629897	1.250612	-2.619767
Cl	-3.611182	0.0	0.0
