18

C	0.0	0.0	0.0
C	-0.695061	-0.017699	-1.341266
Br	1.933685	0.0	0.0
H	-1.793979	-0.21594	-0.985135
C	-0.515567	1.169877	0.820175
H	-1.607356	1.042648	0.801162
H	-0.22942	2.103568	0.341662
H	-0.110101	1.108047	1.83082
N	-0.391982	-1.256508	0.832061
O	0.115468	-1.33404	1.948567
O	-1.205993	-2.041854	0.372502
N	-0.184803	-1.104892	-2.255437
O	0.333579	-2.112038	-1.774473
O	-0.33207	-0.919097	-3.469637
N	-0.638799	1.261584	-1.977943
H	0.15822	1.32713	-2.598185
H	-1.477835	1.396386	-2.52289
F	-2.945817	0.0	0.0
