18

C	0.0	0.0	0.0
C	-0.50217	-0.037834	-1.441418
Br	1.921569	0.0	0.0
H	-1.590338	-0.26746	-1.343134
C	-0.40554	1.215823	0.800965
H	0.005176	1.126422	1.809326
H	0.063195	2.09256	0.352126
H	-1.491735	1.293022	0.788698
N	-0.285959	-1.391462	0.974668
O	-1.404324	-1.699689	1.387932
O	0.754077	-2.001718	1.213853
N	0.159935	-1.220353	-2.190203
O	0.09605	-2.322447	-1.652998
O	0.730217	-0.987141	-3.253415
N	-0.268769	1.198008	-2.092655
H	-0.868333	1.284952	-2.899554
H	0.694635	1.284762	-2.393304
F	-2.549182	0.0	0.0
