16

C	0.0	0.0	0.0
C	-0.305603	0.266688	-1.552188
F	1.379444	0.0	0.0
H	0.663749	0.022566	-1.998761
C	-0.491831	1.024452	0.922281
N	-0.5287	1.905803	1.710106
C	-0.487965	-1.326907	0.395052
N	-0.492166	-2.473003	0.687539
C	-0.601571	1.73676	-1.793053
H	-1.56618	1.986333	-1.345893
H	0.166441	2.381245	-1.353397
H	-0.64619	1.913204	-2.869288
N	-1.292484	-0.557399	-2.21753
H	-2.108924	-0.501944	-1.593629
H	-0.977037	-1.52239	-2.182705
H	-2.265014	0.0	0.0
