16

C	0.0	0.0	0.0
C	-0.333032	0.118703	-1.535683
F	1.382553	0.0	0.0
H	0.647467	-0.065347	-1.988604
C	-0.490529	1.122168	0.809106
N	-0.512431	2.094171	1.480688
C	-0.4387	-1.271973	0.596626
N	-0.471056	-2.329863	1.116692
C	-0.772728	1.530427	-1.91913
H	-0.050076	2.286338	-1.592813
H	-0.857905	1.591101	-3.010402
H	-1.743528	1.738353	-1.467018
N	-1.21065	-0.95063	-1.995028
H	-1.430199	-0.771561	-2.971314
H	-2.060447	-0.81779	-1.428553
H	-2.322907	0.0	0.0
