16

C	0.0	0.0	0.0
C	-0.26484	0.035955	-1.561572
F	1.390047	0.0	0.0
H	-1.341076	0.059236	-1.698341
C	-0.663146	1.159181	0.617076
N	-0.612629	2.252207	1.091986
C	-0.480022	-1.23702	0.631111
N	-0.501882	-2.302736	1.143071
C	0.320299	-1.19574	-2.232079
H	0.113889	-1.139879	-3.303077
H	1.403762	-1.245119	-2.092251
H	-0.120981	-2.109963	-1.829603
N	0.304102	1.239384	-2.156795
H	1.27851	1.303566	-1.878732
H	-0.164349	2.045509	-1.752906
H	-2.173899	0.0	0.0
