16

C	0.0	0.0	0.0
C	-0.268208	-0.018692	-1.562671
F	1.385823	0.0	0.0
H	-1.344961	0.017769	-1.695193
C	-0.637348	1.194894	0.575511
N	-0.590174	2.302761	1.010492
C	-0.503986	-1.201784	0.676656
N	-0.510483	-2.250523	1.226037
C	0.29482	-1.285801	-2.182315
H	0.101178	-1.264392	-3.256614
H	-0.171617	-2.174615	-1.752429
H	1.374324	-1.354742	-2.027516
N	0.31963	1.149367	-2.204925
H	1.296784	1.207759	-1.935759
H	-0.132525	1.980182	-1.835433
H	-2.180276	0.0	0.0
