16

C	0.0	0.0	0.0
C	-0.167163	-0.020751	-1.57599
F	1.392553	0.0	0.0
H	0.45998	0.846918	-1.849553
C	-0.74946	1.146838	0.537853
N	-0.725744	2.262843	0.969436
C	-0.448071	-1.235309	0.658897
N	-0.486651	-2.258792	1.246739
C	-1.508002	0.171744	-2.252807
H	-1.320397	0.250049	-3.337801
H	-2.000266	1.081906	-1.91753
H	-2.166472	-0.672196	-2.058347
N	0.406502	-1.284261	-2.052591
H	0.414044	-1.267738	-3.06619
H	1.368119	-1.346116	-1.741992
H	-2.053001	0.0	0.0
