13
Coordinates from ORCA-job run
  C   -0.54594681855927     -0.01615808906168      0.19200161339872
  C   0.54705280880076     -0.59064149337868     -0.72257665887186
  Cl  -1.99253075944728      0.30936664435146     -0.74531964391356
  H   1.42067520249771     -0.81773007239979     -0.10590641802564
  H   0.17110828102735     -1.52167344353427     -1.15428454729753
  N   0.03138462223785      1.29272631455058      0.76655028153258
  O   -0.45994332808082      2.36731235563803      0.47235550691593
  O   0.99858553302493      1.09414579275831      1.49751926581367
  N   -0.88404295391311     -0.80753720737587      1.33084567252037
  H   -1.42785610859359     -1.61706970312067      1.06472845902255
  H   -0.05233020374601     -1.08002727951091      1.83941593880209
  C   0.93729494846089      0.32466718065404     -1.79069289409015
  N   1.25654877629058      1.06361900042945     -2.64463657580718
