13
Coordinates from ORCA-job run
  C   -0.36252104895355      0.12709970169525      0.16644999589991
  C   0.77330727880918      0.16733217870390     -0.84914257489875
  Cl  -1.94078326917028      0.28102540531607     -0.73262474365754
  H   1.71450663660323      0.28298727191437     -0.30581802279140
  H   0.65033057362438      1.01976881755032     -1.51601231564179
  N   -0.30869532222452      1.38612197789789      1.03488664243626
  O   0.33092263789374      2.33804562484503      0.60597167048949
  O   -0.93663073806129      1.33745089079838      2.08319198606257
  N   -0.26553637289076     -0.96790361035091      1.03129290507675
  H   -0.27811219532161     -1.84846291594252      0.53231112642133
  H   -0.98488262832666     -0.94638431460057      1.74288798398686
  C   0.79837786515093     -1.07818021171164     -1.60871404160998
  N   0.80971658286721     -2.09990081611557     -2.18568061177370
