16

C	0.0	0.0	0.0
C	-0.168855	-0.111199	-1.515392
Cl	1.865073	0.0	0.0
H	0.118593	0.847107	-1.975627
H	0.483854	-0.909249	-1.867637
C	-0.507819	1.299248	0.583937
H	-0.031963	2.138332	0.077844
H	-0.284045	1.347428	1.653887
H	-1.591016	1.315804	0.448761
N	-0.465129	-1.109147	0.695222
H	-1.038335	-0.984486	1.527878
H	-0.656196	-1.951489	0.160505
N	-1.509593	-0.44713	-2.034169
O	-2.123256	0.44177	-2.629353
O	-1.838316	-1.630335	-1.957872
Cl	-3.958038	0.0	0.0
