16

C	-0.410706	0.023469	-1.439286
C	0.0	0.0	0.0
Br	-2.331191	0.32852	-1.729017
H	1.098165	0.0	0.0
H	0.11137	0.817245	-1.978486
N	-0.043044	-1.261907	-2.155252
O	0.665583	-2.064121	-1.550984
O	-0.419767	-1.383789	-3.319777
N	-0.567253	-1.151272	0.69923
H	-0.924978	-0.857131	1.600428
H	0.193824	-1.794218	0.866648
C	-0.364589	1.314221	0.672065
H	0.197841	1.369551	1.608822
H	-0.051241	2.166939	0.060078
H	-1.438618	1.407195	0.88011
F	2.624667	0.0	0.0
