16

C	-0.380626	0.000177	-1.459439
C	0.0	0.0	0.0
Br	-0.25299	1.721897	-2.359533
H	1.096541	0.0	0.0
H	0.271243	-0.675935	-2.001361
N	-1.776862	-0.503635	-1.724027
O	-1.920827	-1.286077	-2.660007
O	-2.6821	-0.110929	-0.991668
N	-0.360965	-1.353712	0.449797
H	0.438029	-1.708028	0.962303
H	-1.169758	-1.334488	1.061913
C	-0.528792	1.111301	0.881804
H	-0.232847	2.092046	0.507096
H	-0.072145	0.990909	1.868078
H	-1.617893	1.08762	0.983989
F	2.632837	0.0	0.0
