16

C	-0.620045	-0.043427	-1.381269
C	0.0	0.0	0.0
Br	0.19509	-1.39001	-2.520748
H	1.099069	0.0	0.0
H	-1.681221	-0.281537	-1.336708
N	-0.537141	1.290503	-2.061619
O	0.534916	1.675665	-2.505677
O	-1.5846	1.946534	-2.053875
N	-0.474562	-1.242826	0.663149
H	-0.515643	-1.049733	1.659027
H	0.293202	-1.901783	0.55566
C	-0.489371	1.219115	0.76453
H	-0.022118	1.196911	1.753042
H	-0.160853	2.143269	0.286408
H	-1.580497	1.244749	0.881005
F	2.6368	0.0	0.0
