16

C	-0.253393	0.053222	-1.475532
C	0.0	0.0	0.0
Br	-2.165973	-0.12669	-2.026751
H	1.098705	0.0	0.0
H	0.078568	0.991986	-1.912222
N	0.487046	-1.003909	-2.246709
O	1.190484	-0.60804	-3.173026
O	0.340307	-2.17659	-1.917121
N	-0.462669	-1.181281	0.709505
H	-1.3528	-1.500061	0.338685
H	0.211857	-1.917212	0.544938
C	-0.502474	1.266812	0.666788
H	-0.136523	1.263644	1.694709
H	-1.598298	1.320748	0.687355
H	-0.111802	2.159349	0.167982
F	2.584963	0.0	0.0
