16

C	-0.307242	-0.024401	-1.449711
C	0.0	0.0	0.0
Br	-2.224553	-0.27536	-1.94176
H	1.106153	0.0	0.0
H	-0.006838	0.901707	-1.931726
N	0.440811	-1.09336	-2.201022
O	1.064689	-0.726902	-3.193417
O	0.372681	-2.249543	-1.794617
N	-0.555982	-1.134328	0.756466
H	-0.370576	-1.974743	0.218834
H	0.0455	-1.212984	1.573376
C	-0.472262	1.302312	0.619297
H	-0.025213	2.158396	0.105474
H	-1.564411	1.386215	0.611075
H	-0.130218	1.337313	1.657692
F	2.60321	0.0	0.0
