16

C	-0.448946	0.012949	-1.458346
C	0.0	0.0	0.0
F	0.098425	1.066652	-2.116941
H	1.10187	0.0	0.0
C	-0.155964	-1.23293	-2.16939
N	0.119456	-2.19688	-2.77926
N	-1.969979	0.22533	-1.511197
O	-2.657618	-0.752209	-1.24112
O	-2.367689	1.352173	-1.766866
N	-0.440104	-1.214824	0.631945
H	0.25587	-1.520949	1.297594
H	-1.331027	-1.070509	1.08926
N	-0.554999	1.202258	0.63592
H	-0.032229	1.319575	1.498411
H	-0.316093	2.011405	0.06528
Cl	3.345492	0.0	0.0
