16

C	-0.553529	-0.059211	-1.421733
C	0.0	0.0	0.0
F	-0.15118	-1.206257	-2.041299
H	1.098397	0.0	0.0
C	-2.02266	-0.003361	-1.438644
N	-3.196601	0.014392	-1.426388
N	-0.029737	1.10663	-2.254466
O	1.028366	0.916107	-2.834001
O	-0.708475	2.127198	-2.253655
N	-0.5245	-1.199076	0.675595
H	-0.107122	-1.190934	1.60198
H	-0.12698	-2.012103	0.212714
N	-0.458622	1.214061	0.618667
H	-1.319187	1.051671	1.126362
H	0.255143	1.579808	1.232183
Cl	3.357395	0.0	0.0
