16

C	-0.531931	0.053481	-1.42762
C	0.0	0.0	0.0
F	0.016971	-0.921663	-2.192944
H	1.095842	0.0	0.0
C	-1.999948	-0.080864	-1.448811
N	-3.165836	-0.222703	-1.4517
N	-0.207629	1.356608	-2.171795
O	0.48043	2.200152	-1.611346
O	-0.648328	1.421843	-3.315304
N	-0.440898	-1.276134	0.520924
H	-1.296361	-1.169207	1.052528
H	0.287121	-1.678877	1.094598
N	-0.583915	1.116628	0.749544
H	-0.054984	1.951814	0.522704
H	-0.40252	0.923269	1.728846
Cl	3.366996	0.0	0.0
