16

C	-0.399445	-0.012596	-1.487599
C	0.0	0.0	0.0
F	0.210282	1.002039	-2.145123
H	1.101273	0.0	0.0
C	-0.126547	-1.290332	-2.152222
N	0.07512	-2.316821	-2.685234
N	-1.90608	0.236611	-1.60401
O	-2.277615	1.303832	-2.059297
O	-2.6188	-0.671216	-1.184582
N	-0.443344	-1.136533	0.759759
H	-1.37718	-1.431479	0.50704
H	0.212538	-1.899027	0.657445
N	-0.585298	1.217796	0.557369
H	-0.007262	2.002618	0.274414
H	-0.483126	1.120778	1.560721
Cl	3.355276	0.0	0.0
