16

C	-0.549353	-0.013821	-1.427336
C	0.0	0.0	0.0
F	-1.918676	-0.118557	-1.379374
H	1.092693	0.0	0.0
C	-0.206452	1.167655	-2.219397
N	-0.00691	2.113745	-2.885765
N	-0.060484	-1.24802	-2.180766
O	-0.748361	-2.257528	-2.072985
O	0.992381	-1.13619	-2.791384
N	-0.434248	-1.180148	0.731324
H	-1.219729	-1.641267	0.291518
H	0.336456	-1.832264	0.797256
N	-0.474002	1.254799	0.571645
H	0.286992	1.649327	1.111065
H	-1.228762	1.040479	1.211722
Cl	3.314275	0.0	0.0
