16

C	-0.4639	-0.048056	-1.451763
C	0.0	0.0	0.0
F	0.134965	0.931164	-2.175362
H	1.100156	0.0	0.0
C	-0.262311	-1.348176	-2.095348
N	-0.08548	-2.355317	-2.671789
N	-1.972901	0.249365	-1.497021
O	-2.316138	1.348282	-1.900026
O	-2.701861	-0.64158	-1.077631
N	-0.445694	-1.173163	0.698478
H	0.231717	-1.423647	1.404952
H	-1.357434	-1.021029	1.110387
N	-0.539703	1.243936	0.573701
H	-0.105029	1.331368	1.487776
H	-0.177165	2.023043	0.029086
Cl	3.336704	0.0	0.0
