15

C	0.0	0.0	0.0
C	-0.424822	0.216649	-1.455612
Cl	1.788573	0.0	0.0
H	0.025348	1.153986	-1.791521
H	-1.513045	0.308017	-1.38693
N	-0.490963	1.132726	0.755151
H	-0.249324	0.984305	1.732076
H	-1.515189	0.987912	0.655572
N	-0.49714	-1.299704	0.411607
H	-0.217556	-1.458664	1.376444
H	-1.522828	-1.118021	0.38193
N	0.025073	-0.89387	-2.31205
H	-0.099476	-1.729723	-1.74651
H	-0.632466	-0.967286	-3.082033
F	-2.863666	0.0	0.0
