15

C	0.0	0.0	0.0
C	-0.363443	-0.161155	-1.473252
Cl	1.907747	0.0	0.0
H	-1.458272	-0.172562	-1.436705
H	0.021451	-1.128525	-1.820347
N	-0.439165	1.234147	0.573924
H	-1.465387	1.076784	0.543497
H	-0.233734	1.961318	-0.107139
N	-0.483178	-1.136242	0.714603
H	-0.312706	-0.943778	1.698084
H	-1.509394	-1.013027	0.563769
N	0.09006	0.984964	-2.263096
H	1.071209	0.870293	-2.48884
H	-0.430328	1.013166	-3.130564
F	-2.829083	0.0	0.0
