15

C	0.0	0.0	0.0
C	-0.431581	-0.045115	-1.456892
Cl	1.885384	0.0	0.0
H	-1.526337	-0.082966	-1.328263
H	-0.132631	0.900719	-1.935485
N	-0.578091	1.060834	0.73927
H	-1.61078	0.776423	0.619305
H	-0.427914	1.925843	0.227115
N	-0.359982	-1.22255	0.620451
H	-0.019805	-1.236143	1.570726
H	-0.003739	-1.993648	0.073277
N	0.06179	-1.237823	-2.146661
H	0.970361	-1.05519	-2.553713
H	-0.580803	-1.483239	-2.887768
F	-2.895762	0.0	0.0
