9
Coordinates from ORCA-job run
  C   0.25992910030067      0.55019369353055     -0.04012744022019
  C   -0.95681098574256     -0.34922173219445     -0.09435606020185
  F   0.49032506026849      1.09106546594281     -1.29531878825589
  H   -0.78821965752159     -1.15641371074306     -0.80744113483296
  H   0.10567890087133      1.38565922443880      0.64798785316200
  H   -1.15978442301239     -0.77815313113393      0.88837932697014
  H   -1.82009645632336      0.23526089433126     -0.41460638331945
  C   1.46322912267904     -0.18680552118207      0.38183475022084
  N   2.40474933848037     -0.79158518298991      0.73364787647736
