9
Coordinates from ORCA-job run
  C   0.26234755669869      0.55015612650584      0.01413976615583
  C   -0.95717946233984     -0.33409646565717     -0.13617452913468
  F   0.50820157849397      1.20455148652624     -1.18287362686054
  H   -0.78400962035563     -1.07138764603663     -0.92034074232962
  H   0.10541985660561      1.31880929177385      0.77562911247626
  H   -1.17158945298413     -0.85267118992950      0.79975277776095
  H   -1.81532185358223      0.28131788860272     -0.40859559769082
  C   1.45815623277087     -0.22908661054535      0.37756194751885
  N   2.39397516469268     -0.86759288124001      0.68190089210376
