12
Coordinates from ORCA-job run
  C   1.30235720588771     -0.12158875131150      0.03333419734879
  C   -0.16006314780122     -0.15688169527033     -0.38298587477487
  F   1.93997166897872     -1.23860751766684     -0.45705417407936
  H   -0.23429876030612     -0.18965175773520     -1.47074551968468
  H   1.37868312395740     -0.12475953199174      1.12537606245067
  H   1.78739440876815      0.76634146904135     -0.37401754608645
  N   -0.70022549177630      1.23976785310926     -0.01270785706916
  O   -1.36406194586303      1.33241949710643      1.01646693407509
  O   -0.38856462940839      2.16373802761047     -0.75878655046403
  N   -0.86512019840871     -1.22445797583838      0.20769782432724
  H   -1.81075774825076     -1.29687723054769     -0.14015272314292
  H   -0.88531448577745     -1.14844238650582      1.21557522709967
