12
Coordinates from ORCA-job run
  C   1.27969554631363     -0.24198267415645     -0.22856977207012
  C   -0.21990483121423     -0.14941150789049     -0.39566506477033
  F   1.56856943371228     -0.21024318901416      1.12974023959691
  H   -0.47089638141649     -0.14452473767154     -1.45935341384822
  H   1.62918242482479     -1.19339245309977     -0.63108185084949
  H   1.78096712480194      0.59736387998366     -0.70784517641235
  N   -0.62832863691964      1.26921606480819      0.06835365995939
  O   -0.14199537393820      2.20136235280234     -0.56406296370145
  O   -1.40486413538775      1.36167604767994      1.01221920826087
  N   -0.88256244057772     -1.19105712840512      0.28938520320793
  H   -0.62280046371932     -1.19074130497402      1.26665897677147
  H   -1.88706226647928     -1.10926535006257      0.22022095385540
