12
Coordinates from ORCA-job run
  C   1.26415188446097     -0.16860810014159     -0.24344864152880
  C   -0.24403578583469     -0.02228472995830     -0.25638525043440
  F   1.54482611320244     -1.45180183385120     -0.70596434345348
  H   -0.61494262702860     -0.06633697915364     -1.29031360138536
  H   1.64396631333360     -0.07553656365746      0.77360164974233
  H   1.74699276624486      0.54992676551820     -0.90228125642164
  N   -0.63391642448828      1.35463246144269      0.21497316205159
  O   -1.83648369793529      1.54348357826150      0.35906820195020
  O   0.25482109314311      2.18245796130770      0.40336624920425
  N   -0.84190461478496     -0.96142765605627      0.65164265793585
  H   -1.84214569136145     -1.00744855831878      0.50938508844312
  H   -0.44132932895172     -1.87605634539286      0.48735608389636
