12
Coordinates from ORCA-job run
  C   1.18210873362099     -0.34563296412710     -0.30492370403190
  C   -0.29357905290861      0.02927488830286     -0.32342048498879
  F   1.55009737453938     -0.80355330207032      0.94515193238580
  H   -0.65095386175320      0.09347463490580     -1.35193286280070
  H   1.33922069567552     -1.16106114183614     -1.01617210341732
  H   1.82043590213330      0.50107183733348     -0.56532431164083
  N   -0.46054165272032      1.43340493395979      0.21866823618161
  O   -1.12860717745336      2.22060568872588     -0.44555729484274
  O   0.03151638968405      1.64943776327239      1.32218193039181
  N   -1.13877206461941     -0.83005304381703      0.44482328413902
  H   -1.61512976010736     -1.51367725657046     -0.12138598191175
  H   -0.63479552609097     -1.27329203807914      1.19889136053578
