17

C	-0.482787	0.038217	-1.434424
C	0.0	0.0	0.0
Cl	0.227737	-1.39135	-2.388944
H	1.094968	0.0	0.0
H	-0.048765	0.899166	-1.943565
N	-1.909402	0.074006	-1.561431
H	-2.298851	-0.77404	-1.165632
H	-2.165667	0.096913	-2.540269
C	-0.479126	-1.220896	0.77376
H	0.028204	-1.240003	1.741576
H	-0.220525	-2.146154	0.254505
H	-1.560317	-1.205611	0.964378
C	-0.419573	1.294776	0.69549
H	0.02267	1.321604	1.696481
H	-0.033825	2.162615	0.151913
H	-1.506692	1.390394	0.776624
H	3.031774	0.0	0.0
