17

C	-0.629294	0.057424	-1.378255
C	0.0	0.0	0.0
Cl	-0.10412	1.52343	-2.306828
H	1.095656	0.0	0.0
H	-1.709748	0.232357	-1.251815
N	-0.335654	-1.088505	-2.207289
H	-0.957185	-1.091862	-3.005405
H	-0.48491	-1.93828	-1.676462
C	-0.412548	-1.295062	0.703731
H	-1.49907	-1.462746	0.6908
H	-0.088381	-1.244957	1.74571
H	0.09488	-2.163446	0.274416
C	-0.443243	1.194849	0.838157
H	0.078349	1.16647	1.797213
H	-1.525425	1.190826	1.026859
H	-0.176255	2.136065	0.355416
H	3.016376	0.0	0.0
