17

C	-0.318919	-0.284939	-1.466203
C	0.0	0.0	0.0
Cl	-0.429653	1.330485	-2.475802
H	1.098333	0.0	0.0
H	-1.331463	-0.665236	-1.633519
N	0.659622	-1.158357	-1.966031
H	1.592929	-0.871524	-1.652336
H	0.618846	-1.279262	-2.967782
C	-0.466301	-1.200359	0.820567
H	-1.562507	-1.252508	0.873991
H	-0.076849	-1.119721	1.840078
H	-0.088407	-2.128862	0.390146
C	-0.550093	1.29604	0.564014
H	-1.63475	1.376277	0.422879
H	-0.07926	2.159897	0.097287
H	-0.339966	1.337887	1.63717
H	3.022184	0.0	0.0
