17
Coordinates from ORCA-job run
  C   -0.84348998924946      0.22766967639692      0.42862825573627
  C   0.64563769005793      0.44706605531581      0.17630316087705
  F   -1.26618077112426      1.10480230883953      1.39952656958794
  H   0.81627482337193      1.52130519674061      0.22072022541925
  N   -1.57640419778808      0.77505421594950     -0.83542746334399
  O   -2.38327630750407      0.03417080190333     -1.38649715059340
  O   -1.28992771393413      1.91893102473326     -1.16697875910520
  N   -1.20084371376162     -1.07060177110066      0.73115053824607
  H   -2.13505110772624     -1.31906781644445      0.44326482147995
  H   -0.51399692967619     -1.77509900157956      0.51757754854397
  C   1.15675345758261     -0.15753427253206     -1.11638976809349
  H   0.91715087477833     -1.21695255032789     -1.19658808476150
  H   0.72596013646021      0.37443099761163     -1.96518301985559
  H   2.24131694367114     -0.05117837978685     -1.16786256341220
  N   1.38652251990594     -0.12672838325149      1.35023276859980
  O   1.60550199225116     -1.33799668776381      1.32934575247119
  O   1.71405229268481      0.65072858529616      2.24017716820387
