17
Coordinates from ORCA-job run
  C   -0.80296433511118     -0.00718986393443     -0.22277005601649
  C   0.60638542075380     -0.02106679416434      0.34587682013565
  F   -0.76630213786274     -0.06471566994188     -1.59284963232511
  H   0.53596049301042     -0.00782289241497      1.43242052357388
  N   -1.58958118650739     -1.23164618554290      0.24415029940272
  O   -1.22051711060229     -1.76956955588759      1.27913148320047
  O   -2.57192105849607     -1.51387182473231     -0.42823345731648
  N   -1.54067972324678      1.09426227739842      0.26115156063772
  H   -2.49380006464773      1.04061938731065     -0.08275094048203
  H   -1.13096180439511      1.96573658377899     -0.04873052550703
  C   1.45256989229623      1.13247451874791     -0.16938673404840
  H   1.47989029858355      1.13306680197726     -1.25978906854393
  H   1.05955888911030      2.08691055560544      0.18448213652677
  H   2.46593059784762      1.02995300934504      0.21626449055018
  N   1.31853399078911     -1.31066977833746      0.02192238758746
  O   2.40511095831115     -1.45260202664200      0.57309328062082
  O   0.79378688016712     -2.10286854256583     -0.75298256799620
