17
Coordinates from ORCA-job run
  C   -0.87347888785399      0.35292716803995      0.05828742116563
  C   0.65033954069985      0.37267356837940      0.23027912433218
  F   -1.19129403600116      1.58126955318764     -0.48661861734030
  H   0.85423160499062      1.29075144896546      0.78659891900712
  N   -1.24225425938323     -0.67023503079239     -1.02966425955534
  O   -0.86926433223823     -1.81126824946822     -0.79044210086375
  O   -1.85311984584198     -0.27975173541515     -2.01519051018903
  N   -1.59650766922930      0.03293774725521      1.19969668834934
  H   -1.17904454432772      0.35603520987952      2.05933102127869
  H   -2.57462681548677      0.27455405702828      1.12127570790863
  C   1.39555198510089      0.35600818253169     -1.08599871357113
  H   2.45753002321353      0.53291690352040     -0.91440304284276
  H   1.28712279446442     -0.60637880119851     -1.58311451407590
  H   1.00794420756750      1.14713361755133     -1.72957426862544
  N   1.12105398357050     -0.71946961392710      1.15348079586069
  O   1.71734752113361     -1.67660397473569      0.67711233111210
  O   0.88946872962146     -0.53650005080181      2.34894401804928
