17
Coordinates from ORCA-job run
  C   -0.84185288680589      0.25707407948393      0.16240333492959
  C   0.64778339854846      0.43162865460604     -0.10649794087862
  F   -1.25627707200611      1.37373364014190      0.89017646603203
  H   0.78191627348465      1.35636789994804     -0.66278771423577
  N   -1.63112194297089      0.41069646948801     -1.14433258233855
  O   -2.80997329170280      0.08518222857507     -1.08394847564551
  O   -1.05524789067454      0.88501483402925     -2.11769345243354
  N   -1.20234455535450     -0.96273113746201      0.71689103558778
  H   -0.66674742600880     -1.15473067898291      1.55318352636153
  H   -2.19997181708835     -1.01831334810260      0.87413719668850
  C   1.30552521638004     -0.74982022549173     -0.79022165058860
  H   0.84848239756624     -0.90623954904517     -1.76703704633070
  H   1.18941112844400     -1.65404522930726     -0.19516239806817
  H   2.36753437679406     -0.54314797106162     -0.93697522548545
  N   1.32730512286903      0.67637630186557      1.21207114360788
  O   1.20046616132140     -0.18618070905578      2.08170421599627
  O   1.99511280720400      1.69913474037127      1.31408956680134
