17
Coordinates from ORCA-job run
  C   -0.86430295205204      0.37499146787943      0.06495081072663
  C   0.66158535121272      0.35943826676484      0.21961862235197
  F   -1.15816568539852      1.60491251089762     -0.49027262181755
  H   0.89395039499733      1.27774122457523      0.76426026117370
  N   -1.26926408083294     -0.65050135891456     -1.00849306153522
  O   -1.87520284655534     -0.25441402630341     -1.99484096670128
  O   -0.92667802693597     -1.79865098513223     -0.75796492505523
  N   -1.58184368330452      0.08565775991641      1.21726985662641
  H   -1.14519829038956      0.39998321144896      2.07041974944154
  H   -2.55449494216317      0.35058869996057      1.14882865474286
  C   1.39033202508683      0.31247442996247     -1.10516675728268
  H   1.25029239355300     -0.65008831386276     -1.59400545565273
  H   1.01716801558073      1.10938069268649     -1.75005398895790
  H   2.45878925347279      0.46107249394583     -0.94730220334989
  N   1.11643138432505     -0.73521064773984      1.14720559364333
  O   0.90174732762916     -0.53706352829402      2.34350385669332
  O   1.68485436177446     -1.71031189779103      0.67304257495273
