17
Coordinates from ORCA-job run
  C   -0.83018087170346     -0.13608293157114     -0.24586915901904
  C   0.60689578073946      0.02921989766840      0.27274351681457
  F   -0.77309791076517     -0.47115553301284     -1.55416643150279
  H   0.56966854054093      0.05345089576001      1.36311509268667
  N   -1.48907354554633     -1.28756647348413      0.51629603148551
  O   -1.68065727571267     -1.05264497376758      1.70484637155182
  O   -1.77227287125814     -2.29934471979006     -0.10031116752047
  N   -1.70948398148491      0.96390897513069     -0.09349796240028
  H   -1.39550296757289      1.76272556353089     -0.62715868605122
  H   -1.84872681788363      1.19930070876112      0.87943932131196
  C   1.29488384505361      1.24251432577804     -0.31391782117262
  H   2.34791020314685      1.24702592346864     -0.03271310960375
  H   0.83948186449543      2.15303078036158      0.07845212345313
  H   1.23627940893327      1.23718826425503     -1.40173150564552
  N   1.35965395482523     -1.23088179021750     -0.06624836491758
  O   1.13175672784900     -2.19915056008072      0.65669475594545
  O   2.11046591634344     -1.21153835279044     -1.03597300541584
