17
Coordinates from ORCA-job run
  C   -0.80265283740050      0.08651572530215     -0.22150385096844
  C   0.64121620965391      0.06950232887674      0.26700871079346
  F   -0.89211592222255      0.17523742037486     -1.56303813991572
  H   0.65116037888120      0.21744104976169      1.34641440915432
  N   -1.49152099442894     -1.23694303524217      0.17492698614651
  O   -2.23527535440085     -1.77406781396434     -0.62872490557945
  O   -1.28572260991157     -1.57200042927895      1.33993968874256
  N   -1.48690064518835      1.19133626861960      0.34439457139738
  H   -1.57759111948433      1.09299010899717      1.34762450757136
  H   -2.40163796592260      1.29165307107510     -0.08092725649370
  C   1.47868119770871      1.11484076536100     -0.44960321528051
  H   2.48033705091936      1.13696137113512     -0.01895914932668
  H   1.01346891596674      2.09322303610603     -0.33243474087073
  H   1.54660746645819      0.87846714895742     -1.51179078307917
  N   1.27952298744157     -1.26889321713177      0.05669287802138
  O   0.88956451312109     -1.93948083225651     -0.89615424655757
  O   2.19085872880891     -1.55778296669314      0.82513453624500
