17
Coordinates from ORCA-job run
  C   -0.88333290652188      0.38394539581303      0.23316478261075
  C   0.61982400087485      0.45925020640109     -0.08097898588609
  F   -1.20913186530019      1.58389656785701      0.80245266862387
  H   0.79145098962926      1.36119952078717     -0.66860968403299
  N   -1.56620726278262      0.37614512417473     -1.14785642056882
  O   -2.03986093275331     -0.68390337700130     -1.54602249430042
  O   -1.53278892283450      1.43548517559793     -1.75808216122844
  N   -1.39089030063359     -0.67839380636252      0.98256766741269
  H   -0.74265151408809     -0.98552140882219      1.69326703092923
  H   -1.73066212258766     -1.43224056160896      0.40445256858503
  C   1.16450236715808     -0.78728634632748     -0.74584174999397
  H   0.69985143553491     -0.93013298020524     -1.72281200439978
  H   2.24125193536307     -0.68959977816316     -0.89499944321537
  H   0.97292622156018     -1.66640956994632     -0.13087296086209
  N   1.34867642967912      0.69901785086160      1.20754628992592
  O   1.24893378623079     -0.17169877768124      2.07354100410360
  O   2.01110866147159      1.72624676462585      1.29808389229688
