17
Coordinates from ORCA-job run
  C   -0.83962380584123      0.35818838453444      0.10325321933334
  C   0.68872106877502      0.36389967448046      0.13467957469437
  F   -1.21310176735043      1.49850997241938     -0.60248069972057
  H   0.96212796308664      1.23802462634362      0.73129971734155
  N   -1.43204132864563     -0.77792398509248     -0.73715400296928
  O   -1.08178811787726     -0.80058135860516     -1.90892996546997
  O   -2.23977384678005     -1.52587984030485     -0.20133439612066
  N   -1.35767204948152      0.27042379351410      1.39088723236371
  H   -1.09486183021887      1.05765146508403      1.96652194120324
  H   -2.35063308980082      0.08847943906735      1.41687534510980
  C   1.42625831212331      0.37925901491433     -1.18960575944655
  H   1.04375007926802      1.18582325981752     -1.81420820881635
  H   2.48741209856185      0.55232183415719     -0.99795700798782
  H   1.30356573073715     -0.56235332204546     -1.71827739573291
  N   1.12331249196307     -0.81509984750067      0.94716077268352
  O   0.84052699387744     -1.91960509481032      0.49145351229251
  O   1.73282109760330     -0.59113801597349      1.98881612124206
