17
Coordinates from ORCA-job run
  C   -0.80061451926384     -0.08706779733179     -0.10813648963458
  C   0.67793465279335     -0.04439954661911      0.26241712263687
  F   -0.91471521925902     -0.52979616646229     -1.40429453836679
  H   0.74951106178056     -0.10898346530651      1.34893827396864
  N   -1.55486610321632     -1.10022354053398      0.76411372740037
  O   -2.43262763619425     -1.74589701619058      0.20992933150240
  O   -1.26328729444886     -1.11106757733113      1.95072836941169
  N   -1.44591652718922      1.14234030680919      0.12212923797199
  H   -1.06960277859820      1.86450127525349     -0.47824442735540
  H   -2.44118817462300      1.05523552417855     -0.05279599587856
  C   1.39553155733314      1.17195731293308     -0.28046182068278
  H   2.46299218005222      1.09060451968047     -0.08543199689024
  H   1.25901450454956      1.26322755021451     -1.35925332142913
  H   1.02745685749314      2.06687983110461      0.22301750912831
  N   1.30030935257968     -1.32244990762729     -0.25298738457518
  O   0.73037959642377     -2.36017114074646      0.06963137155360
  O   2.31968848978730     -1.24369016202475     -0.92929896876118
