17
Coordinates from ORCA-job run
  C   -0.79887994841663     -0.10332558618307     -0.10692368831927
  C   0.68350730000011     -0.04991970104089      0.24678402555001
  F   -0.91947702000217     -0.40223540882125     -1.44337536889754
  H   0.77560168255291     -0.23545038360424      1.31772658642589
  N   -1.50350478537825     -1.23416348943159      0.65511783002421
  O   -2.37109447124614     -1.84107117018491      0.04377650260420
  O   -1.18986620845634     -1.37071031997995      1.82821314136425
  N   -1.48171786238893      1.06832781704273      0.26817116104514
  H   -1.13878528637309      1.86757259933119     -0.24849905858870
  H   -2.47621084513154      0.96693428407022      0.09705978416461
  C   1.35017136887558      1.24522995873360     -0.16236724061327
  H   2.42309696020263      1.17964745165108      0.00699426724944
  H   0.96158196684506      2.06309980025168      0.44586142150632
  H   1.19151161251784      1.45451819426018     -1.22152934198135
  N   1.33968438946318     -1.23787752401761     -0.41954983873077
  O   0.81376371064114     -2.32576903187012     -0.20569717400407
  O   2.34061743629465     -1.04580749020703     -1.10076300879910
