17
Coordinates from ORCA-job run
  C   -0.89578772196467      0.45604779126206      0.02038019158129
  C   0.63934462728647      0.42097113785226      0.19806589895671
  F   -1.14304503305196      1.64175871313297     -0.59910333033845
  H   0.87740310751857      1.32175021498937      0.76936203312518
  N   -1.28160462265226     -0.65336341385386     -0.95594094622512
  O   -1.44487287251860     -0.34803413512765     -2.12656220698766
  O   -1.34047956374312     -1.77835994836352     -0.46627793636912
  N   -1.72567363684184      0.31876079560835      1.14696175132542
  H   -1.35645644215246      0.82523165112107      1.94056929237004
  H   -1.84400875040834     -0.65453257218083      1.39361120343613
  C   1.41147726031623      0.36123966341301     -1.10099207071184
  H   2.48007081657291      0.45648465794245     -0.90392975481957
  H   1.09553307936408      1.18117553537363     -1.74617003696241
  H   1.24547602520721     -0.58348070286716     -1.61628933627465
  N   1.00894954288878     -0.71107873025211      1.11410869935585
  O   0.80969228635613     -0.51815173330497      2.31377191099346
  O   1.46598189782287     -1.73641892474505      0.61843463754474
