17
Coordinates from ORCA-job run
  C   -0.84821095559033     -0.08594616019638     -0.20297580963329
  C   0.62321455716484     -0.01483592147769      0.23397130865864
  F   -0.88428144388781     -0.31429624193427     -1.53491002958808
  H   0.65407422956571     -0.08065524754953      1.32282794194301
  N   -1.50547264674557     -1.27286191392030      0.50493846153673
  O   -1.86451338174621     -2.22003295061081     -0.17197228266812
  O   -1.61637136793799     -1.13080579585313      1.71827103402863
  N   -1.67197160673573      1.02766685978776      0.09312491857161
  H   -1.35155534955926      1.85957194634670     -0.38326073102117
  H   -1.74903311559914      1.17961661261066      1.08946110667707
  C   1.32249196872195      1.21864290941725     -0.29465890171598
  H   1.19454586265154      1.30861346539191     -1.37279569437087
  H   2.39054705696442      1.16090191412943     -0.08523927971484
  H   0.93179514048321      2.10818912149438      0.20183370996292
  N   1.30278767034355     -1.26742502395802     -0.25408089920612
  O   1.99212594741681     -1.19317092082836     -1.26592773672802
  O   1.08182743449000     -2.28417265284960      0.40139288326787
