17
Coordinates from ORCA-job run
  C   -0.85712102370283      0.44649954559256      0.03013045545389
  C   0.66875758902096      0.41446797299719      0.20057313736510
  F   -1.17380594927382      1.44818482727054     -0.83583725974878
  H   0.90547385096888      1.21177500146379      0.90860431700228
  N   -1.27176868560844     -0.85427671399029     -0.72822378919147
  O   -1.24098945581227     -0.83940627730028     -1.95155978077911
  O   -1.56657395212251     -1.80484873191005     -0.00886882641724
  N   -1.53381767001631      0.61929597165596      1.23446731822381
  H   -2.52563334218771      0.43871170202574      1.15494344515000
  H   -1.12689119424534      0.07528559687476      1.98284877902556
  C   1.44319766263552      0.55729991208010     -1.08985762368030
  H   1.19249839799219      1.51221805125762     -1.55048488267392
  H   2.51233602153790      0.53975740473878     -0.87506070598318
  H   1.21390999844909     -0.24435003205664     -1.78801391912681
  N   1.03454971624456     -0.85939905356140      0.92091881792234
  O   1.50539521855871     -1.77898768047591      0.26109966537077
  O   0.81848281756141     -0.88222749666247      2.13332085208706
