17
Coordinates from ORCA-job run
  C   -0.90133309141466      0.44584611747634     -0.01206906579408
  C   0.62771799675826      0.43402276750385      0.21398769193143
  F   -1.14343351482929      1.62076778521858     -0.65657296580981
  H   0.83476801829957      1.34354260945690      0.78340635945578
  N   -1.24512167465239     -0.67825740000386     -0.98907312341416
  O   -1.34365351710243     -0.38858035396140     -2.17099861151134
  O   -1.33985085619440     -1.79603826907906     -0.48876964518954
  N   -1.75722341170890      0.31147035681149      1.09347062984699
  H   -1.39516299455130      0.79241456426567      1.90564322404424
  H   -1.91519213394883     -0.66172229216463      1.31622302988242
  C   1.44440686753928      0.37136104176970     -1.05746082559994
  H   1.30587429877471     -0.57903484051936     -1.57011023395837
  H   2.50446429989102      0.47974362620521     -0.82409507509526
  H   1.14235522536230      1.18246849200021     -1.72005891516682
  N   0.97949229708936     -0.68447467529686      1.15261558319427
  O   1.44216917832372     -1.71787702756563      0.67915542632400
  O   0.75772301236397     -0.47565250211717      2.34570651686018
