17
Coordinates from ORCA-job run
  C   -0.86620443856340      0.08335388633527      0.21113607571047
  C   0.59270760566949      0.50635113749090      0.09264128136208
  F   -1.40683665063943      0.78752510049888      1.28820616738343
  H   0.61756680043234      1.58178999605418     -0.06693651204389
  N   -1.66949218274315      0.63648959908040     -0.97322247022359
  O   -1.15335186142055      1.50323251666919     -1.67060676820877
  O   -2.80291452925757      0.18813452313613     -1.09000546128366
  N   -1.08203137487917     -1.28700726308141      0.24758600107427
  H   -2.06615157972994     -1.50523865243053      0.33131487776239
  H   -0.52612067899746     -1.72246836390859      0.97186795800221
  C   1.38259936699537     -0.24751360834445     -0.95792925203944
  H   2.41372545336579      0.11133802623558     -0.96803884520400
  H   0.94707257720679     -0.06676832194007     -1.94036946746427
  H   1.37130076201948     -1.31733064593087     -0.75642560920720
  N   1.24195729611706      0.30329573801292      1.43353319332602
  O   1.79053064493500      1.27534978850216      1.93999123519119
  O   1.21464278948934     -0.83253345637968      1.90825759586277
