17
Coordinates from ORCA-job run
  C   -0.89081449972713      0.23746787454160      0.34956160901779
  C   0.60554279493114      0.48444709894423      0.12205539301372
  F   -1.29779327961118      1.17060887475444      1.27484945774814
  H   0.73702139612432      1.55092831230434     -0.05595965615359
  N   -1.57109190514630      0.67968187701124     -0.96535808654313
  O   -2.12901908044457     -0.17575705040012     -1.64534390247550
  O   -1.46404321848331      1.86805223208515     -1.23589265563736
  N   -1.31237010373090     -1.04215444537307      0.67863716657023
  H   -1.85256083848728     -1.49298714697343     -0.04277336035253
  H   -0.59535895167288     -1.61879095106427      1.08958801131581
  C   1.19813395647529     -0.36855148332306     -0.97981962524043
  H   1.02915694783960     -1.42742839909632     -0.78748179996224
  H   0.75024947768774     -0.10583726243568     -1.93987835301770
  H   2.27256251257069     -0.19070178386735     -1.05132513978423
  N   1.32215315096439      0.21610356468646      1.41185510850552
  O   1.86802997661219      1.16550531141153      1.96244691787885
  O   1.33020166409818     -0.94958662320568      1.81183891511665
