17
Coordinates from ORCA-job run
  C   -0.78867836687848      0.04844451070242     -0.23950068443570
  C   0.65190940536194      0.06661283820609      0.26753797250668
  F   -0.83404235686879     -0.12489207789150     -1.57620216237923
  H   0.62667122346739      0.16871205828368      1.35370201288490
  N   -1.48009354166530     -1.19923999520606      0.37991619214304
  O   -1.68510093445191     -2.16988106809389     -0.33309819367127
  O   -1.74700695311841     -1.07979735932509      1.57226214983532
  N   -1.46266005296275      1.24153025982463      0.09831857448791
  H   -2.34797842144203      1.29126481938337     -0.39272542872933
  H   -1.62412965446566      1.28645616493980      1.09647340096662
  C   1.47398651988554      1.14166257341294     -0.40930848893732
  H   2.50469131762934      1.09955329443576     -0.05346067926710
  H   1.05317161826065      2.11857458424233     -0.17527908766831
  H   1.47052811520666      0.99675385207767     -1.48782087013534
  N   1.25371628851494     -1.29159149932334      0.02449937890527
  O   1.22014391026661     -2.08189628285285      0.96671524590531
  O   1.71487188326026     -1.51226667281597     -1.09102933241145
