17
Coordinates from ORCA-job run
  C   -0.92735157654311      0.11889230789099      0.31244769599074
  C   0.54558472116761      0.52873558319723      0.19886109265536
  F   -1.47906155396107      0.92859801612583      1.27909100393933
  H   0.57620149004827      1.61438432373065      0.11728086266233
  N   -1.57810649783854      0.60133242564460     -1.00383326867116
  O   -2.02145533274841     -0.24388136045047     -1.77479141038593
  O   -1.56755205229724      1.81201259281892     -1.17990920599192
  N   -1.23008398993294     -1.21855424798971      0.51499343775905
  H   -1.70134502588988     -1.65523717836241     -0.26123611917112
  H   -0.47640509587064     -1.75855351657341      0.90944497067715
  C   1.27999417930016     -0.16186025162586     -0.93109999044321
  H   2.33286037980366      0.12537993530835     -0.92115675563716
  H   0.85911764949148      0.14035618395418     -1.89175357460589
  H   1.21046376801448     -1.24503311049865     -0.83808957419357
  N   1.21724080759061      0.21910579144016      1.50358037453202
  O   1.32686279830486     -0.97098621055025      1.80431805965697
  O   1.63103533136069      1.16530871593985      2.16385240122703
