17
Coordinates from ORCA-job run
  C   -0.86735919259859      0.37185252775040      0.04732773016646
  C   0.65478531074786      0.36177348130662      0.23543301835158
  F   -1.15536443243850      1.60224504327836     -0.50862167045884
  H   0.87292622084282      1.27946136955032      0.78691830588714
  N   -1.24140617702018     -0.65169206781980     -1.03953912984908
  O   -1.81136989098290     -0.25236032485033     -2.04575365253417
  O   -0.90842299616957     -1.80060237275050     -0.77991572607361
  N   -1.60934257047887      0.07327806818779      1.18252665852456
  H   -1.19448316487839      0.39374858807418      2.04443999830553
  H   -2.58056101333863      0.33720974033309      1.09095101762479
  C   1.41258639064289      0.31948608049486     -1.07307365360805
  H   2.47635246431213      0.47489603319464     -0.89168095588042
  H   1.28980349334359     -0.64424364320450     -1.56434486656798
  H   1.04829134942725      1.11348999415521     -1.72651755875486
  N   1.09178868203592     -0.73353189841098      1.17136877333030
  O   0.85427053839220     -0.53543861811370      2.36321534875063
  O   1.66850498816100     -1.70857200117566      0.70726636278602
