17
Coordinates from ORCA-job run
  C   -0.83288648595434      0.31651887756456      0.09409230559976
  C   0.67443603596854      0.38370747774031     -0.11862425818347
  F   -1.21402108558115      1.52419833647066      0.68049592642905
  H   0.88395117051124      1.23535003678413     -0.76161898155451
  N   -1.55506113085485      0.37061417399099     -1.25857042897915
  O   -2.75294848847823      0.12021555837549     -1.22152840195812
  O   -0.91009642444523      0.70180191624557     -2.24763490236706
  N   -1.28621730296367     -0.81704007491946      0.75407803132345
  H   -2.29142343650204     -0.80307207208626      0.86603346061927
  H   -0.80060532951257     -0.94345193744000      1.63238223746515
  C   1.29325685677556     -0.89652790216293     -0.64259320488027
  H   0.87324286294425     -1.13065538976125     -1.62047937393400
  H   2.37105797825619     -0.76269836253911     -0.75454406996648
  H   1.09743521602597     -1.72570136948220      0.03523574092477
  N   1.31258943174350      0.73150113768968      1.19726672611195
  O   2.04966534537072      1.71058837855703      1.21704207475438
  O   1.08762478669611     -0.01534878502720      2.14996711859528
