17
Coordinates from ORCA-job run
  C   -0.86762329356107      0.42672562113151     -0.00577113528224
  C   0.65231525554417      0.43464498542071      0.21341825924121
  F   -1.18005467755409      1.40288301841993     -0.90148893032857
  H   0.84777454431210      1.25055478020665      0.91280053008543
  N   -1.22663244912630     -0.89906329776549     -0.75025444544079
  O   -1.51820351886440     -1.84288003499133     -0.02079900680561
  O   -1.16048127940170     -0.90697797253282     -1.97224842270315
  N   -1.58696824417057      0.60665692251350      1.17264708430421
  H   -2.57150546711904      0.40256754393889      1.06432528684292
  H   -1.19362750567432      0.08428308284102      1.94343125637741
  C   1.46340433947789      0.57036456909127     -1.05501445568467
  H   1.27524564120068     -0.25095848792983     -1.74255459750899
  H   2.52549957812445      0.58341172090124     -0.80761913802382
  H   1.20423020371033      1.50904018869594     -1.54347573061409
  N   1.02497984990441     -0.81604654456864      0.97098284633515
  O   0.76953698787397     -0.82074140826791      2.17584046451156
  O   1.54111003532349     -1.73546468710464      0.34578013469404
