17
Coordinates from ORCA-job run
  C   -0.83972017141148     -0.12801183727646     -0.21584400019579
  C   0.61584887041730      0.02500659352470      0.25228555830692
  F   -0.83034539578515     -0.49547225369445     -1.51670258572995
  H   0.61498976321387      0.07427590596684      1.34245544000088
  N   -1.49276441291820     -1.24936300881658      0.59479556309079
  O   -1.81186988099799     -2.27061581556633      0.01225122211205
  O   -1.64166608305324     -0.98351415113610      1.78294775365188
  N   -1.69551579645272      0.99031602043327     -0.06262753222601
  H   -1.80153063324143      1.24907273994278      0.90863918269936
  H   -1.38279202543973      1.77197026716970     -0.62191892011982
  C   1.30367430559412      1.21330986196334     -0.38386469175883
  H   2.36569512366252      1.20507590379861     -0.13895957127790
  H   1.20769551209265      1.18583987061251     -1.46871441540947
  H   0.87780215987082      2.14000536516021      0.00374622265905
  N   1.33722922203082     -1.25472011449473     -0.08177566761871
  O   2.05681350407819     -1.26916174216279     -1.07495333778983
  O   1.11645593833965     -2.20301360542452      0.66923977960538
