17
Coordinates from ORCA-job run
  C   -0.85757235042593     -0.02639946503623      0.25603191859408
  C   0.64450262542928      0.17589133310454      0.41254329726132
  F   -1.35084696124512     -0.38738920556876      1.51044868563250
  H   0.80177818905456      0.95546515122219      1.15436446757830
  N   -1.54530230757309      1.32338455437530      0.01278958135152
  O   -2.71884892844538      1.25702291082125     -0.33011755005090
  O   -0.90467727258386      2.34761019053642      0.22373707388810
  N   -1.23451110895312     -0.86946322084792     -0.78026114416605
  H   -0.76369036992767     -1.76208027704829     -0.70978487031305
  H   -2.24018245529611     -0.96635629026805     -0.83075578377026
  C   1.37931542175001      0.45993857022216     -0.88179446131332
  H   2.44456928740178      0.58526780732405     -0.67787312432947
  H   1.23722084515846     -0.35229198114285     -1.59273352110814
  H   1.00269940297236      1.38430579411988     -1.31904926557834
  N   1.21460568340371     -1.06692879054950      1.03706004806248
  O   1.03221741518897     -2.13148775570031      0.44563563912511
  O   1.85972288409114     -0.92648932556388      2.06975900913611
