17
Coordinates from ORCA-job run
  C   -0.83551539207310      0.47108710172565      0.22247955158951
  C   0.67990829379306      0.39428426640849      0.00045465235549
  F   -1.07593105352825      1.69244080179583      0.80971487665728
  H   0.98692338671435      1.32268327341736     -0.47918351894722
  N   -1.43990890900295      0.60272914835353     -1.19365060503843
  O   -1.12971266384951      1.61787976036738     -1.80212274519733
  O   -2.14595466174806     -0.31005261102858     -1.61029164387831
  N   -1.46273503505594     -0.56549098653177      0.89595354802019
  H   -2.08257505192995     -1.11379141295906      0.32125089696029
  H   -0.85216770403341     -1.10094455464175      1.49232069594906
  C   1.11503177774077     -0.83358293825939     -0.77137398978054
  H   2.20378815418306     -0.86381251604038     -0.84112952992770
  H   0.71533997260451     -0.79954670037661     -1.78649868645053
  H   0.76867518878562     -1.74411109489550     -0.28384056194442
  N   1.34717437450732      0.41272806480866      1.34337314950442
  O   2.04471814913248      1.38355317044504      1.61419132957171
  O   1.16294117375998     -0.56605277258889      2.06935258055655
