17
Coordinates from ORCA-job run
  C   -0.80427352546387     -0.09632289692240     -0.06297872110593
  C   0.69405458651590     -0.04781686224683      0.21597912979662
  F   -0.99282100588945     -0.45956457215068     -1.37542126302168
  H   0.83652890032822     -0.18149337386661      1.28909713369742
  N   -1.48560660177134     -1.17680526705447      0.78840178167549
  O   -1.11715546278133     -1.25862629012873      1.95056885099923
  O   -2.38841552766483     -1.80114860900129      0.25005517584417
  N   -1.45313737507093      1.10290847309481      0.28453208640278
  H   -2.45636885055591      1.00720791842188      0.17074736118712
  H   -1.12858074532834      1.86931946127669     -0.29052774206117
  C   1.35657098439315      1.21487376042209     -0.28980171980120
  H   1.00732403513489      2.06823145880000      0.29304708507759
  H   1.15055710764622      1.37230412991158     -1.34975524413620
  H   2.43543436229524      1.14231350188221     -0.16727695010572
  N   1.30141168732770     -1.27755214098966     -0.42100133314030
  O   0.77505977726042     -2.34567228841298     -0.12464663764712
  O   2.26741765362424     -1.13415640303564     -1.16201899366111
