17
Coordinates from ORCA-job run
  C   -0.80245156651247     -0.06870130156815     -0.11087247689231
  C   0.67919995076364     -0.07830408863113      0.25044442223202
  F   -0.92888271398034     -0.36405492734058     -1.44732064247789
  H   0.75779822987523     -0.26234268848080      1.32272672928330
  N   -1.55888822247813     -1.16631307609538      0.64958943767724
  O   -2.44482715126950     -1.74104321558405      0.03377313741311
  O   -1.25939927636070     -1.31003457208704      1.82553417236759
  N   -1.43536636707136      1.13266655194515      0.25881200927382
  H   -1.05658472548137      1.91397561224297     -0.26036758647261
  H   -2.43268160146418      1.07407914709743      0.08396538377113
  C   1.40302997543990      1.18498646975925     -0.16120467156483
  H   1.04651142896774      2.02151686043302      0.44124417956446
  H   2.47125680829849      1.07424814862149      0.01397166145259
  H   1.25861959070715      1.39584783937770     -1.22209924900007
  N   1.28733326477630     -1.29660599640324     -0.40680918401998
  O   2.30487339071367     -1.15205510864199     -1.07502933636125
  O   0.70945898507594     -2.35886565464464     -0.19835798624632
