17
Coordinates from ORCA-job run
  C   -0.92798796919200      0.25575290175793      0.22774487058899
  C   0.57908919444234      0.51861294463346      0.10906092538746
  F   -1.44240559286665      1.29353575710908      0.96686657608929
  H   0.70726989275480      1.55505138181681     -0.20028844010396
  N   -1.48159605596551      0.48249771537338     -1.19632120772525
  O   -1.37420518594542      1.62412444410674     -1.62304773376611
  O   -1.94353478567076     -0.48096858176461     -1.79964061658853
  N   -1.35871248943359     -0.97934238357188      0.69599846322879
  H   -0.67616312013242     -1.45036298976354      1.26948905271223
  H   -1.77074421012404     -1.55699679511793     -0.02019847498838
  C   1.29045602807485     -0.45967428092959     -0.80163533123686
  H   0.94897076497279     -0.32833430461406     -1.83010415979964
  H   2.36626919286216     -0.27836899544647     -0.77873282731684
  H   1.09895585128227     -1.48762028444639     -0.49554680835995
  N   1.17267742023725      0.45244846523654      1.48542896424715
  O   1.15767812405411     -0.64414676449172      2.04774542116158
  O   1.65598294064982      1.48279177011225      1.94118132647005
