17

C	0.0	0.0	0.0
C	-0.233377	-0.057455	-1.575876
Br	1.966913	0.0	0.0
H	0.511246	0.642774	-1.971235
C	-0.739161	1.140163	0.545228
N	-0.76219	2.207191	1.082305
C	-0.25522	-1.298948	0.804524
H	0.164022	-1.160049	1.805846
H	0.259295	-2.13723	0.332278
H	-1.318821	-1.505037	0.874489
C	-1.556798	0.355656	-2.23876
H	-1.886547	1.315089	-1.843182
H	-2.347976	-0.367964	-2.069537
H	-1.357517	0.452696	-3.317649
C	0.144764	-1.375287	-2.094258
N	0.392114	-2.440873	-2.524984
H	-2.095997	0.0	0.0
