17

C	0.0	0.0	0.0
C	-0.710048	0.036403	-1.331957
Br	1.965042	0.0	0.0
H	-1.890099	0.094975	-0.844867
C	-0.340551	1.219087	0.750274
N	-0.533458	2.204381	1.363206
C	-0.459241	-1.215192	0.82113
H	-0.104489	-1.120179	1.846877
H	-0.069854	-2.14193	0.389287
H	-1.55853	-1.20268	0.793609
C	-0.601742	-1.244376	-2.154829
H	0.423937	-1.633464	-2.246521
H	-0.971747	-1.057854	-3.171744
H	-1.253382	-2.001192	-1.707633
C	-0.36773	1.199525	-2.113597
N	-0.090195	2.122371	-2.791573
H	-2.897492	0.0	0.0
