13

C	-0.399959	-0.07092	-1.463777
C	0.0	0.0	0.0
Cl	-2.17747	-0.350994	-1.701608
H	1.095197	0.0	0.0
H	0.094221	-0.921024	-1.938326
H	-0.3597	0.935949	0.435926
C	-0.057081	1.144471	-2.199627
N	0.183559	2.121183	-2.804988
C	-0.467194	-1.205125	0.805664
H	-0.006891	-1.170831	1.79494
H	-0.139716	-2.133377	0.329132
H	-1.55226	-1.241248	0.92413
Cl	3.447387	0.0	0.0
