13

C	-0.400162	-0.110068	-1.461675
C	0.0	0.0	0.0
Cl	-2.176164	-0.40698	-1.692152
H	1.095238	0.0	0.0
H	0.098826	-0.968974	-1.915227
H	-0.360113	0.946906	0.41093
C	-0.065278	1.089929	-2.225324
N	0.169221	2.066786	-2.833262
C	-0.466253	-1.183553	0.837625
H	-0.002932	-1.124205	1.824268
H	-0.141145	-2.124207	0.384377
H	-1.550971	-1.215378	0.960067
Cl	3.448506	0.0	0.0
