13

C	-0.563656	0.011022	-1.41619
C	0.0	0.0	0.0
Cl	0.04792	1.391177	-2.382854
H	1.093316	0.0	0.0
H	-1.649937	0.141288	-1.382181
H	-0.326614	-0.943133	0.456011
C	-0.303763	-1.235375	-2.137845
N	-0.161185	-2.260168	-2.694982
C	-0.510926	1.177846	0.821099
H	-0.178272	2.123559	0.389291
H	-1.604497	1.190428	0.892761
H	-0.100931	1.120676	1.831715
Cl	3.504799	0.0	0.0
