13

C	-0.466179	0.014172	-1.451483
C	0.0	0.0	0.0
Cl	-0.053892	-1.501539	-2.321616
H	1.093667	0.0	0.0
H	0.053492	0.811016	-1.988058
H	-0.31179	0.963799	0.422746
C	-1.911101	0.229786	-1.569047
N	-3.064945	0.439597	-1.642691
C	-0.565078	-1.14288	0.828081
H	-0.215987	-2.104629	0.45033
H	-1.66017	-1.146065	0.837265
H	-0.213158	-1.049319	1.85745
Cl	3.499167	0.0	0.0
