13

C	-0.450643	0.031108	-1.454896
C	0.0	0.0	0.0
Cl	-0.032397	-1.492503	-2.302943
H	1.093252	0.0	0.0
H	0.083956	0.82487	-1.982563
H	-0.361167	-0.92084	0.465948
C	-1.891	0.254514	-1.600449
N	-3.046537	0.448659	-1.685324
C	-0.486178	1.230377	0.760607
H	-1.575661	1.271957	0.849551
H	-0.054747	1.22291	1.763434
H	-0.14234	2.146891	0.272493
Cl	3.490672	0.0	0.0
