14

C	0.022032	0.008877	0.021959
C	-0.584039	0.154439	-1.379166
Cl	1.834975	-0.0504	-0.10448
H	-1.684397	0.154466	-1.249278
H	-0.268904	1.098407	-1.83119
C	-0.283777	1.211711	0.80067
N	-0.48098	2.18057	1.434928
C	-0.477077	-1.241498	0.726537
H	-1.569986	-1.191849	0.756888
H	-0.169177	-2.121536	0.158538
H	-0.064116	-1.301381	1.734712
C	-0.196691	-0.948778	-2.249987
N	0.119304	-1.829426	-2.959193
Cl	-3.746255	-0.207613	-0.362538
