14

C	0.021284	0.013717	0.017054
C	-0.583671	-0.173107	-1.37975
Cl	1.834078	-0.074051	-0.090587
H	-1.684115	-0.142343	-1.254784
H	-0.267154	0.638346	-2.040137
C	-0.284871	1.365412	0.492171
N	-0.480875	2.455888	0.882445
C	-0.479227	-1.036592	0.994626
H	-0.170854	-2.025417	0.649712
H	-0.067455	-0.857859	1.989163
H	-1.572125	-0.980792	1.011322
C	-0.196003	-1.44987	-1.967224
N	0.119497	-2.472692	-2.44957
Cl	-3.747212	-0.28719	-0.310304
