14

C	0.021932	0.009556	0.020932
C	-0.584251	0.243994	-1.368049
Cl	1.834906	-0.039301	-0.108723
H	-1.684607	0.234472	-1.238432
H	-0.270191	1.215348	-1.758618
C	-0.285452	1.159504	0.875274
N	-0.483051	2.085102	1.571038
C	-0.475835	-1.28403	0.643746
H	-1.568808	-1.237595	0.676912
H	-0.063173	-1.407737	1.646219
H	-0.166788	-2.125557	0.020701
C	-0.19565	-0.800772	-2.307673
N	0.121491	-1.634257	-3.071278
Cl	-3.746244	-0.185488	-0.377584
