14
Coordinates from ORCA-job run
  C   0.73120758500844      0.18139017896099      0.48568273846316
  C   -0.78736592194622     -0.14506089884267      0.34386391576686
  Br  0.94162019954529      0.67517754495810      2.38710029354224
  H   -1.03988561282639     -0.93351358374390      1.05548592702804
  C   1.08382045682829      1.34729075498972     -0.32303190942988
  N   1.39222647790899      2.26771118706718     -0.98628514171210
  N   1.60763237948847     -0.89491542532845      0.17840557036352
  H   1.31481889157024     -1.77268897185351      0.58800413439176
  H   1.77827906702904     -0.99057221560863     -0.81449985953475
  N   -0.98586274033870     -0.74860140000045     -1.02789496344186
  O   -1.04731155915835      0.02608788817009     -1.97539111965184
  O   -0.99659388436657     -1.97564049876298     -1.06903801867155
  C   -1.64792280028612      1.01437933319116      0.50746758211763
  N   -2.34566253845643      1.94895610680334      0.64913085076877
