14
Coordinates from ORCA-job run
  C   0.68076661753778      0.03136364464096      0.49180279150623
  C   -0.84104177684692      0.15740674259936      0.22237779993927
  Br  0.97577446558900     -0.91671302881708      2.17941212792906
  H   -1.33685366113885      0.56588256381549      1.10495611189657
  C   1.19630518615973      1.39606017286816      0.69680937232571
  N   1.63931911080162      2.48143916952169      0.80159910498454
  N   1.30411584151297     -0.71536029562372     -0.55772996570949
  H   2.30341359514382     -0.78493239124729     -0.40757579805818
  H   1.12350247044061     -0.29752820348029     -1.46565623249936
  N   -1.44681120277176     -1.20959082604448     -0.02426486634718
  O   -1.40841964255241     -1.63373448190967     -1.17148806419190
  O   -1.91149268982604     -1.76563725044816      0.96306269663506
  C   -1.06595547392054      0.99817152251175     -0.94798611910291
  N   -1.21162284012902      1.69317266161328     -1.88431895930744
