14
Coordinates from ORCA-job run
  C   0.74049794292662      0.16258013570940      0.32440425263231
  C   -0.79501662483743      0.23373224022385      0.16364459888533
  Br  1.03363030903371     -0.68642254306581      2.15217614486289
  H   -1.21662935259657      0.83922532879192      0.96744642348621
  C   1.23639577675037      1.53063472504798      0.46943769853726
  N   1.62352469253924      2.63648687795330      0.56545405971763
  N   1.37120703655744     -0.47662481980724     -0.74768033509058
  H   1.02561311371941     -1.41413814228172     -0.90722252637851
  H   2.38015733669354     -0.44693256878015     -0.69000273878522
  N   -1.43301309772481     -1.13257260521757      0.31156529978604
  O   -2.36657792400923     -1.21053234457408      1.09674832156092
  O   -0.97305317031203     -2.03368271432920     -0.38187777810727
  C   -1.15710040620559      0.77311012445470     -1.14306646618183
  N   -1.47063563253466      1.22513630587461     -2.18102695492518
