14
Coordinates from ORCA-job run
  C   0.70323458207153      0.14008903112537      0.37031296916445
  C   -0.80179816129894     -0.17570296284134      0.29571435087933
  Br  0.98535636794442      0.70632646647542      2.31778094045683
  H   -1.04777195516729     -0.96523263955716      1.00832663872174
  C   1.03607690726602      1.32773980143848     -0.41619986650880
  N   1.30414293856300      2.24997779898497     -1.09310761289156
  N   1.47391645352850     -0.95361072427626     -0.04331540309681
  H   1.26006076384572     -1.80636065988126      0.45119964738331
  H   2.47152325488873     -0.76477279791472     -0.04057681149988
  N   -1.09539221040898     -0.75192220889669     -1.07295710740153
  O   -1.01026547609544     -1.96276018414179     -1.12655862581518
  O   -1.37335840374871      0.01714193095996     -1.98512619457916
  C   -1.61557605829502      1.00333828317898      0.54658214399302
  N   -2.29014900309354      1.93574886534603      0.78692493119426
