14

C	0.0	0.0	0.0
C	-0.531082	-0.161399	-1.433471
Cl	1.776906	0.0	0.0
H	-1.631958	-0.155169	-1.346336
H	-0.302812	1.007229	0.310485
N	-0.494181	-1.076674	0.802917
H	-0.24587	-0.901911	1.769852
H	-1.516941	-1.044422	0.732994
N	-0.136595	-1.49205	-2.010601
O	0.922653	-1.55347	-2.633412
O	-0.904962	-2.423855	-1.801536
C	-0.074903	0.905334	-2.311896
N	0.238203	1.779316	-3.030293
Br	-3.643573	0.0	0.0
