15

C	-0.401306	0.181416	-1.454841
C	0.0	0.0	0.0
F	-0.167226	1.484196	-1.840442
H	1.091777	0.0	0.0
H	-0.296861	-1.025306	0.289224
N	0.431642	-0.623805	-2.337461
H	1.402175	-0.396497	-2.107703
H	0.316727	-1.590701	-2.05373
N	-1.811138	-0.063011	-1.671835
H	-2.053851	-0.951134	-1.252812
H	-1.944939	-0.145695	-2.676527
N	-0.509955	1.029462	0.895433
H	-1.340163	0.714185	1.380644
H	0.209211	1.222593	1.579836
H	3.048414	0.0	0.0
