15

C	-0.445622	-0.13022	-1.440804
C	0.0	0.0	0.0
F	-0.126405	1.110354	-2.059736
H	1.099312	0.0	0.0
H	-0.349304	-0.892201	0.53055
N	0.277816	-1.117169	-2.194855
H	1.268289	-0.974902	-1.995378
H	0.019152	-2.023863	-1.824876
N	-1.847093	-0.372683	-1.538318
H	-2.299795	0.306051	-0.935493
H	-2.128664	-0.215597	-2.498883
N	-0.618956	1.190343	0.611783
H	-0.139444	1.98571	0.202731
H	-0.357638	1.192314	1.592029
H	3.11015	0.0	0.0
