15

C	-0.398894	0.029166	-1.46691
C	0.0	0.0	0.0
F	-0.229331	1.30316	-1.97113
H	1.094637	0.0	0.0
H	-0.292841	-0.992579	0.390143
N	0.476069	-0.811502	-2.271061
H	1.433311	-0.533774	-2.034967
H	0.387648	-1.75937	-1.917679
N	-1.793719	-0.298905	-1.659009
H	-1.983531	-1.176959	-1.192047
H	-1.925817	-0.442675	-2.654419
N	-0.51847	1.115984	0.775216
H	-1.39958	0.877278	1.208423
H	0.158728	1.331078	1.49607
H	3.048777	0.0	0.0
