15

C	0.0	0.0	0.0
C	-0.572025	0.008672	-1.425712
F	1.370629	0.0	0.0
H	-1.683352	-0.032912	-1.212356
N	-0.506359	1.140636	0.675666
H	-0.229466	1.086125	1.650388
H	-1.540851	0.988838	0.601407
C	-0.373544	-1.306317	0.624553
N	-0.547351	-2.320414	1.192014
C	-0.049844	-1.075635	-2.236083
N	0.339737	-1.968475	-2.89291
N	-0.224811	1.316817	-2.074724
O	0.933813	1.465142	-2.461034
O	-1.12173	2.147883	-2.168233
F	-2.740457	0.0	0.0
