15

C	0.0	0.0	0.0
C	-0.296554	0.217325	-1.512338
F	1.384871	0.0	0.0
H	0.44557	-0.399567	-2.025942
N	-0.501102	1.059254	0.784216
H	-1.549704	0.885781	0.632255
H	-0.272134	0.866821	1.754413
C	-0.382719	-1.370699	0.430029
N	-0.526751	-2.462924	0.84012
C	-0.037312	1.608971	-1.873709
N	0.243201	2.681319	-2.261396
N	-1.600834	-0.255927	-2.107697
O	-1.715313	-1.471948	-2.15449
O	-2.330703	0.570098	-2.631441
F	-2.579952	0.0	0.0
