15
Coordinates from ORCA-job run
  C   0.75001832792211      0.19013220613927     -0.50882258113088
  C   -0.16422817621701      0.26481375479774      0.73945443128455
  Cl  2.35895449825423     -0.42411809876147     -0.01570993016626
  H   0.30577122988313      0.96212020396308      1.44154507653922
  C   0.96789155894123      1.55313949962466     -1.03181182155540
  N   1.09846544731722      2.62978251065893     -1.48643237303420
  N   0.19590159439025     -0.72572966091117     -1.47221994484659
  H   0.81939880795175     -0.82025621096934     -2.26594200337702
  H   -0.69810688726867     -0.37476027172990     -1.80400022922441
  C   -0.38755675456315     -1.09163512729014      1.41187528868897
  H   0.55514368038363     -1.48377100457458      1.79145327414630
  H   -1.07673198046355     -0.97048277344057      2.24922750008158
  H   -0.80637026866400     -1.80308448962475      0.70205832784733
  C   -1.44343014417505      0.83944702744317      0.31247892598123
  N   -2.47512093369213      1.25640243467508     -0.06415394123441
