15
Coordinates from ORCA-job run
  C   0.50183382518626      0.07847172719607     -0.71418840598365
  C   -0.21824315693935     -0.28943783456970      0.60393616549222
  Cl  0.47850082452645      1.90787666957148     -0.89632156366732
  H   -0.20768956281813     -1.38583727561036      0.62680488333659
  C   -0.26787517547854     -0.45194032850708     -1.84415863581707
  N   -0.89261144410636     -0.89777185679371     -2.73337130938029
  N   1.80642620508177     -0.47508278517874     -0.73030348764170
  H   2.36880098737935     -0.10944516742886      0.03047291482190
  H   2.27696819523653     -0.30210409474375     -1.61013045782435
  C   -1.65763829150720      0.21297982230149      0.70740806192367
  H   -2.23894727113659     -0.13418644236426     -0.14879017357571
  H   -1.69285111121232      1.30077606926867      0.74477053856904
  H   -2.11408896419198     -0.18281168542222      1.61595824770939
  C   0.59644095451661      0.17758868970691      1.72674687082961
  N   1.26097398546355      0.55092449257407      2.62016635120768
