15
Coordinates from ORCA-job run
  C   0.49659144790701      0.33193246324743     -0.64408905389466
  C   -0.13739208033114     -0.28789368428671      0.61906279129313
  Cl  0.13281449805398      2.08025972346339     -0.72222826839403
  H   0.16220824850255     -1.34523902701224      0.61256682021724
  C   -0.11019543658880     -0.29461277773208     -1.83481736860804
  N   -0.53603942204230     -0.85459701111958     -2.77716592881146
  N   1.92816942360488      0.18588995955630     -0.57700885735278
  H   2.37171812104504      0.64221236024992     -1.36627409391452
  H   2.17915084301978     -0.79750990969453     -0.58442020631183
  C   -1.66443843067725     -0.20835851244308      0.65325529292433
  H   -2.03508306821146     -0.71098715789695      1.54770465790668
  H   -2.09336104919384     -0.69939743364154     -0.22213859106176
  H   -1.99540865664692      0.82973015691054      0.67913395315782
  C   0.44881684758130      0.32770741571647      1.81095403712251
  N   0.85244871397715      0.80086343468265      2.80646481572737
