15
Coordinates from ORCA-job run
  C   0.60687979935466      0.33605584717799     -0.63426897777400
  C   -0.31142339477631     -0.38742932987985      0.39442107458280
  Cl  1.20405207583040      1.85746445021127      0.10365950477654
  H   -0.66679460108035     -1.28703472801965     -0.12619135829010
  C   -0.21249408515090      0.67516395142845     -1.80545986777374
  N   -0.90368620412086      0.89273767828288     -2.72994066114390
  N   1.75287121426599     -0.41153231034776     -1.07689433015433
  H   1.46674697005753     -1.24147701088034     -1.58417473729576
  H   2.33272741811873     -0.67226180988945     -0.28652398797563
  C   -1.51796928529496      0.42258751573040      0.86888589896213
  H   -2.10564042910483      0.75758754890350      0.01206496370260
  H   -1.20107336911711      1.29116361154005      1.44464536804245
  H   -2.15383054438101     -0.20072142236446      1.49975178931026
  C   0.51631198489146     -0.83631853404477      1.51429226862680
  N   1.19232245050757     -1.19598545784827      2.40473305240389
