15
Coordinates from ORCA-job run
  C   0.65368397692435      0.27201448777897     -0.60399047336364
  C   -0.13516882744867      0.29471805812677      0.72651819341167
  Cl  2.38331202616939     -0.22410488422845     -0.17366749753600
  H   0.44034448390405      0.90878622343865      1.42651480693295
  C   0.76694629190676      1.62826642461137     -1.14805303236511
  N   0.85461463571945      2.71603277456998     -1.58304015870846
  N   0.03751966923109     -0.57216727915603     -1.55392775374835
  H   0.46500669365298     -0.49737195502155     -2.46828482455997
  H   0.03868995845593     -1.53878493773610     -1.25546056916590
  C   -0.35503039976767     -1.09745625485829      1.32456923501558
  H   -1.03572101507495     -1.68487070958596      0.70640513887334
  H   0.59322306210309     -1.62333269187302      1.43716091907176
  H   -0.81170078748859     -0.99709968168977      2.31012798276545
  C   -1.42460306232029      0.95318797309955      0.50010693921028
  N   -2.47211670596692      1.46318245252388      0.35402109416642
