19

C	0.0	0.0	0.0
C	-0.470683	-0.038597	-1.452124
F	1.4101	0.0	0.0
H	-0.219469	0.943986	-1.875391
N	-0.456561	1.216185	0.623842
H	-0.097553	2.00076	0.086422
H	-0.050362	1.266052	1.552817
C	-0.327535	-1.204877	0.869687
H	-1.392391	-1.292576	1.08614
H	0.218847	-1.101794	1.814939
H	0.008168	-2.082398	0.317517
C	-1.961253	-0.305104	-1.817248
H	-2.680997	0.519378	-1.780784
H	-1.736436	-0.497005	-2.921298
H	-2.399536	-1.229563	-1.448599
N	0.295832	-0.991239	-2.27692
O	0.158419	-2.251291	-1.856282
O	-0.076792	-0.708864	-3.559832
H	-2.300512	0.0	0.0
