19

C	0.0	0.0	0.0
C	-0.465426	0.047391	-1.471117
F	1.388486	0.0	0.0
H	-1.553203	-0.115531	-1.427381
N	-0.49738	1.088433	0.787535
H	-1.527443	0.979817	0.74454
H	-0.255826	1.969764	0.345007
C	-0.466799	-1.292122	0.637495
H	-1.563655	-1.294836	0.617172
H	-0.060015	-2.161743	0.116499
H	-0.109756	-1.292669	1.669257
C	0.29335	-0.877577	-2.406668
H	0.196364	-1.911224	-2.072982
H	1.349948	-0.608468	-2.416437
H	-0.105592	-0.80928	-3.422715
N	-0.305942	1.436464	-2.009136
O	-1.311414	2.026586	-2.402894
O	0.832266	1.914969	-2.035505
H	-3.135321	0.0	0.0
