19

C	0.0	0.0	0.0
C	-0.469615	0.064786	-1.469526
F	1.388465	0.0	0.0
H	-1.561703	-0.0679	-1.418438
N	-0.4956	1.082169	0.798077
H	-1.525651	0.971691	0.760331
H	-0.262346	1.968123	0.360147
C	-0.469813	-1.297367	0.623775
H	-0.05074	-2.161758	0.103985
H	-1.566424	-1.305014	0.588539
H	-0.12883	-1.302858	1.660975
C	0.25071	-0.881551	-2.41365
H	-0.147887	-0.786981	-3.428025
H	1.317896	-0.656821	-2.424948
H	0.108968	-1.91354	-2.090276
N	-0.271269	1.450797	-2.002141
O	0.884175	1.883067	-2.06356
O	-1.265453	2.086436	-2.353803
H	-3.146571	0.0	0.0
