19

C	0.0	0.0	0.0
C	-0.447742	0.015037	-1.483161
F	1.401397	0.0	0.0
H	-1.528334	0.230794	-1.426059
N	-0.485606	1.103691	0.766152
H	-0.342255	1.960327	0.240644
H	-1.50945	0.952085	0.784802
C	-0.456304	-1.279892	0.666505
H	0.043037	-2.147594	0.232713
H	-0.193157	-1.20418	1.723315
H	-1.546011	-1.342976	0.563644
C	-0.161205	-1.255027	-2.256053
H	-0.832467	-2.03658	-1.899874
H	0.875499	-1.570271	-2.132328
H	-0.348082	-1.104308	-3.321142
N	0.216476	1.170239	-2.155299
O	1.165622	0.951796	-2.911878
O	-0.204556	2.30276	-1.898627
H	-3.129728	0.0	0.0
