19

C	0.0	0.0	0.0
C	-0.344536	0.011578	-1.514114
F	1.415901	0.0	0.0
H	0.019844	0.983736	-1.885626
N	-0.603748	1.133774	0.641522
H	-0.250057	1.237953	1.58851
H	-0.393892	1.980374	0.122019
C	-0.334277	-1.278639	0.752157
H	0.063231	-2.082058	0.121293
H	-1.410815	-1.462553	0.859475
H	0.119324	-1.22536	1.751509
C	-1.824622	-0.131594	-1.852327
H	-2.204161	-1.086388	-1.463721
H	-1.861796	-0.253055	-2.935249
H	-2.465995	0.724423	-1.590248
N	0.308239	-0.99833	-2.349912
O	-0.040275	-2.241885	-1.821147
O	1.632784	-0.72392	-2.523126
H	-2.159322	0.0	0.0
