19

C	0.0	0.0	0.0
C	-0.240955	0.004317	-1.542243
F	1.390212	0.0	0.0
H	0.186802	0.95384	-1.864972
N	-0.528846	1.238867	0.499771
H	-1.553779	1.131127	0.403083
H	-0.355626	1.263409	1.501209
C	-0.480135	-1.219368	0.753357
H	-1.57528	-1.2193	0.711757
H	-0.159873	-1.12053	1.796894
H	-0.072015	-2.140637	0.339497
C	-1.614566	-0.205406	-2.129472
H	-2.02232	-1.172902	-1.856566
H	-2.329515	0.507489	-1.722493
H	-1.547196	-0.117682	-3.219198
N	0.67291	-1.01209	-2.171674
O	0.4248	-2.20482	-1.997657
O	1.599443	-0.594528	-2.867323
H	-3.408793	0.0	0.0
