16

C	0.0	0.0	0.0
C	-0.538784	0.021981	-1.416604
F	1.381292	0.0	0.0
H	-1.634588	0.147239	-1.371241
H	-0.346603	0.91972	0.473228
C	-0.4734	-1.226587	0.744846
H	-1.560867	-1.293668	0.695679
H	-0.005967	-2.115197	0.314951
H	-0.163551	-1.147151	1.788576
N	-0.242418	-1.232121	-2.169903
O	0.928573	-1.605362	-2.201512
O	-1.194473	-1.80252	-2.696304
N	0.042542	1.157289	-2.208399
O	0.160003	2.221903	-1.612983
O	0.302169	0.961913	-3.391328
Br	-3.735104	0.0	0.0
