16

C	0.0	0.0	0.0
C	-0.534425	0.043884	-1.415358
F	1.383242	0.0	0.0
H	-1.623985	-0.113891	-1.398289
H	-0.346387	0.908914	0.493249
C	-0.463015	-1.232692	0.741547
H	-0.105491	-1.167125	1.771831
H	-0.045426	-2.130424	0.282601
H	-1.552389	-1.277674	0.736222
N	0.119128	-1.006854	-2.249928
O	-0.42938	-2.106307	-2.263046
O	1.174942	-0.719202	-2.80789
N	-0.28782	1.35059	-2.109316
O	-0.656435	1.400386	-3.278653
O	0.219575	2.268699	-1.472672
Br	-3.739736	0.0	0.0
