16

C	0.0	0.0	0.0
C	-0.195473	-0.103589	-1.521093
F	1.379546	0.0	0.0
H	0.403501	-0.942489	-1.868586
H	-0.353765	0.963338	0.365348
C	-0.575364	-1.156258	0.76355
H	-1.66772	-1.091056	0.715186
H	-0.240099	-2.107997	0.345857
H	-0.258425	-1.089219	1.80716
N	0.398989	1.102547	-2.192154
O	0.292281	2.191528	-1.642158
O	0.941276	0.889691	-3.275955
N	-1.545814	-0.313914	-2.140238
O	-1.914632	-1.480735	-2.144572
O	-2.103938	0.652784	-2.636716
Br	-4.024409	0.0	0.0
