17
Coordinates from ORCA-job run
  C   -0.92459813751583     -0.26363977540176      0.08603533049537
  C   0.53844771118999     -0.34239058814613      0.49848439212301
  H   -1.59443672963593     -0.66778925143944      0.84043225561801
  H   0.67937344608278     -1.34999517993583      0.90450570691179
  N   -1.09185517342327     -1.09562555970441     -1.15387560373479
  O   -1.19992552431475     -0.52080603875005     -2.22857548226744
  O   -1.03987128285612     -2.30448343820546     -0.95577155621279
  N   -1.41647796802069      1.11940746125527     -0.21380119573271
  O   -2.63026669951472      1.20791455634784     -0.35521674061916
  O   -0.59361410785331      2.02473994357274     -0.29413133763396
  N   0.71033446501702      0.56517137275368      1.69740499961312
  O   -0.26081580867442      0.66133873322925      2.44397585470811
  O   1.80485051490028      1.08228414386374      1.86813326827252
  C   1.55969082888274     -0.06988322257101     -0.58544866719754
  H   2.56061733457108     -0.15292206509384     -0.16577892088710
  H   1.43595434808180      0.92381321083678     -1.00905435546740
  H   1.46259278308334     -0.81713430261135     -1.37531794798903
