17
Coordinates from ORCA-job run
  C   -0.66431331766430     -0.22859362684178     -0.59230650173431
  C   0.61878273629587     -0.43925076483987      0.19015727070107
  H   -0.52343662493475     -0.53698964129289     -1.62880830841474
  H   0.75933578512491     -1.51832436672866      0.28301674864658
  N   -1.14745594534027      1.20259657035267     -0.66552710021007
  O   -0.42931520842365      1.93660005066250     -1.33181810505670
  O   -2.18890497074992      1.49005453878026     -0.09904815655371
  N   -1.79727244265903     -1.05323397197207     -0.06170912497771
  O   -2.67601490107817     -1.32004728265630     -0.87434414835153
  O   -1.75666765494575     -1.37582869775845      1.12123128720530
  N   0.50766136128452      0.05088016184348      1.60500558600071
  O   -0.00549044901966      1.15386016351867      1.76638960571302
  O   1.00587787904559     -0.65934753043271      2.46894628425992
  C   1.84563953860330      0.21099510579495     -0.43210241926411
  H   1.75543248956482      1.29566294903592     -0.42643765995769
  H   2.72677797999890     -0.08489816718061      0.13980562576969
  H   1.97136374489759     -0.12313549028510     -1.46345088377573
