14

C	0.0	0.0	0.0
C	-0.571928	0.092908	-1.396821
Br	1.941295	0.0	0.0
H	-1.653985	0.238432	-1.22377
H	-0.316824	0.850744	0.595234
H	-0.344139	-0.91923	0.467894
C	-0.330791	-1.115527	-2.270361
H	-0.77336	-1.980154	-1.771119
H	0.733209	-1.293159	-2.436759
H	-0.81904	-0.993113	-3.236089
N	-0.088221	1.352469	-2.05013
O	0.262505	1.308254	-3.230526
O	-0.101579	2.376046	-1.369857
Cl	-3.509389	0.0	0.0
