18

C	0.0	0.0	0.0
C	-0.67002	0.0203	-1.350454
Br	1.962159	0.0	0.0
H	-1.778567	0.187938	-0.994382
N	-0.338796	1.309424	0.747271
O	-0.568072	2.30086	0.067588
O	-0.308326	1.280975	1.972077
C	-0.483531	-1.153463	0.841838
H	-0.102537	-1.067004	1.857023
H	-1.584259	-1.079826	0.827519
H	-0.148652	-2.096212	0.409514
C	-0.628984	-1.337325	-2.055009
H	0.385298	-1.74913	-2.090086
H	-1.297433	-2.034521	-1.546809
H	-0.984484	-1.220642	-3.080912
C	-0.199654	1.049815	-2.258142
N	0.158978	1.80215	-3.089291
H	-3.032799	0.0	0.0
