18

C	0.0	0.0	0.0
C	-0.264319	-0.010833	-1.553769
Br	1.946407	0.0	0.0
H	0.432757	0.740103	-1.938484
N	-0.610398	1.195363	0.584098
O	-0.64413	1.252367	1.838308
O	-0.583133	2.226567	-0.146476
C	-0.273543	-1.253502	0.844861
H	-1.339749	-1.384209	1.019193
H	0.235558	-1.13329	1.802458
H	0.130906	-2.129589	0.332358
C	-1.626435	0.347829	-2.168494
H	-2.365014	-0.441357	-2.050291
H	-1.454488	0.517205	-3.242725
H	-1.982041	1.270676	-1.716902
C	0.14993	-1.306258	-2.101809
N	0.400769	-2.356029	-2.568345
H	-2.009735	0.0	0.0
