18

C	0.0	0.0	0.0
C	-0.592612	0.041508	-1.404029
Br	1.931948	0.0	0.0
H	-1.69478	0.164926	-1.159289
N	-0.605558	1.157984	0.701747
O	-1.75924	0.80794	1.210434
O	-0.330918	2.300057	0.262306
C	-0.411748	-1.280604	0.71762
H	-0.178579	-1.182837	1.778602
H	0.129965	-2.135024	0.308567
H	-1.490496	-1.410782	0.603756
C	-0.444256	-1.248564	-2.210158
H	-0.995125	-2.058618	-1.729813
H	0.606028	-1.536343	-2.312133
H	-0.860649	-1.102743	-3.210171
C	-0.142111	1.169924	-2.208162
N	0.186489	1.968061	-3.00832
H	-2.863483	0.0	0.0
