18

C	0.0	0.0	0.0
C	-0.25881	-0.009212	-1.553376
Br	1.95662	0.0	0.0
H	0.419387	0.760612	-1.93271
N	-0.605477	1.192733	0.586801
O	-0.588034	2.223635	-0.143844
O	-0.633686	1.249525	1.840481
C	-0.264203	-1.259024	0.83807
H	-1.329709	-1.41711	0.992878
H	0.171162	-2.123864	0.33317
H	0.223971	-1.128115	1.805084
C	-1.63008	0.31653	-2.166718
H	-1.469714	0.467502	-3.245162
H	-2.353993	-0.482774	-2.026679
H	-2.00066	1.240457	-1.727609
C	0.189366	-1.289633	-2.10917
N	0.477972	-2.313986	-2.608817
H	-1.990117	0.0	0.0
