16
Coordinates from ORCA-job run
  C   -0.48683693219212     -0.13008890965283     -0.75563679444168
  C   0.90808648074030      0.04839069705371     -0.15467685609574
  H   -0.44241154408774     -1.04033396712786     -1.36282015832784
  H   1.62867971757234      0.47292957476591     -0.85328393832764
  C   -0.76246634125549      0.99381005674270     -1.65407070266574
  N   -1.01061401036695      1.88626595983111     -2.37567159077066
  C   -1.59891006842678     -0.27899122527948      0.28899457424218
  H   -1.36705158187456     -1.09059421578598      0.97676132901809
  H   -2.53766210534322     -0.50497631897965     -0.21813762449070
  H   -1.73189452331559      0.64641333461838      0.85148798406609
  N   1.50626641475303     -1.24059998717148      0.33684718428439
  O   2.67282792364126     -1.15056067429077      0.70141384521011
  O   0.81065497251481     -2.25057477070276      0.33205115342707
  N   0.84339813971906      0.98183134657351      1.02176206036292
  O   0.73070109152429      0.48377084057691      2.13476916236477
  O   0.83723236639734      2.17230825882859      0.73121037214438
