16
Coordinates from ORCA-job run
  C   -0.56652044374758     -0.39550573065878     -0.51008708673675
  C   0.63993594091499     -0.37403253523008      0.41721059176945
  H   -0.63525368981811     -1.42256255939660     -0.88189945075067
  H   0.56847147553215     -1.15443973154268      1.17630960855762
  C   -0.38965628930423      0.46884542031918     -1.67956975368545
  N   -0.31233103503964      1.13740332404844     -2.64147303281258
  C   -1.84208542550155     -0.03466999239032      0.26070466385054
  H   -1.82420783518851      1.00946083185768      0.57589994134002
  H   -2.71238948393641     -0.18118822879069     -0.37952808308252
  H   -1.94873668011807     -0.66973347499680      1.14304712181546
  N   0.74850044605594      0.92417453975933      1.14651329758300
  O   0.70460177552926      0.86256221457364      2.37273511409147
  O   0.83633733472710      1.93257108031693      0.45567140667550
  N   1.93414302742401     -0.61909961344770     -0.32028520418210
  O   2.92826457522060     -0.02801502078396      0.07656076376485
  O   1.86992630725004     -1.45577052363760     -1.21280989819785
