16
Coordinates from ORCA-job run
  C   -0.49747182038298     -0.13264809339366     -0.74808845737362
  C   0.90593202364007      0.04757315807700     -0.16732596748729
  H   -0.46135615327161     -1.04474107126636     -1.35304471893800
  H   1.61652818950705      0.46803522853213     -0.87850255733553
  C   -0.78520862129933      0.98845682246004     -1.64625183844700
  N   -1.04302125981812      1.87834498230576     -2.36762197537928
  C   -1.59503169253372     -0.27812863335645      0.31211826980476
  H   -2.54073219095396     -0.50540236975157     -0.18132797265168
  H   -1.72013626005348      0.64879370562887      0.87390789627537
  H   -1.35378151928908     -1.08758589077299      0.99918249870642
  N   1.51023172215577     -1.23951123530147      0.32130767413509
  O   2.68126563350862     -1.14820618883929      0.67113810250351
  O   0.81471420215656     -2.24955730677205      0.32798895335278
  N   0.85827957205500      0.98637626165865      1.00529506283412
  O   0.85192126737477      2.17556432408410      0.70949836644647
  O   0.75686690720444      0.49363630670727      2.12172666355389
