15

C	-0.366951	-0.002478	-1.462254
C	0.0	0.0	0.0
F	-0.092759	1.219499	-1.99381
H	1.102002	0.0	0.0
H	-0.34886	-0.943015	0.426835
N	0.267964	-0.998959	-2.266137
H	1.271763	-0.918116	-2.098127
H	-0.031087	-1.909736	-1.937045
N	-1.87573	-0.209034	-1.614094
O	-2.285195	-1.318453	-1.272784
O	-2.561689	0.707743	-2.040413
N	-0.645554	1.117713	0.688684
H	-0.184132	1.966774	0.381111
H	-0.43867	1.031055	1.676488
Cl	3.479964	0.0	0.0
