15

C	-0.35071	0.060502	-1.466854
C	0.0	0.0	0.0
F	-0.146851	1.325161	-1.925822
H	1.094528	0.0	0.0
H	-0.341332	-0.967251	0.376249
N	0.360541	-0.847701	-2.307798
H	1.352399	-0.719384	-2.105906
H	0.112871	-1.790957	-2.03511
N	-1.839413	-0.23333	-1.657203
O	-2.181221	-1.383636	-1.383877
O	-2.578987	0.660443	-2.04189
N	-0.658777	1.072151	0.741485
H	-0.200879	1.941522	0.490393
H	-0.463066	0.929141	1.726133
Cl	3.459876	0.0	0.0
