15

C	-0.562378	-0.020096	-1.399194
C	0.0	0.0	0.0
F	-1.973563	-0.206909	-1.301222
H	1.089514	0.0	0.0
H	-0.351878	-0.894537	0.518993
N	-0.218097	1.098372	-2.13437
H	-0.298272	1.910786	-1.536803
H	-0.725557	1.17118	-3.00249
N	-0.180621	-1.272651	-2.174357
O	0.091796	-2.279491	-1.530002
O	-0.263959	-1.205115	-3.398547
N	-0.434671	1.259152	0.622849
H	-1.266294	1.115566	1.178284
H	0.308652	1.578903	1.229873
Cl	3.466604	0.0	0.0
