15

C	-0.456542	0.059612	-1.444373
C	0.0	0.0	0.0
F	-1.832447	0.086036	-1.471451
H	1.091859	0.0	0.0
H	-0.378823	-0.917912	0.465666
N	0.041719	1.138903	-2.214106
H	1.02428	0.95538	-2.398105
H	-0.009726	1.944618	-1.596581
N	-0.061103	-1.243355	-2.132411
O	0.98022	-1.245574	-2.78103
O	-0.800647	-2.205443	-1.950853
N	-0.447307	1.236798	0.639321
H	-1.343624	1.108483	1.085997
H	0.231201	1.504808	1.337974
Cl	3.474068	0.0	0.0
