15

C	-0.4401	0.12608	-1.445038
C	0.0	0.0	0.0
F	-1.810057	0.260593	-1.491559
H	1.091847	0.0	0.0
H	-0.392814	-0.92584	0.433456
N	0.148206	1.187375	-2.177632
H	1.133787	0.966553	-2.297818
H	0.09482	1.989196	-1.554951
N	-0.142221	-1.191709	-2.155847
O	0.823814	-1.239128	-2.906348
O	-0.889492	-2.128147	-1.883528
N	-0.42417	1.223754	0.681517
H	0.276796	1.46822	1.366726
H	-1.3078	1.089387	1.15071
Cl	3.410649	0.0	0.0
