15

C	-0.552071	0.013817	-1.405088
C	0.0	0.0	0.0
F	0.053393	-0.987966	-2.143549
H	1.094066	0.0	0.0
H	-0.369484	0.883223	0.518944
N	-1.95857	-0.088414	-1.426537
H	-2.271179	-0.341043	-2.355672
H	-2.198783	-0.806477	-0.750102
N	-0.218156	1.29473	-2.156567
O	-0.394599	1.259081	-3.371396
O	0.122752	2.273911	-1.507952
N	-0.536148	-1.216708	0.647118
H	0.115552	-1.967016	0.442899
H	-0.490739	-1.077727	1.648986
Cl	3.490736	0.0	0.0
