15

C	-0.520758	0.046057	-1.411509
C	0.0	0.0	0.0
F	-0.204527	1.220905	-2.017688
H	1.097867	0.0	0.0
H	-0.35311	-0.928815	0.453524
N	-0.092777	-1.019154	-2.223618
H	-0.240488	-1.91173	-1.77408
H	-0.522542	-0.991981	-3.138734
N	-2.081829	0.077307	-1.312191
O	-2.579302	-0.932669	-0.816387
O	-2.702761	1.033981	-1.754539
N	-0.587038	1.13173	0.730954
H	-0.399802	0.98777	1.716727
H	-0.061261	1.95876	0.470137
Cl	3.546752	0.0	0.0
