15

C	-0.537838	-0.081084	-1.411997
C	0.0	0.0	0.0
F	-0.181399	-1.21938	-2.039909
H	1.093557	0.0	0.0
H	-0.319988	0.962579	0.418258
N	-1.960629	0.030166	-1.470794
H	-2.230721	0.956277	-1.164865
H	-2.271636	-0.109691	-2.425687
N	0.090567	1.067462	-2.240003
O	-0.180257	2.196317	-1.827079
O	0.732522	0.804718	-3.245928
N	-0.463344	-1.164258	0.744958
H	0.278926	-1.461572	1.362942
H	-1.286033	-0.950822	1.289733
Cl	3.467428	0.0	0.0
