15

C	-0.300108	0.125881	-1.485153
C	0.0	0.0	0.0
F	-1.617019	0.513185	-1.726831
H	1.093369	0.0	0.0
H	-0.406584	-0.928208	0.394341
N	0.574584	1.012409	-2.107707
H	0.558322	0.912494	-3.11401
H	1.521781	0.881995	-1.7539
N	-0.310978	-1.283079	-2.168292
O	0.207303	-1.373746	-3.280008
O	-0.894508	-2.19187	-1.585788
N	-0.471489	1.145264	0.767124
H	0.155525	1.920887	0.599085
H	-1.391286	1.418848	0.441172
Cl	3.421896	0.0	0.0
