15

C	-0.582216	-0.017855	-1.401155
C	0.0	0.0	0.0
F	0.232565	-0.72366	-2.26845
H	1.09398	0.0	0.0
H	-0.347179	0.916045	0.487568
N	-1.888552	-0.501419	-1.446456
H	-2.480465	0.015765	-2.077001
H	-2.254046	-0.64888	-0.517447
N	-0.506486	1.407744	-2.002708
O	0.509124	2.052334	-1.782212
O	-1.451918	1.780376	-2.702752
N	-0.552747	-1.142566	0.75545
H	-0.122766	-1.981922	0.377423
H	-0.192432	-1.062193	1.699669
Cl	3.532526	0.0	0.0
