15

C	-0.479932	0.135732	-1.429129
C	0.0	0.0	0.0
F	-1.86474	0.11311	-1.427689
H	1.093013	0.0	0.0
H	-0.37824	-0.936053	0.423369
N	-0.036283	1.279806	-2.128813
H	0.902659	1.100579	-2.470701
H	0.01328	2.014447	-1.427436
N	-0.082088	-1.116689	-2.208494
O	0.722536	-1.011449	-3.128538
O	-0.610915	-2.159631	-1.832612
N	-0.43067	1.206726	0.709293
H	0.269299	1.440818	1.398676
H	-1.313937	1.058258	1.174882
Cl	3.422723	0.0	0.0
