15
Coordinates from ORCA-job run
  C   -0.45545127533777      0.34157311996586      0.37406739679162
  C   0.72214059939996     -0.53068998394292      0.75829742209230
  F   -1.05668561802050      0.78146038569687      1.53295216252532
  H   1.36599338370747      0.04655880082789      1.43170678445725
  H   0.29532506336437     -1.35604173004308      1.33459824711512
  N   0.03827773281440      1.62339747316099     -0.29811733445397
  O   -0.82705414212007      2.41439140642932     -0.65532240364786
  O   1.25228086109939      1.79195109633126     -0.40915768235855
  C   -1.47571438480789     -0.30776434183738     -0.51650724747211
  H   -1.01178477348248     -0.60565970198363     -1.45520977906735
  H   -1.85884835240729     -1.19826203699962     -0.01502877948586
  H   -2.29508228206278      0.38569717982512     -0.69895972479548
  N   1.38289066952670     -1.05656625523193     -0.42655216864613
  H   1.84169796971921     -1.93135615777024     -0.21488745842137
  H   2.08101454860727     -0.39768925442850     -0.74287943463292
