15
Coordinates from ORCA-job run
  C   -0.27408017616385      0.39020667994289      0.22623795983299
  C   1.04427283693448     -0.32469868233235     -0.01760553062457
  F   -0.46304605563095      0.48526465372135      1.57883659546311
  H   1.84164288459999      0.30071179870309      0.41081194068846
  H   1.20677770726813     -0.38711509686216     -1.09385366341874
  N   -0.11930749243923      1.80982523529236     -0.29567053815164
  O   0.12246530887428      1.89500442888854     -1.49760398551116
  O   -0.23781237800500      2.73941650189245      0.49041928408574
  C   -1.48752185734338     -0.23160002337846     -0.41067105793969
  H   -2.37722754543620      0.33150278389065     -0.12240586101627
  H   -1.56914198631757     -1.25763879920700     -0.05595909451487
  H   -1.38904787625133     -0.22617125167611     -1.49546512828379
  N   0.95406166522125     -1.66364321638088      0.54487414097093
  H   1.04820761575601     -1.62024306855662      1.55113633639600
  H   1.70075734893338     -2.24282194393774      0.18591860202349
