15
Coordinates from ORCA-job run
  C   -0.41452360961860      0.32823850236298      0.39179054366040
  C   0.74751918654616     -0.54269393879170      0.84648072153452
  F   -1.03855803704386      0.82864178514986      1.51576795062951
  H   1.34851322398397      0.04301566191898      1.54194048069353
  H   0.30486710594426     -1.36706830988843      1.41343273731272
  N   0.12114515927355      1.57562191056677     -0.31917526774072
  O   -0.64771983941475      2.16625279133641     -1.07199509148267
  O   1.26642567761888      1.93132473670966     -0.04712270386355
  C   -1.43341632112198     -0.34779401812641     -0.48196447494801
  H   -1.80040456126764     -1.23651798591770      0.03456679083207
  H   -2.26456703749519      0.32676809764812     -0.67576182648820
  H   -0.99628754612242     -0.64002570938581     -1.43719470489013
  N   1.60599430153165     -1.07630059938941     -0.18780766742885
  H   2.09604115440462     -0.33863405820078     -0.67303430121976
  H   1.10497114278135     -1.64982886599254     -0.85092318660083
