15
Coordinates from ORCA-job run
  C   -0.46956684170412      0.19081511807283      0.24108254327264
  C   0.65288517166704     -0.83211837437815      0.26063393133973
  F   -0.80591766431277      0.52658003308789      1.51730178278478
  H   0.31748091642140     -1.62074188193392      0.93984520340974
  H   0.75157721678546     -1.26640867608382     -0.73932172277135
  N   0.06747933693649      1.45224294329986     -0.41619889272950
  O   -0.14786901843201      2.52727722104421      0.11995030441004
  O   0.66323494512782      1.26867901222371     -1.47679753277170
  C   -1.70731803690332     -0.22886196390469     -0.51285216130692
  H   -1.47665963776634     -0.40483101622795     -1.56330198060808
  H   -2.10390658224611     -1.14411770053686     -0.06938582500387
  H   -2.46358991653867      0.55388522163961     -0.43146569548681
  N   1.87070392476313     -0.22342488790123      0.77228335940254
  H   2.46454293677444      0.07279159379961      0.01008826249241
  H   2.38792324942755     -0.87076664220110      1.34813842356634
