15
Coordinates from ORCA-job run
  C   -0.41386350876029      0.21644773020899      0.31069691715948
  C   0.62242514943896     -0.88275043028072      0.15497235449318
  F   -0.54118450461210      0.54441605170606      1.62610929707819
  H   0.33150928596268     -1.65962714357134      0.86739360261488
  H   0.54404957623522     -1.30172840900055     -0.85353700444828
  N   0.11288963982404      1.45356416486068     -0.39941755674888
  O   0.04052541120213      2.52951711477451      0.17234614710927
  O   0.53626055057226      1.25595787101909     -1.53750964198735
  C   -1.77302627762057     -0.09830257226127     -0.26423366032960
  H   -2.16769895146212     -0.99392343915712      0.21919257577369
  H   -2.45142771063728      0.73315613667315     -0.06501404210091
  H   -1.70678014461967     -0.26531325087158     -1.33912284758075
  N   1.94211768601688     -0.37434797379915      0.49460113922059
  H   2.49645995601631     -1.08206597465640      0.95330650818928
  H   2.42974384244355     -0.07799987564432     -0.33978378844279
