15
Coordinates from ORCA-job run
  C   -0.21353473677758      0.38870534852676      0.23856504745428
  C   1.13592181834307     -0.30414104547638      0.04281510385523
  F   -0.47452137177879      0.44968848667016      1.58136567286513
  H   1.88295613064902      0.30257862412415      0.56474195167192
  H   1.38414612444057     -0.29391127269462     -1.01957061022526
  N   -0.05340947375569      1.81708902393872     -0.24823831640638
  O   -0.10349143132139      2.72482179446655      0.57019358663435
  O   0.14992486837165      1.92895299504867     -1.45545361802956
  C   -1.39279646001380     -0.22948412286929     -0.46661314739680
  H   -2.29084333936232      0.35643244334628     -0.26275610820430
  H   -1.22180876439739     -0.26475719635648     -1.54145618463881
  H   -1.54895639705933     -1.23835086591502     -0.08358739546700
  N   1.20491901413886     -1.65831262702311      0.54862049701491
  H   0.91765787922771     -1.69239737400566      1.51776311367295
  H   0.62483613929537     -2.28891421178076      0.01261040719934
