15
Coordinates from ORCA-job run
  C   -0.40147734217334      0.35198910960724      0.44390213043384
  C   0.79150590860992     -0.56518184159190      0.67084918392762
  F   -0.90772948265755      0.68648515311343      1.67068678883569
  H   0.43542319560098     -1.31130992851739      1.38643420074011
  H   1.57318970143286      0.02213588557147      1.17462075730176
  N   0.07107539469075      1.66125517583717     -0.17784015859537
  O   0.90414466312704      1.55649143244272     -1.07697915266573
  O   -0.43313011457222      2.70120852967939      0.22017975927437
  C   -1.49357265180826     -0.20021592300489     -0.43171409093305
  H   -1.10997625444909     -0.41434994505800     -1.42669482530446
  H   -2.31225233583983      0.52035835169433     -0.47940248589212
  H   -1.85779958937253     -1.13026308343224      0.00728263713075
  N   1.20764664466161     -1.24775444822106     -0.54277706629181
  H   1.72412439719686     -0.60736275293275     -1.13017822117041
  H   1.81082786555277     -2.02448571518751     -0.30736945679118
