15
Coordinates from ORCA-job run
  C   -0.36593160966642      0.19527911058189      0.23708061863791
  C   0.66040701803552     -0.93084277100096      0.19251710852512
  F   -0.36016398318115      0.73916536467951      1.49339477677594
  H   0.63323152981163     -1.39032230802649     -0.79649233476443
  H   0.32794352376940     -1.67714116132678      0.92100141648677
  N   0.12293351278988      1.28141932664771     -0.70566897038541
  O   0.42238779702316      2.37285865777640     -0.24167818805627
  O   0.20512804523956      0.94141725175713     -1.88384920256614
  C   -1.77336515870204     -0.18206803828283     -0.14466561853916
  H   -1.80487280715086     -0.55286807582416     -1.16810482806293
  H   -2.12883866014673     -0.95755536247614      0.53590805252548
  H   -2.42653872868754      0.68787614081276     -0.05331914136833
  N   2.01980052547929     -0.54029486680772      0.50146698624514
  H   2.42056011615936      0.01393727391977     -0.24391168682507
  H   2.04831887922694      0.00013945756992      1.35632101137139
