15
Coordinates from ORCA-job run
  C   -0.38945828329664      0.34296941013482      0.44398225406219
  C   0.82959714097290     -0.53384162529398      0.76803297854004
  F   -0.96235364881982      0.70051657236537      1.63150003490195
  H   1.52757125417554      0.08814508245751      1.33767382956717
  H   0.45828493128431     -1.29981130972937      1.45499683498076
  N   0.11332791938996      1.62574725367621     -0.19551436900165
  O   0.05283294782699      2.66400351288685      0.44717955010247
  O   0.58800209697246      1.49504949420913     -1.32406483374943
  C   -1.42832230408518     -0.27471084159899     -0.45397201567767
  H   -2.27205697026317      0.40943057330465     -0.56128858091868
  H   -1.78545152320450     -1.19937993076914      0.00393401091452
  H   -1.01584103858815     -0.48748247137969     -1.43762279021878
  N   1.52721679997401     -1.17248125841885     -0.32346152879935
  H   1.81216088095997     -0.49315009940736     -1.01617096124692
  H   0.94448979670132     -1.86400436243714     -0.77520441345659
