9
Coordinates from ORCA-job run
  C   0.44225178692101     -0.40155388560260     -0.12174712626689
  C   -1.01847748319542     -0.05694204599676      0.07616780248177
  F   0.65113123341725     -0.78905718689797     -1.43616736521301
  H   -1.29769488627505      0.76356794794837     -0.58501442050547
  H   0.74298844225946     -1.23917055196619      0.51344001303462
  H   -1.20496506338545      0.23869724829312      1.10984641553654
  H   -1.62784546991914     -0.92947887396066     -0.16152842424754
  C   1.31743575291158      0.74558683714133      0.17432588821529
  N   1.99517568726574      1.66835051104136      0.42967721696469
