13

C	0.0	0.0	0.0
C	-0.500965	-0.028102	-1.461081
Br	1.966833	0.0	0.0
H	-0.146467	0.83848	-2.024252
H	-1.602408	0.013948	-1.278425
C	-0.371738	1.302503	0.584629
N	-0.578775	2.344757	1.085075
N	-0.528242	-1.043199	0.819171
H	-1.563259	-0.848277	0.697684
H	-0.293045	-1.929266	0.378426
C	-0.116266	-1.255843	-2.138573
N	0.187597	-2.258207	-2.673689
F	-2.738523	0.0	0.0
