13

C	0.0	0.0	0.0
C	-0.519339	0.035672	-1.441065
Br	1.957674	0.0	0.0
H	-0.190218	0.948088	-1.944606
H	-1.623945	0.04984	-1.265098
C	-0.341233	1.294464	0.637538
N	-0.549572	2.332961	1.147695
N	-0.545321	-1.143171	0.654999
H	-0.308793	-1.107227	1.641376
H	-1.580501	-0.938714	0.541747
C	-0.105768	-1.126813	-2.211271
N	0.191622	-2.039316	-2.888189
F	-2.770073	0.0	0.0
