13

C	0.0	0.0	0.0
C	-0.30379	0.142141	-1.512344
Br	1.960729	0.0	0.0
H	0.100494	-0.770002	-1.962631
H	0.289156	0.977424	-1.895459
C	-0.371639	1.219155	0.746255
N	-0.556228	2.185376	1.390522
N	-0.51611	-1.221919	0.51392
H	-0.307458	-1.266126	1.507387
H	-1.55851	-0.997563	0.39855
C	-1.669526	0.326052	-2.02527
N	-2.486571	0.518392	-2.851766
F	-2.62142	0.0	0.0
