13

C	0.0	0.0	0.0
C	-0.522229	-0.012221	-1.439829
Br	1.955278	0.0	0.0
H	-0.246251	-0.974931	-1.878023
H	-1.625163	0.035798	-1.267471
C	-0.338918	1.290351	0.642608
N	-0.55561	2.3203	1.166279
N	-0.554561	-1.141125	0.659515
H	-1.58935	-0.925414	0.540668
H	-0.326274	-1.087669	1.647772
C	-0.043915	1.080648	-2.26928
N	0.315482	1.951266	-2.971589
F	-2.775132	0.0	0.0
