14

C	0.0	0.0	0.0
C	-0.542074	-0.132001	-1.40897
Cl	1.766334	0.0	0.0
H	-0.191007	-1.054808	-1.860969
H	-1.645844	-0.118351	-1.324981
C	-0.453429	1.162964	0.754576
N	-0.6622	2.140053	1.373712
N	-0.395382	-1.275565	0.784885
O	-0.505072	-1.154722	1.992694
O	-0.461002	-2.30788	0.135059
N	-0.12465	0.976655	-2.300117
O	0.210834	2.050313	-1.806009
O	-0.192622	0.738316	-3.504767
Cl	-3.349384	0.0	0.0
