14

C	0.0	0.0	0.0
C	-0.623818	-0.082887	-1.387734
Cl	1.763768	0.0	0.0
H	-1.707112	-0.205557	-1.235043
H	-0.399784	0.846238	-1.914689
C	-0.447542	1.224691	0.657118
N	-0.664946	2.266879	1.155113
N	-0.406404	-1.208879	0.857651
O	-0.512913	-1.020611	2.057886
O	-0.49287	-2.266961	0.253829
N	-0.122226	-1.18287	-2.265214
O	-0.933198	-2.033443	-2.617119
O	1.049982	-1.121173	-2.63983
Cl	-3.47949	0.0	0.0
