14

C	0.0	0.0	0.0
C	-0.594668	0.189725	-1.386098
Cl	1.752007	0.0	0.0
H	-1.651718	-0.129884	-1.328712
H	-0.577797	1.245896	-1.649115
C	-0.436426	1.08285	0.87956
N	-0.655211	2.0038	1.57552
N	-0.435371	-1.338167	0.646429
O	-0.901725	-2.189876	-0.08714
O	-0.216087	-1.42073	1.846668
N	0.097124	-0.521063	-2.492487
O	0.678971	-1.578428	-2.270071
O	-0.013445	0.008231	-3.599265
Cl	-3.399888	0.0	0.0
