14

C	-0.362122	0.074143	-1.487679
C	0.0	0.0	0.0
Cl	-0.064831	-1.583139	-2.253463
H	1.095758	0.0	0.0
H	-1.427323	0.232552	-1.673157
N	0.428417	1.107688	-2.039361
H	1.402991	0.963838	-1.765998
H	0.346743	1.156895	-3.045574
N	-0.476018	-1.185647	0.70174
H	0.330123	-1.599966	1.156707
H	-1.157319	-0.942736	1.408243
C	-0.45583	1.230216	0.64126
N	-0.85785	2.170498	1.223042
H	2.764445	0.0	0.0
