14

C	-0.437296	-0.026305	-1.472378
C	0.0	0.0	0.0
Cl	-0.056742	-1.644577	-2.15575
H	1.093226	0.0	0.0
H	-1.522245	0.08293	-1.572618
N	0.236123	0.977788	-2.257362
H	-0.089849	1.891785	-1.963024
H	1.228675	0.915476	-2.035551
N	-0.492968	-1.124849	0.797406
H	-1.002164	-0.79263	1.604236
H	0.331293	-1.613595	1.135746
C	-0.442149	1.276268	0.550214
N	-0.82403	2.286163	1.018655
H	2.766936	0.0	0.0
