14

C	-0.330981	0.088999	-1.491026
C	0.0	0.0	0.0
Cl	-0.13039	-1.629885	-2.241581
H	1.103006	0.0	0.0
H	-1.382018	0.29065	-1.703035
N	0.537298	1.039194	-2.042875
H	0.48085	1.09472	-3.049783
H	1.495954	0.865033	-1.726342
N	-0.606654	-1.153472	0.677736
H	-0.370275	-1.060244	1.661518
H	-0.090063	-1.965183	0.352651
C	-0.470962	1.228471	0.631757
N	-0.833223	2.204639	1.177198
H	2.813731	0.0	0.0
