14

C	-0.489013	-0.054321	-1.42537
C	0.0	0.0	0.0
Cl	-2.423619	0.137549	-1.405323
H	1.094904	0.0	0.0
H	-0.208329	0.830735	-1.993401
N	-0.094647	-1.239128	-2.030428
H	-0.242429	-2.010805	-1.391762
H	-0.506386	-1.391691	-2.938363
N	-0.348837	-1.231274	0.703712
H	0.427187	-1.451025	1.321314
H	-1.19802	-1.127219	1.243385
C	-0.432328	1.213163	0.686952
N	-0.763862	2.166537	1.290275
H	2.68498	0.0	0.0
