14

C	-0.450699	-0.039453	-1.452441
C	0.0	0.0	0.0
Cl	0.082056	1.487914	-2.30842
H	1.09323	0.0	0.0
H	0.103145	-0.839105	-1.948977
N	-1.860057	-0.265685	-1.570776
H	-2.133649	-0.312907	-2.545014
H	-2.358365	0.507131	-1.140522
N	-0.35145	-1.233654	0.697778
H	0.474259	-1.824037	0.669356
H	-1.128017	-1.690353	0.2355
C	-0.579044	1.155544	0.681751
N	-1.071644	2.081807	1.213949
H	2.70467	0.0	0.0
