14

C	-0.402799	0.069406	-1.467585
C	0.0	0.0	0.0
Cl	-0.101283	-1.615674	-2.233866
H	1.103013	0.0	0.0
H	-1.479019	0.187309	-1.613128
N	0.342835	1.100428	-2.067299
H	1.331669	0.985591	-1.835613
H	0.207472	1.145953	-3.068604
N	-0.562656	-1.173062	0.692669
H	-0.321634	-1.056295	1.671744
H	-0.004186	-1.957737	0.371967
C	-0.484981	1.212248	0.651363
N	-0.865724	2.163887	1.226787
H	2.809339	0.0	0.0
