14

C	-0.548924	-0.034146	-1.411069
C	0.0	0.0	0.0
Cl	0.090065	1.415997	-2.341568
H	1.092526	0.0	0.0
H	-0.113326	-0.900492	-1.905277
N	-1.974235	-0.10549	-1.434639
H	-2.30913	-0.200569	-2.385427
H	-2.3609	0.748411	-1.048147
N	-0.332494	-1.268571	0.644445
H	-1.236211	-1.237373	1.097822
H	0.397231	-1.457419	1.325192
C	-0.515488	1.166929	0.720736
N	-0.976622	2.064129	1.327313
H	2.731674	0.0	0.0
