14

C	-0.348093	0.092285	-1.492261
C	0.0	0.0	0.0
Cl	-0.091874	-1.572431	-2.265713
H	1.095821	0.0	0.0
H	-1.40536	0.28225	-1.690134
N	0.479607	1.101324	-2.028415
H	1.446173	0.934766	-1.737879
H	0.413163	1.161496	-3.034998
N	-0.485121	-1.187233	0.69065
H	0.316259	-1.612548	1.144645
H	-1.163798	-0.945105	1.399101
C	-0.452389	1.228704	0.646569
N	-0.857171	2.170145	1.224364
H	2.768311	0.0	0.0
