16
Coordinates from ORCA-job run
  C   0.65167415085255     -0.10816089292993      0.43735154285738
  C   -0.79062220128901      0.26429813460982      0.10731601031160
  F   0.69309037096660     -0.69161319531341      1.67427650487144
  H   -1.11811632613207      0.95030000249545      0.89213523209903
  N   1.46294863480211      1.21077076643919      0.67633710819694
  O   2.62539106642721      1.21552400636108      0.28575910644491
  O   0.89147099974178      2.11172931835808      1.27922183166447
  N   1.24348570949445     -0.95395031735761     -0.49799978866043
  H   2.22684944646995     -1.08880369980273     -0.29843197533829
  H   1.13322867846051     -0.61057365547415     -1.44350732524907
  C   -1.68899507205839     -0.97472807715466      0.06836814679694
  H   -1.37999036003125     -1.65510543702592     -0.72405372830820
  H   -1.62695872601268     -1.49717513492414      1.02286342077390
  H   -2.72379662116387     -0.67414108381503     -0.10155621438760
  C   -0.80666481330810      0.98391194408789     -1.16621116557639
  N   -0.79499493721981      1.51671732144606     -2.21286870649662
