16
Coordinates from ORCA-job run
  C   0.59654926817278      0.17291922476133      0.51812378340012
  C   -0.71778390723212     -0.36460873705930     -0.04902409332691
  F   0.44293257219348      1.43669362729466      0.96768242072633
  H   -0.52880704490268     -1.38871831515287     -0.38804003547978
  N   1.56271583451944      0.27113253049929     -0.69411651115828
  O   1.94110717303587      1.37054134212921     -1.07002649859622
  O   1.85860954650664     -0.81888621437447     -1.17953052220859
  N   1.11983954751032     -0.62493658122337      1.54994544160455
  H   1.93123147653844     -0.19244447423416      1.97469181522662
  H   1.34313660260117     -1.55534617255648      1.22360128249793
  C   -1.23095807269870      0.47957962781475     -1.22033044232602
  H   -2.21755224794338      0.12791083812090     -1.52293622728140
  H   -0.56249806378664      0.39515892673721     -2.07844435749937
  H   -1.30859078741553      1.52776042137973     -0.93029318760141
  C   -1.70067003509901     -0.40725640671194      1.03440227541885
  N   -2.53026186200008     -0.42849963742449      1.86429485660359
