12
Coordinates from ORCA-job run
  C   -0.37286411677299     -0.22572181337687      0.64198595452581
  C   0.41571676014889      0.12410133129709     -0.60574042455722
  Cl  0.28290492889490      0.58086651656894      2.06959338008163
  H   0.39915807454393      1.21369061507469     -0.72822349807512
  H   -0.38499078525727     -1.29695655210694      0.82316688788116
  H   -0.11464937827816     -0.32352161906733     -1.45236958756822
  N   -1.80337382081719      0.19094550481467      0.44251680544357
  O   -2.02233636056212      1.38562550582557      0.27827392349195
  O   -2.63042905103834     -0.71692267481798      0.40017169512877
  N   1.73555564820496     -0.47964418337706     -0.50903659041532
  H   2.34029216085672      0.09403383707468      0.06452744477719
  H   2.15401594007666     -0.54649646790946     -1.42686599071420
