12
Coordinates from ORCA-job run
  C   -0.59312122738539     -0.62364378603258      0.37042711514334
  C   0.84772512430485     -0.34044964420597     -0.00070155704239
  Cl  -0.71811839463680     -1.53988504277175      1.87719983947590
  H   1.31132220093539      0.18235109275843      0.83704472291140
  H   -1.13542462504909     -1.15330702494200     -0.40903794790402
  H   1.36132468397285     -1.29923084269668     -0.12187097550810
  N   -1.31963905507001      0.68551771755925      0.53953320242046
  O   -0.75360712127966      1.55315551215093      1.19428142393191
  O   -2.42188180169054      0.77213659918982      0.01059543617214
  N   0.84238797109113      0.46991885179268     -1.20925214203841
  H   1.21371791050791     -0.03046364930095     -2.00260949798636
  H   1.36631433429935      1.32290021649883     -1.08660961957586
