12
Coordinates from ORCA-job run
  C   -0.43455786208764     -0.52749829638064      0.67254439850283
  C   0.60112802755263     -0.54237288743011     -0.43797551585808
  Cl  0.27692285726371     -0.12664837989389      2.23091048079182
  H   1.37120600835531     -1.27574792457835     -0.16201626756274
  H   -0.94828408900216     -1.48371843928734      0.76379968041724
  H   0.09608788361556     -0.89921775068333     -1.33745177998606
  N   -1.50948877479654      0.46929715682007      0.28145250977926
  O   -1.64439531369954      1.50707400984300      0.90449698569652
  O   -2.15435667303303      0.10854915670496     -0.69868365934607
  N   1.07661273099588      0.80805240310709     -0.67365164600560
  H   1.52423838103809      0.87466558658295     -1.57681114222819
  H   1.74388682379773      1.08656536519559      0.03338595579905
