12
Coordinates from ORCA-job run
  C   -0.48077704669521     -0.60883597293705      0.51759288082483
  C   0.90925261177812     -0.13985944617377      0.15376124049282
  Cl  -0.62622166858463     -0.98376302524139      2.23981673780754
  H   1.58669734410852     -0.97519367017700      0.34577823888550
  H   -0.78544214397229     -1.47740018036585     -0.06098691280512
  H   1.19187361516123      0.68445466668710      0.81539581937654
  N   -1.49097939393455      0.46161974203710      0.18784406451127
  O   -1.12571680372987      1.62945571107377      0.29357088845698
  O   -2.60607604977991      0.07680846970444     -0.14298345291664
  N   0.90779315179636      0.18671451655634     -1.26504582002598
  H   0.71967451322393      1.17117448983040     -1.39650015187328
  H   1.79992187062831     -0.02617530099409     -1.68724353273445
