12
Coordinates from ORCA-job run
  C   -0.42432512237112     -0.33803440368312      0.55433231123423
  C   0.46007990066870      0.22816914516308     -0.54010306486106
  Cl  0.17263247424230      0.09542114591623      2.15888883718097
  H   -0.03348344881907      0.00861051443871     -1.49229515043754
  H   -0.49875373552081     -1.42020956509992      0.49188996234330
  H   0.50217493842295      1.31730065065101     -0.41929872652766
  N   -1.81743276605236      0.19788115275407      0.37594996551172
  O   -1.96823971516716      1.41087042008503      0.46623720140908
  O   -2.68275452991649     -0.62749665788317      0.09282334311732
  N   1.74115975509163     -0.45974070403535     -0.50899245201054
  H   2.33084434563483     -0.06714376690692      0.21342710458393
  H   2.21809790378660     -0.34462793139964     -1.39285933154374
