12
Coordinates from ORCA-job run
  C   -0.36539609008211      0.31141932499510      0.51716989034770
  C   0.46227557694457     -0.34438150178526     -0.59115798127000
  Cl  -0.39121683902182      2.06737520969793      0.35986068078255
  H   0.32854267338395     -1.42683843345386     -0.49437418331193
  H   -0.00780753703618      0.05941152861975      1.51361334695214
  H   0.03496913257926     -0.03788784796681     -1.54831554409380
  N   -1.76430276278349     -0.23788633232291      0.43929048184911
  O   -2.06591698303393     -1.04937571661603      1.31195006798195
  O   -2.45017720800418      0.09439265263853     -0.51924441809652
  N   1.87416989700299     -0.04222300061237     -0.57845687324652
  H   2.31058009663387     -0.34437557012054      0.28256091149420
  H   2.03528004341707      0.94936968692646     -0.69289637938888
