12
Coordinates from ORCA-job run
  C   -0.42835275503474     -0.36520252783650      0.53402107318748
  C   0.46265291513319      0.25460179823806     -0.52552961974527
  Cl  0.17284416072733     -0.03230296047238      2.16090928311561
  H   0.51634055616259      1.33425996265717     -0.34127696125424
  H   -0.51313844729001     -1.44114980987027      0.40867226244962
  H   -0.03224441034267      0.09661637553310     -1.48915817018112
  N   -1.81564099493318      0.19378273164340      0.38775789817535
  O   -2.68919956601326     -0.60499680688797      0.05746826346819
  O   -1.95453772931730      1.40086827583818      0.54905316668580
  N   1.73669611994043     -0.44726807652228     -0.53407488980716
  H   2.33235898849042     -0.09814183799448      0.20555917291277
  H   2.21222116247721     -0.29106712432604     -1.41240147900701
