12
Coordinates from ORCA-job run
  C   -0.43889232992356     -0.48658593990558      0.69915315143281
  C   0.59318533718848     -0.57080479484395     -0.41130349639040
  Cl  0.28215296404798     -0.01421991762706      2.23324579172076
  H   0.08101960236121     -0.96594989996557     -1.29054757998861
  H   -0.96265983278551     -1.43100848629683      0.84176123603842
  H   1.35503590503057     -1.29883052182876     -0.10063891429918
  N   -1.50397666167356      0.50045986789256      0.25998132069872
  O   -1.62603572781927      1.56980389737799      0.83013390693326
  O   -2.15573718222556      0.09735983893138     -0.69883966630232
  N   1.08463603215551      0.76014304841589     -0.71630482377499
  H   1.53342263594374      0.77375589740305     -1.62130729066696
  H   1.75584925769997      1.06587701044689     -0.02433363540150
