12
Coordinates from ORCA-job run
  C   -0.46976098798010     -0.58983579002111      0.54865930629156
  C   0.91229743901008     -0.14427081966337      0.12907061137040
  Cl  -0.56444526558246     -0.91558067740305      2.28433406113402
  H   1.58818705899656     -0.98052699386782      0.32249682824340
  H   -0.80003905756110     -1.47112304036616      0.00441035072950
  H   1.22260872318895      0.69485784076130      0.75888735963646
  N   -1.48012090899204      0.48062217834421      0.22034562569450
  O   -1.10222637255175      1.64750418584257      0.28406577200761
  O   -2.60795859502377      0.09749961929249     -0.06665884876679
  N   0.86919448104444      0.14395413780793     -1.29751043830328
  H   1.74622856463979     -0.08851407842089     -1.74056623887801
  H   0.68603492081142      1.12641343769390     -1.44953438915936
