12
Coordinates from ORCA-job run
  C   -0.44005665457777     -0.51703487285251      0.67604868693389
  C   0.59953466660554     -0.55036305320961     -0.42991181420635
  Cl  0.26799170723277     -0.10287487327166      2.23301548869731
  H   1.36358249910697     -1.28590968502007     -0.14324230865219
  H   -0.95887083939891     -1.46952558528104      0.77688091309595
  H   0.09537690543496     -0.91324329050542     -1.32755056714456
  N   -1.50845918384249      0.48112530088427      0.27039271834566
  O   -1.63972726133990      1.52625494521270      0.88177697370343
  O   -2.15243998571327      0.11288377951612     -0.70741948915902
  N   1.08452201421280      0.79451687954501     -0.67866546287013
  H   1.74957671254326      1.07665302740382      0.02912911582877
  H   1.53896941973604      0.84651742757840     -1.57945425457276
