12
Coordinates from ORCA-job run
  C   -0.41660048809085     -0.49481154754041      0.67387452318956
  C   0.64660279804815     -0.64322527010749     -0.42409546628955
  Cl  0.28305620951883      0.00013661277015      2.20795231254103
  H   0.13803886204431     -1.03959629810040     -1.30719981632680
  H   -0.97431258195244     -1.41790098562964      0.82365118623331
  H   1.35456354825021     -1.40066967028060     -0.07847220231787
  N   -1.42945764311897      0.51041056840852      0.18408748477083
  O   -1.33574871558133      1.68062850551185      0.52848840973456
  O   -2.22946794871897      0.04815065950828     -0.62608098874241
  N   1.36932159617023      0.54973429954714     -0.78869533840227
  H   0.76527432631593      1.24554624251597     -1.20487459047338
  H   1.82873003711490      0.96159688339662      0.01236448608300
