12
Coordinates from ORCA-job run
  C   -0.43250068312621     -0.51765419778492      0.68153219221510
  C   0.58768428439028     -0.55328047976994     -0.44299278650326
  Cl  0.30606723776230     -0.12047662623427      2.22877916176281
  H   0.06577345802964     -0.91271739992947     -1.33200697982832
  H   -0.95764572239641     -1.46634791985929      0.78404943260949
  H   1.35284335253595     -1.29314905047302     -0.17042002347841
  N   -1.49736420758275      0.49243150618423      0.30097116511411
  O   -2.17675481273385      0.12605609185288     -0.65359882287613
  O   -1.59063178279045      1.54653853244842      0.90402949605351
  N   1.07514602834668      0.78889471070840     -0.69836149736086
  H   1.51933953710372      0.83950472932967     -1.60424510930651
  H   1.74804331046110      1.07020010352729      0.00226377159847
