12
Coordinates from ORCA-job run
  C   -0.51315768074577     -0.59394800402781      0.45122454599985
  C   0.91182065613415     -0.43188729564140     -0.06793292614924
  Cl  -0.55091070694418     -1.42237938427288      2.00810437322879
  H   1.50069680749120      0.05142867268648      0.71338469803430
  H   -1.16425958452110     -1.12506937153102     -0.24080603774489
  H   1.32154654046897     -1.43360154706134     -0.22113025753076
  N   -1.12205972856868      0.77521850682115      0.59211553388513
  O   -2.11025511404496      1.00765326499058     -0.10015452738554
  O   -0.54944993906890      1.56620341121096      1.33240970144083
  N   1.02720794097504      0.33444877114549     -1.28859255353774
  H   0.79748430413482      1.30826492346345     -1.14533986812571
  H   0.45133650468940     -0.03633194778365     -2.03228268211501
