13

C	0.0	0.0	0.0
C	-0.470981	0.302877	-1.405349
Cl	1.783721	0.0	0.0
H	-1.561814	0.36197	-1.329085
H	-0.166293	-0.536345	-2.033115
H	-0.028253	1.224932	-1.775501
N	-0.306088	1.257674	0.907858
O	-0.339133	2.367	0.389718
O	-0.444679	1.037083	2.106306
N	-0.593019	-1.144922	0.51023
H	-1.63669	-0.895636	0.374075
H	-0.384728	-1.217481	1.499781
F	-2.824257	0.0	0.0
