13

C	0.0	0.0	0.0
C	-0.446583	0.00805	-1.442569
Cl	1.834943	0.0	0.0
H	-0.14418	-0.944788	-1.879276
H	-1.535983	0.090471	-1.396797
H	0.009389	0.829865	-1.989422
N	-0.269288	1.42512	0.622192
O	-0.391491	1.465509	1.842813
O	-0.301706	2.399906	-0.120302
N	-0.594294	-1.000729	0.737375
H	-1.646199	-0.779063	0.540885
H	-0.389662	-0.861771	1.720514
F	-2.810132	0.0	0.0
