13

C	0.0	0.0	0.0
C	-0.451987	0.059482	-1.439044
Cl	1.835726	0.0	0.0
H	-0.16262	-0.882928	-1.907431
H	0.009441	0.893241	-1.96257
H	-1.541708	0.150486	-1.385624
N	-0.265014	1.401976	0.672808
O	-0.390291	1.399928	1.89361
O	-0.289841	2.402355	-0.034478
N	-0.59533	-1.026116	0.703961
H	-1.643928	-0.798467	0.50904
H	-0.399332	-0.913597	1.691576
F	-2.814069	0.0	0.0
