14
Coordinates from ORCA-job run
  C   1.18305649159523     -0.21558737594208     -0.08083756649155
  C   -0.30215862196290      0.09264847757361     -0.27083942556009
  F   1.58793935246905      0.07030878976104      1.20589095603540
  H   -0.48363411851251      0.01153579304973     -1.35657343537335
  H   1.77968488126383      0.40226620308475     -0.76083118124995
  C   1.45517853345659     -1.63320600410663     -0.36908151729730
  N   1.62209712145571     -2.76281812299320     -0.63960338077775
  C   -0.59163189582190      1.51764872807263      0.17638721818368
  H   -1.62606687421819      1.78279699707510     -0.05561228988562
  H   -0.44150485363617      1.59932087695884      1.25301112983658
  H   0.05961973640080      2.23468702372524     -0.32844619275320
  N   -1.08627761716996     -0.84098175782545      0.52413779068087
  H   -1.12070143045582     -1.75358056833767      0.08555479037268
  H   -2.03660070486376     -0.50603906009592      0.61684310427960
