14
Coordinates from ORCA-job run
  C   0.80570118232288     -0.88525982754745     -0.06805682575545
  C   -0.35337435592570      0.06869985189850     -0.31318354328548
  F   0.75005670385645     -1.91525085935154     -0.99968376618231
  H   -0.22450555545120      0.46629954216895     -1.33279538695100
  H   0.70347173090557     -1.33466440805075      0.92386266883537
  C   2.10687360622953     -0.21341903694620     -0.19080273852716
  N   3.13308687284459      0.34803744694181     -0.28343673103552
  C   -0.33061300424596      1.21321416435564      0.68705852975204
  H   -1.18502895099948      1.87297893314760      0.51701076443125
  H   0.57625789535842      1.81350271611218      0.59463913960396
  H   -0.40496394748634      0.82280938900709      1.70480568275118
  N   -1.57094814409328     -0.71438963673649     -0.14077859171404
  H   -1.62458192487799     -1.42814129521006     -0.85737061860116
  H   -2.38043210843748     -0.11441697978928     -0.24326858332169
