14
Coordinates from ORCA-job run
  C   1.10638697500580     -0.25277346701870     -0.01365510939163
  C   -0.34576052018382      0.13036404888266     -0.33345208040410
  F   1.30723561783845     -0.16618156939600      1.35792393968218
  H   -0.46161850856958      0.03515721261782     -1.41962467803540
  H   1.81703056721141      0.42774711966519     -0.49340666992074
  C   1.38500025844020     -1.63153411174223     -0.44114806612558
  N   1.55347202594384     -2.73101375824424     -0.81541429573976
  C   -0.60015732158919      1.57497832124462      0.07603204308102
  H   -1.62187396295404      1.84683298037455     -0.18810815354475
  H   -0.48019361907182      1.69190092452482      1.15515145854675
  H   0.09058250952516      2.26045927917107     -0.42130892709050
  N   -1.32541130689958     -0.73851502227470      0.29485008117001
  H   -1.25197609921814     -1.68723053053491     -0.05336334454000
  H   -1.17371661547868     -0.75819142726994      1.29652380231251
