14
Coordinates from ORCA-job run
  C   1.07458457889008     -0.34431554715210     -0.07027769890830
  C   -0.33773389325680      0.20898423463251     -0.30398267498835
  F   1.28754632675702     -0.48331037796591      1.29539805384571
  H   -0.46556604087252      0.29051545489334     -1.38996801030008
  H   1.84213351651902      0.33483727780764     -0.45499494067171
  C   1.23214860980663     -1.66186246065331     -0.70339113466571
  N   1.35341138043412     -2.69632521479315     -1.24414815201646
  C   -0.46163719372842      1.59128850335684      0.32303623220415
  H   -0.32979628843633      1.53174626212027      1.40544214186363
  H   -1.45546436232662      1.98899721410877      0.11885013080795
  H   0.28655597012895      2.28111292416012     -0.07528271603813
  N   -1.38892333323451     -0.65644812920454      0.20219253863238
  H   -1.40295289807718     -1.54308801369027     -0.28806375557424
  H   -1.23530637260345     -0.84313212762022      1.18618998580916
