14
Coordinates from ORCA-job run
  C   0.96937561053421     -0.54100602633612     -0.69224190910955
  C   -0.41807914953977      0.06189371580340     -0.47890223811668
  F   1.81056424955625      0.38303770135109     -1.28961374978486
  H   -0.79470396382255      0.28648349308168     -1.48287281925904
  H   0.88839763994652     -1.41024204812314     -1.34809643668828
  C   1.55214062565605     -0.95941454123287      0.59344563160944
  N   1.97189041715224     -1.27659983530951      1.64249447385604
  C   -0.35928760429492      1.34560128133327      0.33994897012120
  H   -1.35854671308151      1.77926242144419      0.42306581176627
  H   0.00799789261576      1.14006297706759      1.34976696279633
  H   0.29993106630665      2.08319193043299     -0.12176817738403
  N   -1.24143414786896     -1.00764465234474      0.07558962410548
  H   -1.10777235303795     -1.06447613047893      1.07946621803603
  H   -2.22147357012202     -0.81915028668892     -0.09028236194837
