14
Coordinates from ORCA-job run
  C   0.86508323562615     -0.53872075590122     -0.69445395589072
  C   -0.48345490733018      0.15430047398809     -0.44916701932720
  F   1.73725246268022      0.31347682154605     -1.35157150370406
  H   -0.86120413886649      0.42469095671698     -1.44180578385034
  H   0.72571633322662     -1.41831588465081     -1.33158618976047
  C   1.46911439148931     -0.96472521338524      0.57832667383787
  N   1.90691993419243     -1.28891519367584      1.61799038888050
  C   -0.31159922627320      1.41544040538269      0.37989613805724
  H   0.03067543375384      1.17175373246838      1.38997126946218
  H   -1.27181636205101      1.92590042432427      0.45948654567392
  H   0.41523122323399      2.08891423895425     -0.07552928575290
  N   -1.45468812677708     -0.72538308501630      0.17679663535119
  H   -1.61292840249999     -1.56586629200574     -0.36536663376819
  H   -1.15630185040460     -0.99155062874556      1.10801272079097
