14
Coordinates from ORCA-job run
  C   0.88845469479443     -0.84862678968561     -0.25903650569078
  C   -0.34328687488886      0.05209488344148     -0.36415052853317
  F   0.99136469694978     -1.61775411944086     -1.40142633458225
  H   -0.25116530986682      0.56572856509139     -1.32771540287969
  H   0.76900968327154     -1.52831825287685      0.59025124475272
  C   2.13471057667731     -0.07969983002451     -0.10624086420167
  N   3.11275543632260      0.55671684256379      0.01924859929367
  C   -0.38955382211371      1.07608768586325      0.76472357169337
  H   -1.29077821399413      1.68464503747209      0.66757933481847
  H   -0.42659454507110      0.57070207833712      1.73565645054377
  H   0.47544280617201      1.74132677943371      0.76188870216124
  N   -1.50969520652235     -0.82656840157100     -0.39408199584726
  H   -2.12818343542815     -0.58985788968444     -1.15569084884334
  H   -2.03148048630259     -0.75747658891958      0.46999457731491
