14
Coordinates from ORCA-job run
  C   1.05870755236524     -0.34646234561122     -0.22237136168851
  C   -0.40698704572401      0.10978757891578     -0.26697744994603
  F   1.57940165018721     -0.07979963966529      1.03749802145983
  H   -0.77756268722880     -0.13042554460893     -1.27065423927148
  H   1.67001356256810      0.19493644806983     -0.95134666555121
  C   1.15992904136181     -1.79157436040536     -0.47173119724509
  N   1.17741869594558     -2.94856148193339     -0.66788732342082
  C   -0.48537245120406      1.61465854725529     -0.04725476811604
  H   0.10424109937344      2.15983976130785     -0.78845595770331
  H   -1.52536472590350      1.93259685309745     -0.11731568865618
  H   -0.11129572581203      1.87452225931827      0.94527266357813
  N   -1.25581875343272     -0.57165835859731      0.69428683421308
  H   -0.87928312849495     -0.45428779445995      1.62765613023659
  H   -1.30902708400129     -1.56457192268301      0.49928100211104
