14
Coordinates from ORCA-job run
  C   0.85815687610469     -0.57116190771703     -0.67660893968973
  C   -0.47258290863159      0.16330315653142     -0.45591618238073
  F   1.75926131578117      0.24615371102318     -1.33897557200641
  H   -0.83147570012853      0.42940917850546     -1.45668503379071
  H   0.70096673399402     -1.45724934332481     -1.30049296821423
  C   1.43680676680122     -0.99546904689460      0.60851598101472
  N   1.83631323509837     -1.34328457551466      1.65595004857416
  C   -0.27286172515696      1.43107198710189      0.35668543279628
  H   0.05036423952803      1.19215583877626      1.37417373536821
  H   -1.21849828701952      1.97045796422294      0.41778214600932
  H   0.47866746203742      2.07621805015154     -0.09966786126957
  N   -1.47601940146440     -0.67827094886196      0.17170062265583
  H   -1.19289260584785     -0.94432644245621      1.10773898885757
  H   -1.65620600109607     -1.51900762154344     -0.36320039792470
