14
Coordinates from ORCA-job run
  C   0.95260266175602     -0.59318440559461     -0.67320003347432
  C   -0.41928856944676      0.05070465482082     -0.47915858132638
  F   1.81272994797331      0.28539736587712     -1.31099584754868
  H   -0.79624052121236      0.24179135745046     -1.48991056922174
  H   0.84762265478811     -1.48585930708289     -1.29311195497908
  C   1.53200114773154     -0.97140220240598      0.62634214186075
  N   1.95608710002423     -1.24300279391375      1.68637234456152
  C   -0.32637990965741      1.36589552691947      0.28461804173140
  H   -1.31503853547733      1.82542354054487      0.35438202945210
  H   0.34666896484635      2.06805489249588     -0.21112634875119
  H   0.04235515672402      1.19476878938777      1.30030384058775
  N   -1.26369556169149     -0.97524710944303      0.12386906483824
  H   -2.24004459620236     -0.77387852001658     -0.04837667070165
  H   -1.12837994015584     -0.99046178903958      1.12899254297127
