12
Coordinates from ORCA-job run
  C   0.83112159853123      0.03561200435544     -0.58435392560126
  C   -0.28109574976800      0.13374013905678      0.46509955610471
  Cl  1.54064074826893      1.64645181221472     -0.83108016388685
  H   0.09210988402299      0.58006184875149      1.38879056409586
  H   0.38926213565215     -0.28018832322344     -1.53184410682797
  C   1.84606100873485     -0.91639664562365     -0.15166578399290
  N   2.65770415677949     -1.68742018244699      0.20445715619086
  C   -0.89151277742063     -1.16806065738265      0.70616966821677
  N   -1.36825268212976     -2.22605027061354      0.88943117654799
  N   -1.35090274125427      1.07381346795760     -0.05996205154399
  O   -1.71245617130133      1.96187014111909      0.69960557070221
  O   -1.75267941011564      0.84656666583514     -1.19364766000541
