12
Coordinates from ORCA-job run
  C   0.82033483038293     -0.52185896744441     -0.38681301263428
  C   -0.36307582725930     -0.12143004488012      0.51135806668819
  Cl  0.30788907964499     -0.62703523464269     -2.08376715114819
  H   0.01072793391041      0.08194805122188      1.51967181703479
  H   1.12961223180867     -1.52628197798497     -0.08434212083777
  C   1.95996353568232      0.37747350269504     -0.23634475338432
  N   2.91357142857943      1.05434645726096     -0.12726515097196
  C   -1.37267906071486     -1.16958754678441      0.54489273008171
  N   -2.14147414303635     -2.05537064138657      0.60285436209338
  N   -0.95966539413881      1.18801786295243      0.02851088796593
  O   -2.07297112134532      1.15890131833156     -0.47588493115387
  O   -0.23423349351411      2.16187722066129      0.18712925626639
