12
Coordinates from ORCA-job run
  C   0.85294649986833     -0.53129977361961     -0.29001228073126
  C   -0.40108221250315     -0.09258126478972      0.48527049418081
  Cl  0.47737669245388     -0.73951907320496     -2.01355117314563
  H   -0.11122541501642      0.18420366542032      1.50372933575035
  H   1.14368761494568     -1.51368622814453      0.09248933387605
  C   1.97239582430216      0.38580460837349     -0.10106044489409
  N   2.91101944232990      1.07103020089157      0.06863718395376
  C   -1.39877615571038     -1.15230364177521      0.51055963380857
  N   -2.16030507062916     -2.04421864267074      0.56945485282940
  N   -0.97303922565435      1.17277259256758     -0.12989085478819
  O   -2.05590452512577      1.09844307921622     -0.69210409413904
  O   -0.26009346926071      2.16035447773561     -0.00452198670075
