12
Coordinates from ORCA-job run
  C   0.80510195170194      0.04415528952341     -0.62240179508643
  C   -0.24895869215801      0.09988982192111      0.48865892559684
  Cl  1.61534261978816      1.62239193746663     -0.73388489411398
  H   0.19664877627545      0.41754795287854      1.43313624005527
  H   0.29972142420815     -0.13667768779614     -1.57351830264023
  C   1.76776974558384     -1.01386101805554     -0.34401120315392
  N   2.53434099298119     -1.87168557872044     -0.10616566263959
  C   -0.93949027186601     -1.17690827156068      0.62308459323164
  N   -1.48375636559470     -2.21304979734310      0.72526247116097
  N   -1.27151931328848      1.16059450949833      0.12311166763680
  O   -1.74436507128846      1.08146244126446     -1.00316975788611
  O   -1.52983579634308      1.98614040092341      0.98789771783873
