12
Coordinates from ORCA-job run
  C   0.86283485346045     -0.61347776091691     -0.31695367538057
  C   -0.34680188166297     -0.14122639693190      0.50786359597867
  Cl  0.44532091152814     -1.24623476187867     -1.91858522213408
  H   -0.02166645049056      0.01948985084191      1.53925913438794
  H   1.30491332615212     -1.44705647837666      0.23632348946069
  C   1.84619060782716      0.46231373643442     -0.40516953582083
  N   2.63396952170259      1.33290218497831     -0.43843135911512
  C   -1.44633578680752     -1.09608316508389      0.47771209468256
  N   -2.32555829755037     -1.87479098386271      0.47575401211213
  N   -0.85759199628886      1.21448250926840      0.04993510959280
  O   -1.12728014386333      2.00281460381490      0.94763407000061
  O   -0.96699466400686      1.38686666171281     -1.15534171376478
