12
Coordinates from ORCA-job run
  C   0.78419800487020      0.03200805222993     -0.64828314131594
  C   -0.24234272132641      0.13273012729569      0.48503780972930
  Cl  1.48749779189026      1.63823092494319     -0.93914386017639
  H   0.20645143080126      0.56950027183783      1.37917622252359
  H   0.26790703273405     -0.27361908616491     -1.56088587200866
  C   1.82005148336939     -0.93188110078453     -0.29927044578745
  N   2.64634534080661     -1.71336280185300     -0.00510278050954
  C   -0.84547096523659     -1.16451687652892      0.76519077628482
  N   -1.31948140370022     -2.21746915161122      0.98165687341427
  N   -1.34056919601011      1.08610692703935      0.05077970064549
  O   -1.63036141175835      1.97538779297556      0.83906725418442
  O   -1.83522538644009      0.86688492062103     -1.04722253698392
