12
Coordinates from ORCA-job run
  C   1.03614085124437     -0.37129459818819      0.11063653452535
  C   -0.44004816690922     -0.24303291191230      0.51162173913059
  Cl  1.51845855463052     -2.07796153170069      0.21377346746392
  H   -0.55749763900004     -0.62170892376772      1.53049476380876
  H   1.63134768799858      0.18463585272911      0.83693468300128
  C   1.26137108716386      0.16286917882755     -1.22729418534081
  N   1.42957647167909      0.61769208250387     -2.29733607583028
  C   -1.34009410021670     -0.92798140317723     -0.40214147673975
  N   -2.06041790040437     -1.51484128378838     -1.12050806883346
  N   -0.76255122525277      1.24356714258967      0.58749739990472
  O   -1.62550080819694      1.69145472558713     -0.15255798233016
  O   -0.09078481273638      1.85760167029719      1.40887920123984
