12
Coordinates from ORCA-job run
  C   0.83815406105085      0.05450686206514     -0.57250104403940
  C   -0.28720040921032      0.11907288193790      0.46545438407562
  Cl  1.54746319235885      1.67328299455934     -0.76197131679293
  H   0.07393712635915      0.53689583266531      1.40697498085393
  H   0.40893256837857     -0.23350141717816     -1.53455873411897
  C   1.84961476901411     -0.90832107541989     -0.15553952118719
  N   2.65863031031100     -1.68839055341724      0.18655903439353
  C   -0.89854030933139     -1.19036591612978      0.65763790282165
  N   -1.37523361333415     -2.25418939358795      0.80282621361841
  N   -1.35172337220850      1.07350076311790     -0.04381870870945
  O   -1.74300719573232      0.87692011580287     -1.18686465702469
  O   -1.72102712765587      1.94058890558456      0.73580146610948
