12
Coordinates from ORCA-job run
  C   1.01289155040702     -0.45892901808339      0.12428431716483
  C   -0.47026870441153     -0.25332612107672      0.45170579124955
  Cl  1.33880333156413     -2.20618886363576      0.05620993835094
  H   -0.69204371956026     -0.74150623395219      1.40636010138281
  H   1.61008052634930     -0.04389006530675      0.93568864651548
  C   1.36914091860836      0.19523791318004     -1.12919406941531
  N   1.64854903420527      0.74089084042763     -2.13105300573433
  C   -1.35147187082395     -0.76120706687747     -0.58916354820295
  N   -2.04165425951601     -1.20405541182683     -1.42990399102967
  N   -0.74231977874835      1.23019756783961      0.69053578906981
  O   -1.86585512669900      1.63573712921241      0.43627093134206
  O   0.18414809862503      1.86503933009943      1.18025909930677
