12
Coordinates from ORCA-job run
  C   0.79474749873002      0.06520656764757     -0.63238094670854
  C   -0.25180722570205      0.10889585785975      0.48634169747490
  Cl  1.49469052599445      1.68631132158837     -0.83660740639965
  H   0.17941546734427      0.50448091114051      1.40785445670103
  H   0.29562254790897     -0.19998564270731     -1.56692518952946
  C   1.82954213262736     -0.90910873753430     -0.31032960583260
  N   2.65513877382004     -1.69950612164090     -0.03895513834911
  C   -0.85296797021566     -1.20274499342063      0.69461700129277
  N   -1.32547613821224     -2.26658681130452      0.85344026203362
  N   -1.34633905484435      1.07735962067016      0.07817764237105
  O   -1.82146086627452      0.90763421838848     -1.03707583589206
  O   -1.65310569117629      1.92804380931283      0.90184306283807
