12
Coordinates from ORCA-job run
  C   0.80309113719646      0.05917792010342     -0.62267910727231
  C   -0.25068172931180      0.09655525017848      0.48937766265681
  Cl  1.57808168159513      1.65423797963489     -0.74216436208031
  H   0.18898098963994      0.42691577970094      1.43230768350550
  H   0.30074362768363     -0.13726311583446     -1.57233084492826
  C   1.78911200033545     -0.97655106340529     -0.34189949423039
  N   2.57549172577117     -1.81639269199692     -0.10465963171927
  C   -0.91317296672654     -1.19442278156296      0.62930137141385
  N   -1.43513724623020     -2.24174519448744      0.73356515476092
  N   -1.29613955859509      1.13320076731306      0.12101590530285
  O   -1.57150555073006      1.95636639785487      0.98278991336585
  O   -1.76786411062810      1.03992075250140     -1.00462425077522
