12
Coordinates from ORCA-job run
  C   1.01834911728749     -0.42655155845151      0.05031508412194
  C   -0.43333167226475     -0.24938456503888      0.51648956107782
  Cl  1.41777318523714     -2.15746144127595      0.04354379304426
  H   -0.53093957348708     -0.67338352477199      1.51936925125827
  H   1.66803613927630      0.05905692137138      0.78032646239119
  C   1.22090953038355      0.16984759421557     -1.26490531946204
  N   1.37885424682271      0.67906556114074     -2.31171271114512
  C   -1.39936738055649     -0.84308945061315     -0.39384861110457
  N   -2.17235395066990     -1.35800180088037     -1.11262976210345
  N   -0.67866350678410      1.24500300648924      0.67834531814430
  O   0.05029488249248      1.78257620658726      1.50453381890918
  O   -1.54056101773735      1.77232305122767     -0.00882688513177
