12
Coordinates from ORCA-job run
  C   0.86275333050853     -0.50991544409656     -0.30032252516313
  C   -0.39845765810151     -0.10842601118682      0.48386734196315
  Cl  0.48879743554959     -0.69721438404709     -2.02635323228692
  H   -0.11190681965564      0.15454355537689      1.50692571122152
  H   1.17313731852699     -1.49231366203497      0.06641906403205
  C   1.96436297230648      0.42561403121239     -0.09721117475949
  N   2.89046265047787      1.12465729471139      0.08471791591821
  C   -1.37587339426644     -1.18718855934418      0.49097608266382
  N   -2.12125593766024     -2.09347254460400      0.53450109052564
  N   -0.99445261344627      1.15656615806911     -0.10744661321233
  O   -0.30101317634756      2.15547097042892      0.03665084733700
  O   -2.07555410789181      1.07167859551492     -0.67172450823952
