12
Coordinates from ORCA-job run
  C   1.04188116410004     -0.35019246508867      0.11291462144946
  C   -0.43125173104247     -0.22861342615095      0.52776906216352
  Cl  1.55245652395745     -2.04357330307618      0.27910285179068
  H   -0.53021184065213     -0.56914881924559      1.56192546629383
  H   1.63754351947393      0.24427413937483      0.80766452437650
  C   1.24156271508274      0.13187490155068     -1.24880103345491
  N   1.39252854939825      0.54423034154132     -2.33847358737567
  C   -1.32927835363450     -0.96286698463689     -0.34903758114003
  N   -2.04050857301445     -1.58988386955095     -1.04197999498034
  N   -0.77645959941273      1.25440342449254      0.54957675919606
  O   -1.65710935841005      1.65919185906734     -0.19460183163426
  O   -0.10215301584608      1.91130420172250      1.33494074331520
