12
Coordinates from ORCA-job run
  C   0.86497795674708     -0.61646586291709     -0.30279143566718
  C   -0.35844268602179     -0.14197501212994      0.50062953250317
  Cl  0.47694571400129     -1.23849990289407     -1.91559816962818
  H   -0.05173911938131      0.01467730044366      1.53830483687135
  H   1.29159331576272     -1.45518716397753      0.25492114205135
  C   1.85546152536653      0.45461690112930     -0.36363349650083
  N   2.64856610590485      1.32111175670279     -0.37147138907908
  C   -1.46127185650304     -1.09186693705752      0.44492964812370
  N   -2.34481267511683     -1.86528613683741      0.41909331546041
  N   -0.85283497283944      1.21756416742548      0.03618782772788
  O   -0.95838002584740      1.38551990528336     -1.16999440309705
  O   -1.11106328207266      2.01479098482899      0.92942259123447
