12
Coordinates from ORCA-job run
  C   1.01167357210964     -0.43987510496516      0.06369055164025
  C   -0.43687064422525     -0.22542378840613      0.52455025471128
  Cl  1.38462853264829     -2.17607712877464      0.11360071032363
  H   -0.54147813677013     -0.61982341902984      1.53882046744198
  H   1.66948880812387      0.05969503627918      0.77672609748702
  C   1.22049640538989      0.10827732155686     -1.27134569203128
  N   1.38095825653916      0.57438879923481     -2.33773280203182
  C   -1.41147410810913     -0.82909156065081     -0.37008623466060
  N   -2.18775712197186     -1.35207431298949     -1.07935451946896
  N   -0.65814374368884      1.27656163036230      0.64403635010089
  O   -1.51825104989886      1.79640401824284     -0.05102186602333
  O   0.08472922985322      1.82703850914008      1.44911668251095
