12
Coordinates from ORCA-job run
  C   1.01652843922268     -0.42772183543928      0.07803420100385
  C   -0.43935380173756     -0.22690994410712      0.52109689541962
  Cl  1.40910362862843     -2.15916648142635      0.14725132329783
  H   -0.55107099489466     -0.61560093345381      1.53675883349984
  H   1.66075324290122      0.08542841365333      0.79371605011279
  C   1.23357304000576      0.11075920897366     -1.25958815957350
  N   1.40041443158381      0.57035541469225     -2.32774773443199
  C   -1.39722516191364     -0.84650571688269     -0.38059883627456
  N   -2.15953547575994     -1.37913932278948     -1.09786426553996
  N   -0.67990071704184      1.27344788449606      0.62895088340584
  O   0.05053418195962      1.83863544771318      1.43507239209605
  O   -1.54282081295387      1.77741786457023     -0.07408158301583
