12
Coordinates from ORCA-job run
  C   0.84264296160468     -0.51930131944293     -0.33760152795926
  C   -0.38804676778882     -0.11398125159136      0.49214272242434
  Cl  0.41779564641890     -0.64981406010262     -2.05722176504568
  H   -0.06819411386714      0.11299976393832      1.51392051222211
  H   1.14129293254407     -1.51804539936691     -0.00712995290084
  C   1.96921190958915      0.38714018317238     -0.14004882462457
  N   2.91558677086197      1.06067040362894      0.03373489476417
  C   -1.38824166667308     -1.17160671254426      0.49501316028656
  N   -2.15107001321636     -2.06356602874992      0.53090570623074
  N   -0.97125595171440      1.17981133814588     -0.04665967584542
  O   -0.25389585430450      2.15979243879784      0.11004963972198
  O   -2.06682585345447      1.13390064411465     -0.58710488927413
