12
Coordinates from ORCA-job run
  C   1.04062951588155     -0.36525274383116      0.07183910170997
  C   -0.40810876589813     -0.20768547450764      0.55473733162500
  Cl  1.53249357472731     -2.06202859583072      0.25845498610515
  H   -0.46113824026421     -0.51635758841019      1.60214332871887
  H   1.67905129106859      0.23675508153337      0.72051138470883
  C   1.18074966995829      0.07816380794458     -1.31022799459928
  N   1.28441874577139      0.46305110262242     -2.41529909020455
  C   -1.35962419291504     -0.95124636896884     -0.25526399461219
  N   -2.11557557285247     -1.58268367065012     -0.89485524898416
  N   -0.72870926695844      1.28113097539146      0.54931583895228
  O   -0.00931857226416      1.94819918139234      1.28448333335683
  O   -1.63486818625469      1.67995429331451     -0.16683897677675
