12
Coordinates from ORCA-job run
  C   0.86340510353716     -0.51466758047961     -0.28843552035131
  C   -0.40084085073495     -0.09911446754093      0.48352980009032
  Cl  0.49733070878625     -0.73124056348427     -2.01273797473887
  H   -0.11784406294057      0.18269208043025      1.50255435923665
  H   1.17153610407682     -1.49094996975437      0.09610352814845
  C   1.96460059631797      0.42350395994969     -0.09548631025747
  N   2.89089466888706      1.12330844541706      0.08207190826641
  C   -1.37818144068916     -1.17772049164925      0.50757164682042
  N   -2.12291445282732     -2.08378848414666      0.56489572898423
  N   -0.99439609668569      1.15446831768329     -0.13342280628723
  O   -2.06916634385683      1.05718925631080     -0.70795635771024
  O   -0.30442393387075      2.15731949726400      0.00031199779864
