17

C	-0.317783	0.119204	-1.493399
C	0.0	0.0	0.0
Cl	-2.030805	0.569805	-1.804107
H	1.092608	0.0	0.0
C	0.626207	1.126555	-2.111415
H	1.630136	0.875016	-1.752021
H	0.352903	2.110072	-1.73208
H	0.56068	1.11231	-3.201387
N	-0.10114	-1.256977	-2.125896
O	1.002647	-1.465136	-2.625004
O	-1.010187	-2.076438	-2.042524
C	-0.571619	-1.17171	0.647368
N	-1.016392	-2.076059	1.253912
N	-0.345544	1.254784	0.66357
H	0.396712	1.450082	1.3211
H	-1.226991	1.193513	1.154959
F	2.57055	0.0	0.0
