17

C	-0.258407	0.043161	-1.502304
C	0.0	0.0	0.0
Cl	0.100515	1.669109	-2.129071
H	1.095624	0.0	0.0
C	0.622884	-0.970008	-2.198688
H	1.625726	-0.796019	-1.790893
H	0.29748	-1.980254	-1.938516
H	0.586475	-0.847941	-3.280255
N	-1.729672	-0.18947	-1.84815
O	-2.558396	0.00319	-0.960142
O	-1.997573	-0.538763	-2.995086
C	-0.424902	-1.304001	0.512514
N	-0.749363	-2.34287	0.961215
N	-0.500394	1.124964	0.757496
H	0.146024	1.303203	1.514826
H	-1.425049	0.946077	1.124722
F	2.584578	0.0	0.0
