17

C	-0.592325	-0.107344	-1.398998
C	0.0	0.0	0.0
Cl	0.059608	-1.555516	-2.213531
H	1.099667	0.0	0.0
C	-2.102731	-0.131471	-1.443222
H	-2.47123	0.783944	-0.975634
H	-2.456318	-0.99717	-0.880701
H	-2.460624	-0.189566	-2.469085
N	-0.107614	1.08581	-2.229313
O	-0.729563	1.30931	-3.268867
O	0.861467	1.715107	-1.834513
C	-0.455028	-1.130329	0.792324
N	-0.837714	-2.010443	1.474103
N	-0.43301	1.282358	0.588999
H	-0.970396	1.133179	1.433516
H	0.426907	1.757997	0.83957
F	2.527241	0.0	0.0
