17

C	-0.261978	-0.229965	-1.48351
C	0.0	0.0	0.0
Cl	0.100172	1.252831	-2.397315
H	1.106623	0.0	0.0
C	0.612246	-1.357653	-1.985954
H	1.618721	-1.115185	-1.62582
H	0.567297	-1.437295	-3.070383
H	0.286929	-2.302278	-1.541551
N	-1.736238	-0.515964	-1.779364
O	-2.562786	-0.15014	-0.946021
O	-2.006929	-1.077818	-2.837648
C	-0.428976	-1.186217	0.741425
N	-0.775683	-2.112093	1.379832
N	-0.495944	1.245017	0.54231
H	-1.417908	1.138069	0.942546
H	0.156151	1.557482	1.248726
F	2.581095	0.0	0.0
