17

C	-0.262216	-0.108824	-1.497313
C	0.0	0.0	0.0
Cl	0.102268	1.442683	-2.286931
H	1.101561	0.0	0.0
C	0.612039	-1.193151	-2.08844
H	0.28265	-2.170649	-1.72561
H	1.618258	-0.983606	-1.705798
H	0.570481	-1.18247	-3.17615
N	-1.735601	-0.369439	-1.817037
O	-2.005417	-0.82332	-2.926352
O	-2.561229	-0.097572	-0.947284
C	-0.420656	-1.246125	0.643804
N	-0.756756	-2.224843	1.204724
N	-0.502022	1.194201	0.641192
H	0.152307	1.458862	1.365262
H	-1.419711	1.046174	1.038004
F	2.582226	0.0	0.0
