17

C	-0.300894	0.005765	-1.488719
C	0.0	0.0	0.0
Cl	-2.04334	0.306322	-1.828264
H	1.110219	0.0	0.0
C	0.581924	1.023668	-2.175841
H	0.481273	0.955186	-3.259273
H	1.599957	0.807317	-1.82633
H	0.295207	2.012758	-1.823377
N	0.026455	-1.349088	-2.115368
O	-0.25349	-1.493507	-3.302252
O	0.605813	-2.174313	-1.416138
C	-0.610265	-1.101373	0.729109
N	-1.144395	-1.906925	1.399443
N	-0.3582	1.308581	0.552542
H	-1.278153	1.289986	0.977333
H	0.332634	1.525504	1.260001
F	2.571454	0.0	0.0
