14

C	0.0	0.0	0.0
C	-0.197067	0.144666	-1.538079
F	1.36642	0.0	0.0
H	0.246199	1.114062	-1.791618
H	0.468532	-0.641793	-1.911167
C	-0.444002	1.132998	0.819716
N	-0.55971	2.128	1.442581
N	-0.663229	-1.217424	0.496898
O	-0.656089	-1.378541	1.74621
O	-0.676311	-2.195855	-0.315638
N	-1.529908	0.072334	-2.120765
H	-1.909153	-0.823393	-1.830585
H	-1.396896	0.024419	-3.130685
H	-1.962617	0.0	0.0
