14

C	0.0	0.0	0.0
C	-0.312136	0.108252	-1.498233
F	1.35546	0.0	0.0
H	0.014635	-0.836095	-1.948259
H	-1.38557	0.211893	-1.603584
C	-0.598329	1.055695	0.814935
N	-0.577357	2.021141	1.504057
N	-0.372398	-1.343806	0.593849
O	-0.410985	-1.41339	1.822123
O	-0.370358	-2.316204	-0.165087
N	0.3825	1.290593	-2.013111
H	1.352729	1.072799	-2.19798
H	-0.050634	1.57308	-2.881845
H	-2.319371	0.0	0.0
