14

C	0.0	0.0	0.0
C	-0.221572	-0.411079	-1.504561
F	1.362222	0.0	0.0
H	0.054358	-1.46821	-1.524291
H	0.572486	0.144864	-2.012175
C	-0.554905	1.297556	0.35463
N	-0.58492	2.465883	0.55099
N	-0.368568	-1.026629	1.036243
O	-0.32661	-2.210419	0.69423
O	-0.466801	-0.635994	2.200331
N	-1.446029	-0.204062	-2.237899
H	-1.592225	0.79929	-2.299102
H	-2.184746	-0.494043	-1.591086
H	-2.212327	0.0	0.0
