14

C	0.0	0.0	0.0
C	-0.829411	0.049791	-1.245212
F	1.356413	0.0	0.0
H	-1.89012	0.165567	-0.804685
H	-0.586586	0.971828	-1.787678
C	-0.37303	1.147625	0.860776
N	-0.525264	2.128181	1.488488
N	-0.346821	-1.279342	0.781127
O	0.316268	-2.268562	0.491012
O	-1.250247	-1.212153	1.604708
N	-0.801351	-1.165631	-2.031987
H	-0.406439	-1.010581	-2.947242
H	-1.762901	-1.476876	-2.132564
H	-3.345609	0.0	0.0
