17
Coordinates from ORCA-job run
  C   -0.75750085300826      0.04147427571687     -0.53688412478800
  C   0.63100524013358      0.43555023432214     -0.00338163468824
  Br  -0.84628152224484      0.03140325607465     -2.45284130629221
  H   0.79335318853526      1.45082697478216     -0.39013900575268
  N   -1.83904446958334      1.02224597500811     -0.07286443090440
  O   -2.98962038333237      0.73154807645957     -0.35659357918794
  O   -1.45915724676460      2.02996205183304      0.51487786436382
  N   -1.15038467105078     -1.31753992213211      0.03374417455159
  O   -1.84130845542263     -1.30571668404109      1.04083226723834
  O   -0.66333610248410     -2.29121519714306     -0.52376488536281
  C   1.74198735661768     -0.47702711423372     -0.50878356123944
  H   1.75401534059069     -0.56123397908706     -1.59317021633407
  H   2.69769590367209     -0.05292115595088     -0.19044510483157
  H   1.64275879775835     -1.47468010684481     -0.07981456930497
  N   0.57924274522869      0.35913716471192      1.44392983135169
  H   0.21189273456829      1.20883830129226      1.84756345407488
  H   1.49468239678630      0.16934784923201      1.82673482710601
