17
Coordinates from ORCA-job run
  C   -0.95765567605209      0.22837728123728      0.16171109992422
  C   0.54468384377850      0.52317335443873      0.32585705698757
  Br  -2.02367907362587      1.37523408481509      1.25756297318214
  H   0.59296786354989      1.61326383957050      0.24295163146356
  N   -1.33287821035854     -1.22057235046379      0.45960886430427
  O   -0.40484869240582     -2.01722348524369      0.55511113892525
  O   -2.52347317086086     -1.47824981130217      0.53203099087670
  N   -1.31257870732947      0.44427504198339     -1.30776399611482
  O   -1.27529261646743      1.60237002830269     -1.69478729758580
  O   -1.49382281667092     -0.55973737418056     -1.98552473355445
  C   1.41406169498737     -0.06576711489178     -0.78840379001415
  H   1.14936573434010      0.32651504660990     -1.77262660653349
  H   1.35734495777550     -1.15287338536530     -0.81196813382272
  H   2.44811450003669      0.22473428066780     -0.58915408192395
  N   0.91919251717460      0.16084788818187      1.67954463089044
  H   1.63458449954107      0.78362148288162      2.02712552258273
  H   1.26191335258726     -0.78998880724157      1.70972473041250
