17
Coordinates from ORCA-job run
  C   -0.82851966212814     -0.19512797937786      0.13104337204255
  C   0.62281368429582      0.22680210207569     -0.12537843175857
  Br  -1.12375532734691     -0.82269732709328      1.90745730802436
  H   0.66194942720875      0.41453770665533     -1.20138176470081
  N   -1.35070768938272     -1.24210030423322     -0.85631233143121
  O   -2.50426932456518     -1.60500238932094     -0.67728869644437
  O   -0.57238111367944     -1.65158636550114     -1.70960217258388
  N   -1.71070801372378      1.02174841854766     -0.18079858007418
  O   -1.58855716912074      1.39578483369282     -1.34219578428645
  O   -2.38156929356201      1.52958151459875      0.69408558797161
  C   1.65147522413703     -0.82708375665870      0.25472475238543
  H   1.71206964464918     -0.94087676386702      1.33929360261493
  H   1.42405452241519     -1.80110093201835     -0.17637820045323
  H   2.63379526956986     -0.50954392062453     -0.10226183132054
  N   0.78268576042679      1.50469486377835      0.55393014790699
  H   1.38085866086817      2.11865052367865      0.01913228833019
  H   1.19176539993815      1.38131977566780      1.47093073377716
