17
Coordinates from ORCA-job run
  C   -0.93456385369688      0.20011168495477      0.07272511548948
  C   0.55432122581441      0.50952357277728      0.29513031328051
  Br  -2.03542590012301      1.27099068208219      1.23015647759520
  H   0.63203376356840      1.59666687920522      0.17018253216233
  N   -1.19257183475569     -1.28477705504776      0.29529459369086
  O   -0.69297183416444     -1.98921733241379     -0.57537076848195
  O   -1.80559616218121     -1.64800415737510      1.28142233028654
  N   -1.40779004652687      0.50911493288313     -1.34004590928441
  O   -2.37700829617319     -0.11515844656401     -1.74619603758761
  O   -0.80860929418153      1.40643381262930     -1.91997296127869
  C   1.50450096023206     -0.15851125800562     -0.69310825488571
  H   1.56716578125710     -1.22953216140945     -0.50674875467051
  H   2.49457218059230      0.28278974977169     -0.54801569081956
  H   1.21614941084382      0.00874515177907     -1.72854234445904
  N   0.86418803182899      0.03725366787874      1.63754194994915
  H   0.55802740580830      0.69430955666625      2.34345628071590
  H   1.86257846185742     -0.09273927981191      1.73409112829751
