19

C	0.0	0.0	0.0
C	-0.2443	-0.009084	-1.555896
Cl	1.784878	0.0	0.0
H	0.395485	0.811783	-1.904103
N	-0.646804	1.172706	0.601742
O	-0.626453	2.224871	-0.10649
O	-0.656073	1.210918	1.863115
C	-0.292153	-1.266579	0.80886
H	-1.353642	-1.340819	1.029036
H	0.270876	-1.220589	1.742315
H	0.023025	-2.128694	0.220859
C	-1.618297	0.280627	-2.145032
H	-2.297957	-0.562187	-2.028772
H	-1.463349	0.467148	-3.223147
H	-2.046046	1.17438	-1.698938
N	0.194453	-1.308587	-2.10039
H	1.206502	-1.355805	-2.0732
H	-0.078774	-1.334124	-3.077024
H	-2.088456	0.0	0.0
