19

C	0.0	0.0	0.0
C	-0.618902	0.085658	-1.397367
Cl	1.762517	0.0	0.0
H	-1.697015	0.238879	-1.156659
N	-0.35203	1.285853	0.801365
O	-0.553146	2.321354	0.173182
O	-0.351165	1.206948	2.024653
C	-0.544566	-1.168147	0.785542
H	-1.644745	-1.088963	0.734656
H	-0.19791	-1.119461	1.816747
H	-0.196996	-2.10234	0.34156
C	-0.47653	-1.240826	-2.13682
H	0.577017	-1.51822	-2.245755
H	-1.032824	-2.039027	-1.647829
H	-0.904794	-1.127075	-3.139254
N	-0.009337	1.126882	-2.235444
H	-0.397127	1.016433	-3.165789
H	-0.318475	2.02779	-1.889278
H	-3.357517	0.0	0.0
