19

C	0.0	0.0	0.0
C	-0.291953	-0.12688	-1.541664
Cl	1.77331	0.0	0.0
H	0.506892	-0.780636	-1.90875
N	-0.636767	1.202597	0.561456
O	-0.331628	1.528724	1.739534
O	-1.826418	1.368912	0.018299
C	-0.510259	-1.17308	0.799499
H	-0.213812	-2.118129	0.344104
H	-0.134842	-1.089446	1.821006
H	-1.60759	-1.105045	0.803614
C	-0.124254	1.21854	-2.257593
H	-0.94674	1.881233	-1.997774
H	-0.125998	1.044794	-3.341052
H	0.824254	1.699562	-1.998863
N	-1.534573	-0.828285	-1.840525
H	-2.28731	-0.41259	-1.276086
H	-1.756277	-0.659926	-2.817397
H	-3.078195	0.0	0.0
