15

C	0.0	0.0	0.0
C	-0.368453	-0.069517	-1.504769
Cl	1.780568	0.0	0.0
H	0.1144	0.809659	-1.937193
N	-0.445494	1.284499	0.476753
H	-0.053248	1.433159	1.399852
H	-1.473811	1.115117	0.518425
C	-0.432902	-1.15761	0.803244
N	-0.657237	-2.049301	1.535517
C	-1.776268	-0.115924	-1.943167
N	-2.561096	-0.321997	-2.801052
N	0.304353	-1.235918	-2.192767
O	0.962838	-0.972784	-3.197052
O	0.123507	-2.352909	-1.721807
F	-2.53716	0.0	0.0
