15

C	0.0	0.0	0.0
C	-0.614591	0.061535	-1.42296
Cl	1.780409	0.0	0.0
H	-1.719969	-0.078381	-1.14066
N	-0.505181	1.01889	0.874982
H	-0.210735	1.922619	0.521397
H	-1.534935	0.892302	0.774221
C	-0.387244	-1.318754	0.541708
N	-0.604778	-2.379282	0.996015
C	-0.065954	-0.883023	-2.368624
N	0.367303	-1.656589	-3.140204
N	-0.505712	1.439451	-2.006225
O	-1.507042	1.874477	-2.56922
O	0.564114	2.041502	-1.897997
F	-2.75047	0.0	0.0
