15

C	0.0	0.0	0.0
C	-0.596299	-0.003313	-1.420921
Cl	1.775353	0.0	0.0
H	-1.709901	-0.027263	-1.154686
N	-0.511977	1.148303	0.680442
H	-0.224858	1.103313	1.652365
H	-1.544347	0.989951	0.614249
C	-0.375179	-1.295357	0.621395
N	-0.575685	-2.315173	1.170408
C	-0.138955	-1.12061	-2.221824
N	0.208249	-2.03265	-2.876293
N	-0.271797	1.283898	-2.117283
O	-1.100627	2.183282	-2.029755
O	0.795254	1.351805	-2.727892
F	-2.755406	0.0	0.0
