15

C	0.0	0.0	0.0
C	-0.58156	0.00263	-1.428509
Cl	1.784491	0.0	0.0
H	-1.69357	-0.033916	-1.186473
N	-0.518284	1.144817	0.677326
H	-0.23454	1.100715	1.650313
H	-1.552054	0.975039	0.60384
C	-0.373746	-1.299511	0.61113
N	-0.573335	-2.328995	1.142163
C	-0.096794	-1.097713	-2.238222
N	0.254639	-2.003364	-2.899792
N	-0.262996	1.30254	-2.105896
O	-1.119406	2.178464	-2.05087
O	0.82704	1.401293	-2.670397
F	-2.74821	0.0	0.0
