17

C	-0.395164	-0.009281	-1.454058
C	0.0	0.0	0.0
F	-1.80029	0.10407	-1.590218
H	1.094019	0.0	0.0
H	-0.128624	-0.978519	-1.875796
C	0.267169	1.106501	-2.226974
H	-0.131803	2.077487	-1.924739
H	1.341654	1.07809	-2.019839
H	0.088396	0.981807	-3.297802
N	-0.406784	-1.265737	0.643634
O	-0.25829	-2.313243	0.005012
O	-0.792118	-1.238056	1.819115
C	-0.483126	1.194176	0.791515
H	-0.078232	1.15102	1.80166
H	-1.572979	1.239373	0.84507
H	-0.105675	2.104704	0.321939
H	2.701063	0.0	0.0
