17

C	-0.506129	-0.097791	-1.44618
C	0.0	0.0	0.0
F	-0.759861	1.206112	-1.919478
H	1.091374	0.0	0.0
H	-1.471597	-0.614167	-1.476267
C	0.488911	-0.735995	-2.386011
H	1.444665	-0.21699	-2.30776
H	0.650465	-1.772231	-2.091392
H	0.110793	-0.698534	-3.411975
N	-0.384488	-1.209069	0.729441
O	-0.431783	-1.168643	1.965375
O	-0.550663	-2.255253	0.079601
C	-0.441312	1.243602	0.740876
H	-0.073604	2.114009	0.198881
H	0.002865	1.240458	1.73498
H	-1.530425	1.312495	0.830446
H	2.686425	0.0	0.0
