21

C	-0.420602	-0.061436	-1.472993
C	0.0	0.0	0.0
F	-0.13577	1.201412	-2.04555
H	1.098192	0.0	0.0
C	0.422711	-1.063143	-2.244084
H	1.48071	-0.883711	-2.033238
H	0.176452	-2.09016	-1.960655
H	0.235886	-0.947256	-3.315726
C	-1.910162	-0.271722	-1.698044
H	-2.127051	-0.185408	-2.766264
H	-2.229224	-1.25978	-1.358999
H	-2.493106	0.487348	-1.170141
C	-0.449928	-1.237163	0.776732
H	0.013762	-1.225346	1.766776
H	-1.537386	-1.262123	0.914145
H	-0.138883	-2.165254	0.291165
C	-0.478551	1.269122	0.698199
H	-0.147616	2.156123	0.158525
H	-0.051032	1.309615	1.703786
H	-1.570663	1.301226	0.794621
Cl	3.620028	0.0	0.0
