14

C	-0.53329	-0.016884	-1.406535
C	0.0	0.0	0.0
Cl	0.263679	1.355007	-2.305501
H	1.089516	0.0	0.0
H	-0.277513	0.969293	0.430982
N	-0.099435	-1.271372	-2.169664
O	0.671939	-2.044377	-1.618967
O	-0.595745	-1.407665	-3.288504
N	-1.944888	-0.004739	-1.50804
H	-2.326611	0.740643	-0.942792
H	-2.237795	0.087813	-2.473462
C	-0.569696	-1.055977	0.812428
N	-1.012638	-1.894963	1.50614
F	2.518967	0.0	0.0
