14

C	-0.05742	-0.120698	-1.520516
C	0.0	0.0	0.0
Cl	-1.687287	-0.49229	-2.195224
H	1.094024	0.0	0.0
H	-0.459278	0.907396	0.386054
N	0.277157	1.294916	-2.064605
O	1.102509	1.390766	-2.959055
O	-0.341954	2.226575	-1.560238
N	0.90628	-1.021861	-2.042828
H	0.601083	-1.966631	-1.833892
H	1.764991	-0.822979	-1.497295
C	-0.505683	-1.194389	0.634258
N	-0.90609	-2.170323	1.15395
F	2.590155	0.0	0.0
