15

C	-0.40512	-0.174806	-1.456848
C	0.0	0.0	0.0
F	-0.386003	1.119412	-2.099683
H	1.101707	0.0	0.0
H	-1.447179	-0.500153	-1.564095
N	0.493677	-1.067712	-2.071933
H	1.448428	-0.834073	-1.805629
H	0.385189	-1.069494	-3.076451
N	-0.461296	-1.155782	0.760368
H	0.298216	-1.475493	1.349386
H	-1.221084	-0.845569	1.349613
N	-0.561734	1.236409	0.554331
H	0.027349	1.478549	1.345198
H	-0.413272	1.967389	-0.131174
H	3.041571	0.0	0.0
