15

C	-0.496645	-0.125373	-1.426778
C	0.0	0.0	0.0
F	-1.871174	-0.608433	-1.395995
H	1.098515	0.0	0.0
H	0.039593	-0.918246	-1.952383
N	-0.421263	1.096387	-2.112629
H	-0.774258	1.813785	-1.488846
H	-0.929265	1.062581	-2.983938
N	-0.402379	-1.15213	0.806248
H	0.423342	-1.712812	0.983599
H	-1.087821	-1.706573	0.31428
N	-0.471302	1.266466	0.579922
H	0.330557	1.680394	1.045321
H	-1.144631	1.027905	1.297097
H	2.948541	0.0	0.0
