13

C	-0.529181	0.03927	-1.440203
C	0.0	0.0	0.0
Cl	-0.034021	-1.457136	-2.308839
H	1.093625	0.0	0.0
H	-0.366903	-0.926441	0.456122
C	-1.995628	0.0886	-1.439196
N	-3.169605	0.097519	-1.387798
C	-0.024275	1.204404	-2.173862
N	0.323495	2.130613	-2.807486
N	-0.448822	1.215991	0.662633
H	0.365342	1.659532	1.07323
H	-1.126054	1.028084	1.38834
H	2.811282	0.0	0.0
