13

C	-0.490694	0.031694	-1.439846
C	0.0	0.0	0.0
Cl	-2.321296	-0.029569	-1.497946
H	1.093753	0.0	0.0
H	-0.348011	-0.941139	0.442583
C	-0.097482	1.265953	-2.120543
N	0.192886	2.261858	-2.66957
C	-0.021037	-1.133291	-2.19238
N	0.348479	-2.065464	-2.803987
N	-0.439344	1.199082	0.686868
H	0.365237	1.5728	1.179882
H	-1.17986	1.009875	1.347852
H	2.777347	0.0	0.0
