13

C	-0.528695	-0.029195	-1.440864
C	0.0	0.0	0.0
Cl	-0.034438	1.473614	-2.298244
H	1.093628	0.0	0.0
H	-0.366811	0.923422	0.46232
C	-0.022095	-1.188626	-2.182285
N	0.328284	-2.110892	-2.819615
C	-1.99504	-0.081446	-1.441091
N	-3.16898	-0.093974	-1.389045
N	-0.447918	-1.22108	0.654036
H	0.366138	-1.665315	1.064205
H	-1.128284	-1.039349	1.378412
H	2.812029	0.0	0.0
