13

C	-0.487196	0.035511	-1.442025
C	0.0	0.0	0.0
Cl	-2.31674	-0.035465	-1.502316
H	1.094111	0.0	0.0
H	-0.350479	-0.939471	0.443412
C	-0.099155	1.27469	-2.117353
N	0.179344	2.261823	-2.687216
C	-0.004384	-1.123039	-2.197696
N	0.374442	-2.055432	-2.803511
N	-0.44143	1.199826	0.688239
H	0.367645	1.585735	1.162386
H	-1.161063	1.000004	1.368658
H	2.78368	0.0	0.0
