13

C	-0.493354	-0.021588	-1.440141
C	0.0	0.0	0.0
Cl	-2.322948	0.036344	-1.495363
H	1.093723	0.0	0.0
H	-0.347806	0.939083	0.44784
C	-0.02412	1.148235	-2.186983
N	0.344701	2.0836	-2.793922
C	-0.097703	-1.251392	-2.129049
N	0.194793	-2.243489	-2.684581
N	-0.437358	-1.202459	0.68279
H	0.366696	-1.577403	1.175649
H	-1.177776	-1.01737	1.344382
H	2.783611	0.0	0.0
