13

C	-0.493892	-0.032613	-1.440737
C	0.0	0.0	0.0
Cl	-2.321991	0.027066	-1.495215
H	1.093725	0.0	0.0
H	-0.348329	0.941683	0.441935
C	-0.020806	1.129932	-2.197699
N	0.349125	2.058945	-2.813895
C	-0.098207	-1.268882	-2.118873
N	0.194078	-2.266222	-2.66531
N	-0.436495	-1.19804	0.691392
H	-1.165723	-1.005548	1.363071
H	0.370926	-1.577284	1.174885
H	2.787899	0.0	0.0
