17

C	-0.225661	0.047313	-1.49797
C	0.0	0.0	0.0
Cl	-1.945976	0.425971	-1.995577
H	1.105334	0.0	0.0
H	-0.061843	-0.960872	-1.88975
C	0.751185	1.006429	-2.155204
H	0.485556	2.043434	-1.935567
H	0.769207	0.880408	-3.241158
H	1.729424	0.784551	-1.702802
N	-0.572885	-1.238185	0.566554
H	-0.468259	-1.171258	1.57575
H	0.063062	-1.986174	0.296041
C	-0.53451	1.200002	0.750747
H	-1.628649	1.190606	0.783041
H	-0.200407	2.132938	0.292444
H	-0.149609	1.188534	1.775986
F	2.767505	0.0	0.0
