17

C	-0.163092	0.051599	-1.508746
C	0.0	0.0	0.0
Cl	-1.917587	0.212575	-2.054708
H	1.099035	0.0	0.0
H	0.132231	-0.926918	-1.895633
C	0.706313	1.118803	-2.140605
H	0.756855	1.007708	-3.227137
H	0.33655	2.120706	-1.91194
H	1.694066	0.972116	-1.679458
N	-0.50263	-1.2299	0.611155
H	-1.383623	-1.495475	0.179946
H	0.171274	-1.963476	0.422457
C	-0.538932	1.21249	0.73275
H	-0.255672	1.12814	1.783815
H	-1.632204	1.275301	0.67242
H	-0.113148	2.139479	0.340058
F	2.730748	0.0	0.0
