12

C	-0.38752	-0.00153	-1.451484
C	0.0	0.0	0.0
F	-0.197118	-1.211028	-2.032181
H	1.093138	0.0	0.0
H	0.168329	0.759504	-1.999079
H	-0.305286	0.948127	0.451357
N	-1.846625	0.354576	-1.617904
O	-2.119343	1.533187	-1.400492
O	-2.641415	-0.529392	-1.919035
C	-0.572221	-1.114525	0.731106
N	-1.01323	-2.012151	1.3493
H	2.687388	0.0	0.0
