12

C	-0.453244	-0.110756	-1.425648
C	0.0	0.0	0.0
F	-1.768717	-0.491911	-1.551721
H	1.091683	0.0	0.0
H	0.174754	-0.815142	-1.970414
H	-0.276151	-0.941458	0.487463
N	-0.32455	1.197859	-2.161808
O	-1.214356	2.023347	-1.982943
O	0.659375	1.330591	-2.88069
C	-0.574903	1.10333	0.745211
N	-0.994812	1.983097	1.400417
H	2.697005	0.0	0.0
