17

C	-0.45877	0.002351	-1.436843
C	0.0	0.0	0.0
Br	-2.44292	-0.220152	-1.609643
H	1.091404	0.0	0.0
C	-0.128616	1.282621	-2.06346
N	0.212363	2.236022	-2.661707
C	0.221025	-1.101624	-2.242881
H	0.004559	-0.958951	-3.30247
H	-0.126341	-2.080847	-1.924535
H	1.296903	-1.025559	-2.051537
N	-0.387851	-1.227957	0.708778
O	-1.249967	-1.178359	1.589701
O	0.208268	-2.250722	0.355333
N	-0.408246	1.158763	0.789737
O	-1.092001	2.046364	0.266264
O	0.070201	1.204001	1.925901
H	2.39139	0.0	0.0
