17

C	-0.489626	-0.052501	-1.434618
C	0.0	0.0	0.0
Br	0.349656	1.444488	-2.455469
H	1.088405	0.0	0.0
C	0.015263	-1.254869	-2.09927
N	0.298521	-2.197651	-2.740875
C	-2.004121	0.016283	-1.611615
H	-2.375534	0.950595	-1.201606
H	-2.259045	-0.057007	-2.670699
H	-2.456382	-0.822842	-1.074823
N	-0.367307	-1.243804	0.70877
O	-1.328464	-1.23504	1.48314
O	0.325881	-2.229297	0.445938
N	-0.420781	1.133806	0.786526
O	-1.034744	2.080357	0.259029
O	0.035948	1.142311	1.942878
H	2.34295	0.0	0.0
