17

C	-0.410332	-0.093223	-1.447582
C	0.0	0.0	0.0
Br	-2.397143	-0.229082	-1.676483
H	1.092478	0.0	0.0
C	0.010127	1.109037	-2.168495
N	0.401422	1.979195	-2.85648
C	0.236766	-1.29412	-2.132826
H	-0.180731	-2.224442	-1.757323
H	0.073566	-1.226531	-3.209687
H	1.307519	-1.259926	-1.900165
N	-0.413996	-1.172232	0.782009
O	0.210112	-2.212	0.544838
O	-1.325542	-1.063511	1.605582
N	-0.404183	1.217283	0.692899
O	-0.001044	1.312183	1.856396
O	-0.991862	2.107138	0.063216
H	2.390642	0.0	0.0
