17

C	-0.557963	0.004341	-1.412574
C	0.0	0.0	0.0
Br	0.118906	-1.645691	-2.262751
H	1.089106	0.0	0.0
C	-2.013145	-0.063099	-1.525796
N	-3.172669	-0.096608	-1.71921
C	0.004293	1.187436	-2.198009
H	-0.4078	2.114629	-1.799186
H	1.093579	1.186282	-2.104721
H	-0.277777	1.094887	-3.248914
N	-0.450744	-1.195813	0.78935
O	-1.656032	-1.261307	1.033975
O	0.413961	-1.982364	1.153207
N	-0.473797	1.150721	0.823634
O	0.173977	1.336225	1.852269
O	-1.257278	1.980981	0.295686
H	2.63674	0.0	0.0
