16
Coordinates from ORCA-job run
  C   -0.47535875781244      0.12533949329242     -0.35815214549361
  C   0.79746882920406     -0.47502532232472      0.28307920238840
  Br  0.11127197004601      1.64528516471255     -1.54110355651026
  H   0.46134496542409     -1.21461491578411      1.01548434252002
  C   -1.44182281629139      0.69705060867136      0.66296507496606
  H   -1.73093206704306     -0.09051552104204      1.36346772970836
  H   -2.33268989503558      1.05585051526890      0.14323994709907
  H   -1.00884435652851      1.52796004872589      1.21337352058282
  N   -1.09131016552177     -0.93106155216888     -1.07741980409336
  H   -2.00606301530213     -0.65731596753374     -1.41405516537066
  H   -0.53356426571701     -1.24862032946105     -1.86203355085543
  N   1.59047895771263      0.54020824450800      1.07075588362466
  O   1.11595529854331      0.82887761086554      2.16587437470991
  O   2.61651855689783      0.98626386372958      0.57465527243118
  C   1.65157887086960     -1.11370575406207     -0.70952732111570
  N   2.27596789055437     -1.67797618739763     -1.52860380459145
