13
Coordinates from ORCA-job run
  C   0.90734792025487      0.11897544163359     -0.27432772510607
  C   -0.60204199427830      0.03489074563919     -0.41471893181769
  Br  1.74134202657227     -0.08845358976759     -1.99372368026693
  H   -0.89991687554287     -0.93278993432848     -0.82053623535862
  H   1.23898354317781      1.05293886619758      0.17244229587151
  N   1.38803038285080     -0.98720050802347      0.63306872705347
  O   0.68900960657024     -1.99317363804664      0.69848383294367
  O   2.44572022849104     -0.78054946546856      1.21010004338080
  C   -1.13020544222605      1.13113606544042     -1.21613207648390
  N   -1.55952309879376      2.02193063804940     -1.85029801716487
  N   -1.24915273107118      0.11580581338052      0.96263169540545
  O   -0.59151301423746      0.65016455415126      1.84806975044765
  O   -2.37808055176740     -0.34167498885722      1.04294032109552
