13
Coordinates from ORCA-job run
  C   0.60921332149389     -0.64315483300093      0.23130576972994
  C   -0.50408666560395      0.23216311195174     -0.33823605646759
  Br  0.44736680986885     -0.88740886678725      2.11325247641893
  H   -0.35659327979889      0.30524801943655     -1.42009234828819
  H   0.59047893179551     -1.61434594837764     -0.26136516462422
  N   1.92738760741945      0.00521584290815     -0.17917249962036
  O   2.06752548129827      0.05627446144454     -1.39805055994732
  O   2.70113007496467      0.40684809419490      0.67207581197668
  C   -0.54728369157798      1.55472121466854      0.26468979271766
  N   -0.53352670006375      2.63653200971161      0.72203275126259
  N   -1.82436505867430     -0.50212895919213     -0.16401462766061
  O   -1.83609907239077     -1.63407623143596     -0.63139816435287
  O   -2.74214775873099      0.08411208447786      0.38897281885536
