13
Coordinates from ORCA-job run
  C   0.94573446816041      0.12874945468102      0.02415556165279
  C   -0.47648998880464      0.25260497911432     -0.49202160403950
  Br  2.19297165175822      0.53823032270426     -1.38078899772439
  H   -0.65189204566744     -0.44694047243656     -1.31069352963572
  H   1.14545541179264      0.77315033060224      0.87654479861510
  N   1.18883707813793     -1.28668955486803      0.48615795241451
  O   0.53419617757295     -2.16717100515967     -0.06254348367925
  O   2.03591010437776     -1.42584851629529      1.35621683877913
  C   -0.79080621566739      1.61901917351148     -0.88768303322438
  N   -1.04609473499362      2.72454791020973     -1.19169888284378
  N   -1.45784611212118     -0.14861764178276      0.60361127303995
  O   -2.58157080417120     -0.43676308148215      0.22361757262275
  O   -1.03940499037444     -0.12327189879857      1.75512553402280
