13
Coordinates from ORCA-job run
  C   0.90055604428429      0.02299483658988     -0.31787343590630
  C   -0.61370118488941     -0.05632461080243     -0.39155571085033
  Br  1.67381605529691     -0.63983944957297     -1.94856496745422
  H   -0.94003166844468     -1.08879752496239     -0.52489149427819
  H   1.26420165634111      1.03101887081284     -0.13511627657331
  N   1.39034172196833     -0.82742108429450      0.82823385794954
  O   2.45307131638633     -0.48838404267263      1.32772476099631
  O   0.69328214349613     -1.78679147394574      1.14194230671694
  C   -1.14928963976615      0.80579528972804     -1.43688480392752
  N   -1.58013058964583      1.51247453563413     -2.27042184441999
  N   -1.21687630536535      0.39387919312715      0.93378334722614
  O   -0.50792342439916      1.08582911201013      1.65518191057224
  O   -2.36631612526253      0.03656634834849      1.13744234994870
