14

C	0.0	0.0	0.0
C	-0.51869	0.063902	-1.427048
F	1.400301	0.0	0.0
H	-1.624091	0.044197	-1.337853
H	-0.303674	0.913403	0.516709
N	-0.441563	-1.229336	0.582791
H	-0.131	-1.244075	1.547206
H	-1.463572	-1.202418	0.590527
C	-0.026636	-1.030732	-2.250392
N	0.322075	-1.927179	-2.923206
N	-0.178573	1.378911	-2.077082
O	0.009565	1.382373	-3.290183
O	-0.171291	2.370241	-1.355952
Cl	-3.441114	0.0	0.0
