14

C	0.0	0.0	0.0
C	-0.210226	-0.067904	-1.571642
F	1.389492	0.0	0.0
H	0.10437	0.893522	-1.98112
H	-0.382621	0.957127	0.34983
N	-0.483062	-1.039982	0.808137
H	-1.493011	-0.899206	0.901493
H	-0.320443	-1.935281	0.363228
C	-1.45874	-0.466516	-2.21735
N	-2.234615	-0.834482	-3.02114
N	0.812988	-1.050804	-2.099693
O	1.71336	-0.611694	-2.803521
O	0.665701	-2.225254	-1.768448
Cl	-3.381817	0.0	0.0
