14

C	0.0	0.0	0.0
C	-0.438301	-0.381392	-1.406794
F	1.400417	0.0	0.0
H	-1.544546	-0.418466	-1.358713
H	-0.369174	0.993236	0.245456
N	-0.435045	-1.034814	0.882145
H	0.360649	-1.490993	1.302273
H	-1.115168	-0.722459	1.560587
C	0.161026	-1.656252	-1.780817
N	0.670878	-2.680535	-2.041437
N	-0.070336	0.669591	-2.416189
O	-0.084124	1.833466	-2.026361
O	0.168871	0.30889	-3.56589
Cl	-3.382743	0.0	0.0
