14

C	0.0	0.0	0.0
C	-0.500273	0.072903	-1.434393
F	1.399827	0.0	0.0
H	-1.605168	0.111311	-1.365907
H	-0.301654	0.916126	0.513284
N	-0.462837	-1.221139	0.576699
H	-0.208088	-1.219887	1.557956
H	-1.48562	-1.185049	0.535124
C	-0.050526	-1.056696	-2.235668
N	0.294946	-1.976674	-2.877496
N	-0.066121	1.361611	-2.083153
O	-0.106193	2.367716	-1.383756
O	0.249227	1.333309	-3.269023
Cl	-3.44588	0.0	0.0
