14

C	-0.47137	-0.134147	-1.430997
C	0.0	0.0	0.0
F	-1.807206	0.199233	-1.573461
H	1.109376	0.0	0.0
H	0.115066	0.579776	-2.014093
C	-0.252512	-1.485282	-1.960176
N	-0.099143	-2.539951	-2.451318
N	-0.531269	-1.044999	0.910072
O	0.050335	-1.178741	1.98053
O	-1.517715	-1.681413	0.533037
N	-0.444093	1.338758	0.505681
O	-1.043122	1.401322	1.572513
O	-0.147075	2.282698	-0.217658
Cl	3.114876	0.0	0.0
