14

C	-0.478491	-0.024653	-1.445753
C	0.0	0.0	0.0
F	-0.159077	1.175541	-2.034871
H	1.089473	0.0	0.0
H	0.080177	-0.814512	-1.950494
C	-1.920474	-0.283501	-1.594909
N	-3.053455	-0.556831	-1.73246
N	-0.466283	-1.243159	0.681281
O	-1.000746	-1.155729	1.781089
O	-0.253369	-2.278186	0.05435
N	-0.523834	1.168202	0.753776
O	-1.560891	1.690913	0.344405
O	0.116378	1.505864	1.741302
Cl	3.139089	0.0	0.0
