14

C	-0.596375	0.066648	-1.401166
C	0.0	0.0	0.0
F	-0.429515	-1.180616	-1.977173
H	1.110002	0.0	0.0
H	-1.669263	0.264929	-1.339473
C	0.042738	1.072891	-2.255095
N	0.48855	1.853557	-3.00936
N	-0.56673	-1.219636	0.65442
O	-1.796381	-1.248486	0.735086
O	0.205331	-2.087087	1.036392
N	-0.456025	1.159467	0.811747
O	-0.404167	1.040858	2.029046
O	-0.805238	2.165129	0.193339
Cl	3.132623	0.0	0.0
