14

C	-0.456586	0.149737	-1.434117
C	0.0	0.0	0.0
F	-1.809123	0.43499	-1.512461
H	1.110196	0.0	0.0
H	0.090207	1.00637	-1.83397
C	-0.160843	-1.02718	-2.258076
N	0.047652	-1.909934	-3.001214
N	-0.518001	-1.209603	0.684673
O	-1.35357	-1.894538	0.094688
O	-0.056713	-1.431527	1.797536
N	-0.472912	1.214784	0.73701
O	-1.253896	1.080141	1.672937
O	-0.040163	2.275294	0.29646
Cl	3.110619	0.0	0.0
