14

C	-0.470829	0.290826	-1.408167
C	0.0	0.0	0.0
F	-1.842466	0.460251	-1.472306
H	1.103664	0.0	0.0
H	0.006099	1.21811	-1.72887
C	-0.102322	-0.802655	-2.318281
N	0.120005	-1.653649	-3.095137
N	-0.576787	-1.285745	0.481712
O	-1.753591	-1.268476	0.839462
O	0.150497	-2.272087	0.41739
N	-0.405733	1.096914	0.928245
O	-0.548266	2.212481	0.434032
O	-0.471722	0.819065	2.118315
Cl	3.128773	0.0	0.0
