16

C	-0.407026	0.002527	-1.46641
C	0.0	0.0	0.0
Br	0.522369	1.336613	-2.461202
H	1.09355	0.0	0.0
N	-0.121903	-1.366997	-2.107081
O	1.02952	-1.749724	-2.031835
O	-1.106794	-2.027905	-2.4621
N	-1.918237	0.228152	-1.64911
O	-2.611295	-0.13092	-0.703989
O	-2.3207	0.566491	-2.746533
C	-0.433105	-1.233733	0.663915
N	-0.747163	-2.203917	1.251083
N	-0.456587	1.222534	0.626941
H	0.222436	1.49517	1.328946
H	-1.366538	1.089992	1.052946
Cl	3.17448	0.0	0.0
