16

C	-0.376251	0.007061	-1.467685
C	0.0	0.0	0.0
Br	0.485274	-1.394198	-2.446066
H	1.094467	0.0	0.0
N	-1.882161	-0.087181	-1.731623
O	-2.250067	-0.294105	-2.878767
O	-2.603358	0.077181	-0.75244
N	0.039366	1.375824	-2.034471
O	-0.85708	2.122989	-2.399972
O	1.236759	1.594415	-2.034566
C	-0.450825	-1.239838	0.626386
N	-0.806262	-2.207395	1.198016
N	-0.43988	1.225573	0.619528
H	-1.404853	1.169206	0.917235
H	0.15659	1.4466	1.407235
Cl	2.68603	0.0	0.0
