16

C	-0.414613	0.015759	-1.495927
C	0.0	0.0	0.0
Br	0.515069	-1.317351	-2.484906
H	1.093781	0.0	0.0
N	-1.927872	-0.152057	-1.614414
O	-2.396981	-1.19363	-2.042621
O	-2.560504	0.81012	-1.178295
N	-0.136383	1.356146	-2.165753
O	-0.721719	1.549964	-3.225437
O	0.661866	2.102147	-1.617217
C	-0.476528	-1.278069	0.54486
N	-0.89783	-2.281437	0.987696
N	-0.445975	1.085628	0.833297
H	0.154768	1.8843	0.676489
H	-1.414267	1.329116	0.666447
Cl	3.219625	0.0	0.0
