16

C	-0.4948	0.008786	-1.442957
C	0.0	0.0	0.0
Br	0.381563	-1.317296	-2.492533
H	1.094432	0.0	0.0
N	-2.013797	-0.170828	-1.548598
O	-2.47875	-0.418712	-2.65079
O	-2.650621	0.001066	-0.513913
N	-0.240225	1.409355	-2.020238
O	-1.224866	2.120881	-2.174261
O	0.924266	1.693638	-2.223877
C	-0.425983	-1.247321	0.649766
N	-0.757692	-2.217325	1.224609
N	-0.395847	1.217062	0.678903
H	0.337731	1.475224	1.326808
H	-1.28153	1.119622	1.154593
Cl	3.212855	0.0	0.0
