16

C	-0.551743	-0.003926	-1.422395
C	0.0	0.0	0.0
Br	-2.455514	-0.300993	-1.483778
H	1.093183	0.0	0.0
N	-0.194058	1.338827	-2.067043
O	1.00957	1.48155	-2.21801
O	-1.083283	2.123666	-2.346036
N	0.081365	-1.068192	-2.3041
O	0.030534	-0.869458	-3.510362
O	0.537072	-2.04477	-1.729107
C	-0.451456	-1.175119	0.750414
N	-0.877076	-2.037197	1.426994
N	-0.393474	1.259108	0.619442
H	-1.237929	1.162267	1.168692
H	0.368583	1.56644	1.213227
Cl	3.201463	0.0	0.0
