16

C	-0.457497	0.002177	-1.458017
C	0.0	0.0	0.0
Br	0.415008	-1.360037	-2.464188
H	1.094468	0.0	0.0
N	-1.974133	-0.14371	-1.608933
O	-2.63767	0.014564	-0.588704
O	-2.410454	-0.357542	-2.730117
N	-0.151744	1.38887	-2.044129
O	1.020863	1.631231	-2.256555
O	-1.111499	2.13443	-2.194702
C	-0.44225	-1.241401	0.647794
N	-0.779862	-2.216696	1.210067
N	-0.402477	1.223859	0.659179
H	0.315886	1.483044	1.322887
H	-1.300895	1.137864	1.111865
Cl	3.214496	0.0	0.0
