16

C	-0.492148	-0.161717	-1.425369
C	0.0	0.0	0.0
F	-1.77798	-0.665853	-1.428187
H	1.090468	0.0	0.0
H	-0.308142	-0.921861	0.511507
N	-0.585998	1.210873	-2.064863
O	-1.691445	1.635486	-2.379353
O	0.480837	1.791887	-2.216078
C	0.398657	-1.034175	-2.270713
H	0.415736	-2.035069	-1.834721
H	1.414083	-0.638627	-2.259639
H	0.010917	-1.096659	-3.290477
N	-0.532297	1.206166	0.623783
H	0.215588	1.664495	1.126185
H	-1.271462	0.985682	1.276496
Cl	3.482278	0.0	0.0
