16

C	-0.4695	-0.100332	-1.434749
C	0.0	0.0	0.0
F	-1.854606	-0.20066	-1.468734
H	1.09306	0.0	0.0
H	-0.367463	0.940314	0.421597
N	-0.196258	1.233256	-2.127434
O	0.521714	1.248737	-3.123949
O	-0.752613	2.214919	-1.638072
C	0.143076	-1.235659	-2.196881
H	-0.123873	-2.149308	-1.665586
H	1.228326	-1.124849	-2.202722
H	-0.237091	-1.26439	-3.218004
N	-0.453554	-1.189435	0.722694
H	0.279314	-1.472124	1.358898
H	-1.285258	-0.985649	1.257949
Cl	3.446464	0.0	0.0
