16

C	-0.360821	0.183515	-1.472108
C	0.0	0.0	0.0
F	-0.153109	-0.989303	-2.147454
H	1.093501	0.0	0.0
H	-0.346327	0.884311	0.543407
N	-1.859477	0.442014	-1.561017
O	-2.599061	-0.498286	-1.843901
O	-2.236255	1.575218	-1.267151
C	0.400598	1.293656	-2.144869
H	1.463942	1.065012	-2.040718
H	0.193506	2.24557	-1.659319
H	0.126244	1.354731	-3.200822
N	-0.50333	-1.215095	0.613937
H	-1.457819	-1.401713	0.329427
H	0.066818	-1.989122	0.299687
Cl	3.481593	0.0	0.0
