16

C	-0.454593	-0.085217	-1.450203
C	0.0	0.0	0.0
F	-1.800306	-0.402835	-1.496825
H	1.091674	0.0	0.0
H	-0.329138	-0.944099	0.450546
N	-0.356751	1.297804	-2.06747
O	-1.370208	1.996311	-2.068579
O	0.749458	1.64163	-2.468399
C	0.331782	-1.067385	-2.271327
H	1.392261	-0.82276	-2.207564
H	0.174739	-2.061571	-1.849842
H	-0.006252	-1.063279	-3.310436
N	-0.517363	1.120797	0.76425
H	0.072687	1.92871	0.619219
H	-1.459987	1.351153	0.476954
Cl	3.484641	0.0	0.0
