17
Coordinates from ORCA-job run
  C   0.91943926477374     -0.35668075521682      0.43563783257317
  C   -0.59599964706350     -0.09429953969953      0.36266660441538
  Cl  1.49912215582448     -0.15227353723105      2.12604319363053
  H   -1.05266962360366     -0.79882560138448      1.06737798350078
  N   1.65295934342029      0.57936568884051     -0.38570527371389
  H   1.40907823239247      0.43592808384350     -1.35995587440231
  H   2.64976470442839      0.42360734262690     -0.28419413244507
  C   1.19405349867458     -1.76753717148508      0.09123627332721
  N   1.41171898136235     -2.87074592058297     -0.25242579978446
  C   -1.13139804275390     -0.39682807858740     -1.03889109064822
  H   -2.22187120856933     -0.33590013300851     -1.02832285137016
  H   -0.77953633048120      0.33921437214951     -1.76753924616092
  H   -0.86022230063357     -1.39674884026710     -1.38505167946756
  C   -0.95014358306059      1.32985281497868      0.77942636145117
  H   -2.03349455175577      1.46215589139090      0.72378349436679
  H   -0.63598265881856      1.54391552211546      1.80086619960313
  H   -0.47581823413623      2.05479986151748      0.11704800512444
