17
Coordinates from ORCA-job run
  C   0.92077009917645     -0.51704345051670      0.38994494835769
  C   -0.49755343700069      0.09618127268081      0.38357206056158
  Cl  0.93028162084804     -1.90516784155938      1.54816167100099
  H   -0.69366403728771      0.36625190649421      1.42996575002830
  N   1.99382246505416      0.36048771317171      0.79174203720580
  H   2.18873252728855      1.04248654100486      0.06903103763788
  H   1.74706202508550      0.83666111756803      1.65231220686633
  C   1.23724528105479     -1.04315645384768     -0.94469492162543
  N   1.45234527671518     -1.40813757663382     -2.04023533214472
  C   -1.56936590346479     -0.88292936773276     -0.08717370367119
  H   -1.40519417890941     -1.16395115789801     -1.13116279230880
  H   -1.58971353132584     -1.79057229528860      0.51524981509521
  H   -2.55239287463086     -0.41083125050649     -0.01982699662905
  C   -0.52367497593498      1.36202066586785     -0.47302218712848
  H   0.15333376176087      2.13222875192756     -0.09994748904756
  H   -1.53084749666072      1.78460121754726     -0.47100750702533
  H   -0.26218662176854      1.13887020772114     -1.51190859717322
