17

C	0.0	0.0	0.0
C	-0.225771	-0.069889	-1.564194
F	1.363823	0.0	0.0
H	0.605493	-0.707945	-1.873553
C	-0.682278	1.103865	0.64974
N	-0.656693	2.173996	1.176699
N	-0.309737	-1.299921	0.725149
O	-0.14898	-2.335341	0.082297
O	-0.485651	-1.241951	1.941783
C	0.028393	1.349139	-2.087259
H	-0.802395	2.00181	-1.809856
H	0.106006	1.326172	-3.181875
H	0.954108	1.776258	-1.6891
N	-1.435554	-0.680658	-2.096248
H	-1.53521	-0.395892	-3.069434
H	-2.207125	-0.310646	-1.534377
H	-2.156149	0.0	0.0
