17

C	0.0	0.0	0.0
C	-0.46546	-0.157588	-1.470231
F	1.348929	0.0	0.0
H	-1.321229	-0.82949	-1.429658
C	-0.494835	1.180494	0.706626
N	-0.542867	2.192995	1.311275
N	-0.358587	-1.238315	0.814551
O	-0.414788	-2.306791	0.206138
O	-0.33126	-1.122506	2.038652
C	0.633783	-0.738725	-2.346835
H	1.481668	-0.056807	-2.426477
H	0.227718	-0.905992	-3.350552
H	0.973149	-1.699783	-1.95796
N	-0.839266	1.17161	-1.951223
H	-1.720653	1.363767	-1.465926
H	-1.063799	1.085437	-2.939135
H	-2.442171	0.0	0.0
