17

C	0.0	0.0	0.0
C	-0.247363	-0.429609	-1.498862
F	1.363851	0.0	0.0
H	0.643514	-1.03678	-1.68749
C	-0.549084	1.28181	0.411393
N	-0.575727	2.431079	0.69814
N	-0.328281	-1.057458	1.031067
O	-0.196623	-2.223289	0.664725
O	-0.500281	-0.689717	2.19175
C	-0.157719	0.851005	-2.334956
H	0.722471	1.451986	-2.09022
H	-0.10537	0.583231	-3.394773
H	-1.053635	1.45349	-2.169233
N	-1.413746	-1.240876	-1.826114
H	-2.116411	-0.919243	-1.130605
H	-1.751387	-0.9267	-2.732492
H	-2.285052	0.0	0.0
