17

C	0.0	0.0	0.0
C	-0.307847	0.010097	-1.54658
F	1.357068	0.0	0.0
H	-1.364309	0.23407	-1.649729
C	-0.724299	1.13151	0.588171
N	-0.693826	2.261345	0.97737
N	-0.312271	-1.22483	0.844077
O	-0.407333	-1.031119	2.054818
O	-0.236077	-2.336863	0.320865
C	0.006046	-1.281392	-2.285576
H	-0.705301	-2.062948	-2.027719
H	1.010788	-1.646848	-2.057803
H	-0.057112	-1.066632	-3.35621
N	0.44491	1.105724	-2.164982
H	1.435994	0.944056	-2.019401
H	0.214347	1.966518	-1.67587
H	-2.165321	0.0	0.0
