19

C	-0.314885	0.093316	-1.492361
C	0.0	0.0	0.0
Cl	-2.048844	0.495554	-1.816635
H	1.0951	0.0	0.0
C	0.596925	1.112037	-2.134412
H	0.526677	1.089545	-3.223264
H	0.301092	2.089418	-1.755706
H	1.607723	0.880297	-1.780202
N	-0.081818	-1.274777	-2.128705
O	0.997714	-1.449326	-2.686191
O	-0.949961	-2.134424	-2.001908
C	-0.573183	-1.200073	0.729263
H	-1.66658	-1.247811	0.657534
H	-0.163798	-2.141044	0.360292
H	-0.291944	-1.112394	1.782749
N	-0.372316	1.286623	0.595617
H	0.372013	1.535795	1.236148
H	-1.239715	1.205214	1.1144
F	2.667976	0.0	0.0
