19

C	-0.57771	0.020308	-1.406158
C	0.0	0.0	0.0
Cl	0.220633	-1.222277	-2.42759
H	1.095089	0.0	0.0
C	-2.075171	-0.15663	-1.496437
H	-2.544216	0.614515	-0.882225
H	-2.339556	-1.142888	-1.114013
H	-2.417553	-0.067308	-2.524986
N	-0.212048	1.353361	-2.073578
O	-0.936189	1.734235	-2.995403
O	0.786701	1.936588	-1.68105
C	-0.4257	-1.243967	0.76276
H	-1.48807	-1.235062	1.045051
H	-0.220656	-2.152614	0.193022
H	0.180841	-1.290038	1.671494
N	-0.499947	1.222663	0.667214
H	0.316459	1.808655	0.807519
H	-0.858391	0.982362	1.583669
F	2.645438	0.0	0.0
