19

C	-0.511526	0.004753	-1.436563
C	0.0	0.0	0.0
Cl	0.368329	-1.22275	-2.40574
H	1.095049	0.0	0.0
C	-1.995646	-0.203815	-1.613894
H	-2.518907	0.554399	-1.028235
H	-2.258855	-1.198056	-1.252198
H	-2.276607	-0.118479	-2.661619
N	-0.133223	1.344419	-2.085044
O	-0.844539	1.743386	-3.009559
O	0.865747	1.915823	-1.674776
C	-0.471809	-1.230313	0.752635
H	-0.240108	-2.14564	0.20456
H	0.076737	-1.2726	1.697833
H	-1.548788	-1.209248	0.969976
N	-0.523183	1.232476	0.629297
H	0.27643	1.852248	0.715092
H	-0.830176	1.015447	1.570539
F	2.656229	0.0	0.0
