19

C	-0.233451	-0.121578	-1.522701
C	0.0	0.0	0.0
Cl	0.083462	1.448909	-2.300946
H	1.094022	0.0	0.0
C	0.739105	-1.128067	-2.101919
H	0.494527	-2.137562	-1.768906
H	1.716493	-0.839926	-1.69488
H	0.725443	-1.098396	-3.19164
N	-1.680199	-0.483335	-1.802901
O	-2.524514	0.404594	-1.867591
O	-1.939315	-1.690443	-1.828776
C	-0.513094	-1.214139	0.755178
H	-0.19381	-2.152593	0.305124
H	-1.608824	-1.22247	0.817702
H	-0.10315	-1.177124	1.7682
N	-0.572044	1.226253	0.543465
H	-1.02906	1.034117	1.425033
H	0.1893	1.869149	0.720836
F	2.702746	0.0	0.0
