16

C	0.0	0.0	0.0
C	-0.374974	-0.327225	-1.450224
F	1.377675	0.0	0.0
H	0.241506	-1.186478	-1.728534
H	-0.000444	0.528737	-2.024226
C	-0.596213	1.251922	0.560835
H	-0.299667	2.094647	-0.067999
H	-1.687398	1.152162	0.54739
H	-0.258761	1.416119	1.582744
N	-0.327307	-1.182068	0.918682
O	-0.492217	-2.283117	0.398294
O	-0.301542	-0.968949	2.128367
N	-1.742164	-0.586722	-1.812589
H	-2.371782	0.165011	-1.553177
H	-2.098863	-1.385898	-1.307352
Cl	-4.320613	0.0	0.0
