16

C	0.0	0.0	0.0
C	-0.576972	-0.385203	-1.332682
F	1.370189	0.0	0.0
H	-1.649554	-0.527038	-1.15846
H	-0.458922	0.475166	-2.009216
C	-0.584857	1.247974	0.591835
H	-0.352656	2.101958	-0.050285
H	-1.671908	1.1203	0.646782
H	-0.162361	1.42234	1.583503
N	-0.296167	-1.162639	0.988062
O	0.63618	-1.537197	1.696023
O	-1.435004	-1.597375	1.008749
N	0.043658	-1.617903	-1.800609
H	0.959531	-1.419623	-2.180602
H	-0.524443	-2.028261	-2.528271
Cl	-4.110373	0.0	0.0
