16

C	0.0	0.0	0.0
C	-0.397594	0.046461	-1.48384
F	1.37982	0.0	0.0
H	-0.15975	1.067893	-1.802569
H	0.306021	-0.61569	-1.991951
C	-0.586348	1.065017	0.871399
H	-1.676379	0.959095	0.879929
H	-0.320747	2.03877	0.45427
H	-0.206976	0.986493	1.889254
N	-0.311254	-1.382227	0.583909
O	-0.453786	-1.471523	1.800606
O	-0.292629	-2.331944	-0.197131
N	-1.735728	-0.286594	-1.887443
H	-1.929509	-1.255702	-1.674158
H	-2.459822	0.235367	-1.397782
Cl	-4.334414	0.0	0.0
