16

C	0.0	0.0	0.0
C	-0.559095	0.205322	-1.389236
F	1.370749	0.0	0.0
H	-1.647811	0.103762	-1.299798
H	-0.338442	1.249173	-1.634876
C	-0.54051	0.985971	0.997297
H	-0.269106	1.993407	0.672912
H	-0.10876	0.791007	1.978116
H	-1.630018	0.893532	1.028225
N	-0.324178	-1.413903	0.507021
O	-0.823472	-2.22578	-0.265411
O	0.007101	-1.656838	1.664078
N	0.074843	-0.643373	-2.401761
H	-0.147973	-0.256675	-3.310712
H	-0.364319	-1.553781	-2.352243
Cl	-3.89239	0.0	0.0
