16

C	0.0	0.0	0.0
C	-0.38274	-0.319636	-1.449523
F	1.377776	0.0	0.0
H	0.243793	-1.167027	-1.738941
H	-0.024608	0.546224	-2.020487
C	-0.594996	1.243926	0.577963
H	-1.682359	1.123815	0.62069
H	-0.349442	2.086102	-0.072239
H	-0.209409	1.426399	1.579578
N	-0.3173	-1.189086	0.914497
O	-0.494867	-2.28565	0.389522
O	-0.271928	-0.984363	2.124771
N	-1.748196	-0.599106	-1.798667
H	-2.072534	-1.428568	-1.319762
H	-2.3991	0.122086	-1.504521
Cl	-4.339793	0.0	0.0
