16

C	0.0	0.0	0.0
C	-0.56375	0.039059	-1.401717
F	1.35695	0.0	0.0
H	-0.277653	1.019453	-1.797489
H	-1.656332	0.014154	-1.307279
C	-0.55368	1.077755	0.890761
H	-1.640461	0.963094	0.93969
H	-0.109554	0.994075	1.882387
H	-0.309855	2.05226	0.461839
N	-0.323692	-1.352186	0.663529
O	-0.991705	-2.180425	0.054577
O	0.152031	-1.512265	1.785617
N	0.008585	-0.998576	-2.265219
H	-0.564409	-1.825901	-2.163627
H	-0.074499	-0.691826	-3.225582
Cl	-3.921405	0.0	0.0
