16

C	0.0	0.0	0.0
C	-0.601649	-0.203636	-1.383786
F	1.368517	0.0	0.0
H	0.162571	-0.678976	-2.00201
H	-1.442956	-0.888693	-1.264473
C	-0.509569	1.182598	0.761293
H	-1.59207	1.095	0.86871
H	-0.035972	1.218418	1.742193
H	-0.267737	2.074821	0.184656
N	-0.270175	-1.293766	0.791268
O	0.079619	-2.328693	0.226162
O	-0.717841	-1.225261	1.928717
N	-1.032063	1.067412	-1.969786
H	-1.985312	1.210336	-1.637217
H	-1.097142	0.931648	-2.972881
Cl	-3.757203	0.0	0.0
