15

C	-0.375134	0.066201	-1.456772
C	0.0	0.0	0.0
Cl	-2.170549	0.312301	-1.753609
H	1.104373	0.0	0.0
H	0.106745	0.929624	-1.920005
C	0.01104	-1.139017	-2.186584
N	0.286361	-2.092478	-2.813398
N	-0.458905	-1.249484	0.593036
H	0.298877	-1.614675	1.156549
H	-1.269518	-1.107014	1.184043
C	-0.421381	1.247467	0.758955
H	-0.092803	2.153781	0.240069
H	0.072683	1.233999	1.733921
H	-1.506971	1.308437	0.908483
F	2.615315	0.0	0.0
