15

C	-0.320958	0.058846	-1.477815
C	0.0	0.0	0.0
Cl	-2.055118	0.461874	-1.886522
H	1.104373	0.0	0.0
H	0.281218	0.851485	-1.926675
C	-0.007002	-1.201726	-2.145165
N	0.23079	-2.21953	-2.680146
N	-0.56927	-1.220473	0.593203
H	0.133593	-1.946418	0.477095
H	-0.63532	-1.071336	1.594796
C	-0.479954	1.23596	0.729803
H	-0.003319	1.266301	1.714142
H	-1.569056	1.244504	0.854101
H	-0.178834	2.142187	0.197653
F	2.64464	0.0	0.0
