15

C	-0.32942	0.009257	-1.502793
C	0.0	0.0	0.0
Cl	0.139751	1.535064	-2.333536
H	1.095612	0.0	0.0
H	0.276017	-0.771387	-1.967156
C	-1.747617	-0.235226	-1.775011
N	-2.893079	-0.459585	-1.91697
N	-0.391507	-1.283312	0.578753
H	-1.299193	-1.609612	0.260703
H	0.319978	-1.967406	0.350849
C	-0.633881	1.142522	0.761027
H	-1.731867	1.095745	0.743569
H	-0.306572	1.071598	1.799609
H	-0.317367	2.109418	0.365751
F	2.642397	0.0	0.0
