15

C	-0.371648	0.030199	-1.460396
C	0.0	0.0	0.0
Cl	-2.163327	0.285233	-1.768887
H	1.097279	0.0	0.0
H	0.120651	0.875885	-1.944859
C	0.006767	-1.197789	-2.154037
N	0.319157	-2.171163	-2.730991
N	-0.462934	-1.233369	0.62363
H	-1.256258	-1.067303	1.230747
H	0.301746	-1.597423	1.178564
C	-0.423713	1.26618	0.725276
H	-1.509822	1.329864	0.87027
H	-0.09467	2.158531	0.183429
H	0.06844	1.278273	1.701283
F	2.616897	0.0	0.0
