15

C	-0.474181	-0.054869	-1.450361
C	0.0	0.0	0.0
Cl	-0.047749	1.414749	-2.397441
H	1.095055	0.0	0.0
H	0.046429	-0.886936	-1.923674
C	-1.920316	-0.264493	-1.555956
N	-3.080868	-0.432473	-1.635295
N	-0.37513	-1.310211	0.554264
H	0.434254	-1.651653	1.059496
H	-1.154761	-1.232182	1.197056
C	-0.561653	1.169823	0.782354
H	-0.130208	1.148363	1.787005
H	-0.288417	2.123929	0.326716
H	-1.657377	1.125666	0.870421
F	2.647721	0.0	0.0
