15

C	-0.49581	0.023978	-1.448727
C	0.0	0.0	0.0
Cl	0.144594	-1.363442	-2.401517
H	1.095337	0.0	0.0
H	-1.588328	-0.089976	-1.482893
C	-0.16668	1.258711	-2.158856
N	0.04161	2.258637	-2.739513
N	-0.411714	-1.224125	0.686662
H	0.324465	-1.903456	0.540557
H	-1.27396	-1.606555	0.310536
C	-0.534726	1.219641	0.733909
H	-1.634672	1.2489	0.75886
H	-0.174802	1.160973	1.761992
H	-0.164001	2.14929	0.295074
F	2.639037	0.0	0.0
