16

C	-0.56192	-0.044042	-1.417133
C	0.0	0.0	0.0
Cl	0.052882	-1.467468	-2.274012
H	1.094282	0.0	0.0
H	-0.356972	0.928513	0.452572
C	-2.077467	-0.059374	-1.468367
H	-2.411029	-0.938236	-0.919049
H	-2.464576	0.841997	-0.989796
H	-2.43071	-0.1083	-2.50161
N	-0.111239	1.220298	-2.149842
O	-0.447613	2.265872	-1.593778
O	0.477768	1.149099	-3.218087
N	-0.500221	-1.168438	0.742366
H	-0.753177	-0.872143	1.6761
H	0.293855	-1.793256	0.849458
H	2.943478	0.0	0.0
