16

C	-0.562831	-0.055058	-1.416809
C	0.0	0.0	0.0
Cl	0.036805	-1.49086	-2.261431
H	1.094236	0.0	0.0
H	-0.3531	0.93452	0.443603
C	-2.078554	-0.054489	-1.464561
H	-2.454642	0.855763	-0.995107
H	-2.418742	-0.924342	-0.905298
H	-2.43592	-0.111185	-2.496114
N	-0.098369	1.198548	-2.159137
O	-0.421148	2.252858	-1.610527
O	0.490339	1.1141	-3.225159
N	-0.493331	-1.162893	0.752539
H	-0.813015	-0.85442	1.660595
H	0.315551	-1.753163	0.920442
H	2.938455	0.0	0.0
