16

C	-0.476215	0.087301	-1.438227
C	0.0	0.0	0.0
Cl	-2.217474	0.570285	-1.519424
H	1.091598	0.0	0.0
H	-0.307342	0.938129	0.483564
C	0.364586	1.062737	-2.231362
H	1.417258	0.800796	-2.083923
H	0.094167	1.049581	-3.289921
H	0.197421	2.067284	-1.836855
N	-0.359509	-1.302465	-2.061066
O	-1.35491	-1.998954	-2.200532
O	0.786781	-1.630826	-2.346507
N	-0.472307	-1.20004	0.667237
H	-1.28735	-1.018744	1.234657
H	0.275957	-1.538312	1.259001
H	2.919815	0.0	0.0
