16

C	-0.427665	-0.038115	-1.45097
C	0.0	0.0	0.0
Cl	-0.007321	1.4859	-2.258213
H	1.099522	0.0	0.0
H	-0.344406	-0.936084	0.44823
C	0.240062	-1.187854	-2.175512
H	-0.067998	-2.12978	-1.720175
H	1.319091	-1.063724	-2.047066
H	-0.021485	-1.188208	-3.236385
N	-1.950517	-0.216408	-1.518192
O	-2.666646	0.635008	-2.027276
O	-2.354145	-1.26646	-1.018905
N	-0.614803	1.128658	0.705516
H	-0.606943	0.907538	1.694253
H	0.012146	1.92005	0.597387
H	2.983761	0.0	0.0
