16

C	-0.347865	-0.014086	-1.483967
C	0.0	0.0	0.0
Cl	-0.108009	1.625069	-2.162989
H	1.093696	0.0	0.0
H	-0.404154	0.896395	0.4709
C	0.484653	-1.004801	-2.254841
H	1.530695	-0.785461	-2.009793
H	0.301307	-0.941902	-3.326638
H	0.251319	-2.016096	-1.916815
N	-1.842885	-0.291816	-1.677669
O	-2.619357	0.264641	-0.904725
O	-2.183287	-1.060972	-2.576169
N	-0.409567	-1.192938	0.722837
H	-1.341314	-1.510445	0.491841
H	0.263745	-1.932826	0.576082
H	2.941272	0.0	0.0
