16

C	-0.426923	-0.010733	-1.449074
C	0.0	0.0	0.0
Cl	-0.194661	1.62096	-2.157458
H	1.096023	0.0	0.0
H	-0.379569	0.893018	0.502812
C	0.332655	-1.031433	-2.25344
H	0.112257	-2.018919	-1.846701
H	0.066639	-0.994308	-3.308786
H	1.394961	-0.81885	-2.100706
N	-1.934479	-0.25506	-1.553169
O	-2.635536	0.133001	-0.62058
O	-2.364438	-0.791921	-2.572276
N	-0.425166	-1.260085	0.612755
H	-1.219525	-1.111238	1.219242
H	0.351872	-1.602947	1.165822
H	2.931741	0.0	0.0
