16

C	-0.373236	0.014559	-1.480179
C	0.0	0.0	0.0
Cl	-2.146922	0.312382	-1.724199
H	1.09137	0.0	0.0
H	-0.324423	0.97201	0.390872
C	0.434445	1.058465	-2.20791
H	1.49219	0.881855	-1.977686
H	0.25564	1.025903	-3.284256
H	0.150102	2.040925	-1.825603
N	-0.108262	-1.359262	-2.080888
O	-0.870392	-2.275342	-1.782424
O	0.89082	-1.477234	-2.785894
N	-0.506806	-1.072804	0.827717
H	-1.436504	-1.348493	0.535771
H	0.102188	-1.875539	0.721588
H	2.920082	0.0	0.0
