16

C	-0.603278	0.014869	-1.390053
C	0.0	0.0	0.0
Cl	0.112691	-1.30639	-2.357777
H	1.092829	0.0	0.0
H	-0.317618	-0.949011	0.44763
C	-2.110394	-0.1129	-1.413037
H	-2.531518	0.710366	-0.834537
H	-2.48561	-0.091638	-2.434542
H	-2.384886	-1.060295	-0.944968
N	-0.239026	1.310033	-2.114933
O	-0.825349	1.535128	-3.174643
O	0.60405	2.037432	-1.606272
N	-0.544913	1.133137	0.768282
H	0.209518	1.808068	0.839765
H	-0.743184	0.82002	1.709675
H	2.992456	0.0	0.0
