14
Coordinates from ORCA-job run
  C   1.02987819766919      0.20788214587786      0.61517133648066
  C   -0.44174904022595      0.07423124096993      0.20974401023898
  Br  2.11749142360851      0.93202578743635     -0.83251547738315
  H   -0.98273945879948     -0.23839202831439      1.11009641085186
  H   1.11176537135740      0.92688365361559      1.43142037052098
  C   1.55580347487292     -1.08341622369507      1.03038596522628
  N   1.94194415632366     -2.13822922338093      1.37534263819803
  C   -0.72104755115345     -0.85725800313981     -0.94535417668101
  H   -1.79318104259809     -0.91238438444577     -1.13113827747317
  H   -0.35875589491055     -1.85699906561869     -0.69678228588731
  H   -0.23286407281691     -0.51445967040293     -1.85588118406593
  N   -0.95033615600998      1.47485331541627     -0.05024261398187
  O   -1.49113011117682      1.70766047824329     -1.12506990052600
  O   -0.78407929614046      2.27860197743830      0.86382318448166
