14
Coordinates from ORCA-job run
  C   1.01186042120457      0.34144063133075      0.58465810518954
  C   -0.43233474100819     -0.03545147102390      0.23772567186600
  Br  1.84061092265386      1.40769622767010     -0.82219476378774
  H   -0.84075309270215     -0.53795420046551      1.12187589331347
  H   1.01240689952951      0.97559017239717      1.47229627354819
  C   1.79995444747530     -0.85741435676835      0.82554815252348
  N   2.40149825884421     -1.84597789980124      1.02964429753356
  C   -0.60906393967083     -0.88082956963168     -1.00078499739504
  H   -0.04815575197120     -1.81053164041375     -0.88461491006620
  H   -1.66160501151886     -1.12511788941209     -1.14036432237603
  H   -0.25810936156250     -0.35825003312582     -1.88885197056537
  N   -1.21380984983204      1.25738519293366      0.16325016173737
  O   -1.14001540288934      1.98052629704286      1.15348294816721
  O   -1.86248379855235      1.48788853926779     -0.85067053968844
