14
Coordinates from ORCA-job run
  C   1.12430813871810     -0.24221000997054      0.31694298865858
  C   -0.38244282497409      0.01071758651097      0.22690107660674
  Br  1.47063121252607     -1.79689247195214      1.44297264184757
  H   -0.78417498783403      0.23782625250315      1.21552157191880
  H   1.52611883867709     -0.47367248746816     -0.66983766904385
  C   1.82202829010844      0.90968286159802      0.87283155367689
  N   2.35883759208084      1.85212625595904      1.32455315820096
  C   -1.15974361319063     -1.09662971378836     -0.46263027690293
  H   -0.74227696180937     -1.29104889471682     -1.45282565419144
  H   -2.20311716625058     -0.79437366023992     -0.57111713098437
  H   -1.12529074087766     -2.01139188314622      0.12746065338274
  N   -0.57708559770719      1.26648029391950     -0.58088872922467
  O   -1.44464935757421      2.04437182616309     -0.19919970287012
  O   0.11585717810724      1.38501404462838     -1.58968448107489
