14
Coordinates from ORCA-job run
  C   1.13636618584693     -0.23795244001072      0.27040047022458
  C   -0.37789478825983     -0.01623259317238      0.23722700492990
  Br  1.55032962133006     -1.85685843912398      1.27606479184987
  H   -0.75701231122040      0.13135345198849      1.24942974284018
  H   1.51523242408060     -0.39093819922488     -0.74067282570097
  C   1.82196956038675      0.89105491459574      0.88548619994062
  N   2.34701531087231      1.81579887543433      1.38531993894746
  C   -1.14766407124281     -1.09008021984958     -0.51047360558786
  H   -0.75573863740600     -1.19834746430553     -1.52381287032021
  H   -1.07216188077697     -2.04504375341075      0.00793307454345
  H   -2.20135603818240     -0.80990958233516     -0.56637661716874
  N   -0.61777410133709      1.28956492256041     -0.47303505105209
  O   -1.44911818002821      2.04687852982387      0.01551635419274
  O   0.00980690593707      1.46971199703012     -1.51500660763895
