14
Coordinates from ORCA-job run
  C   1.13647752940116     -0.27281520849377      0.23254366227427
  C   -0.36981336707401     -0.00129276416603      0.25089614685970
  Br  1.53367656331892     -1.89671401145856      1.23623907337527
  H   -0.70791186114722      0.16752937457108      1.27434981512576
  H   1.47306500827246     -0.44488774027439     -0.79030209862809
  C   1.88070811254446      0.83741838815975      0.81249851808340
  N   2.45470367951103      1.74844855718327      1.28262699880151
  C   -1.20035170261993     -1.05579295315857     -0.45840513436929
  H   -2.24464460090468     -0.73870177017558     -0.48555025684876
  H   -0.84483205644079     -1.19130838708906     -1.48183238036290
  H   -1.14256021841265     -2.00584252157659      0.07105551795897
  N   -0.59170077208489      1.30578102605042     -0.46277548074526
  O   -1.37994731883377      2.09435136628900      0.04730236493201
  O   0.00313100446991      1.45582664413902     -1.52864674645657
