14
Coordinates from ORCA-job run
  C   1.05993565949529     -0.19662273009372      0.50758356582985
  C   -0.41896948663614     -0.02158037489996      0.15370060076249
  Br  1.29517230405371     -1.78087535603154      1.62065650338742
  H   -1.00529650786244      0.13611201584912      1.06007832617729
  H   1.64509491127663     -0.35908937544415     -0.39811248190547
  C   1.57428065023737      0.96445798227115      1.22180884545415
  N   1.96360008507819      1.91315491191480      1.79543177178269
  C   -0.98786172616303     -1.13495817402309     -0.70760507302027
  H   -2.01192235178107     -0.88649323913333     -0.99316020991121
  H   -0.38779124546541     -1.25756807467895     -1.61153045089917
  H   -1.00248846363656     -2.07384354098832     -0.15565549024669
  N   -0.53811769589954      1.25997363362444     -0.62735553617513
  O   0.29025416583203      1.43740079401597     -1.51859190281259
  O   -1.47489029852902      1.99993152761760     -0.34724846842336
