14
Coordinates from ORCA-job run
  C   0.94382203128475     -0.23883507195630      0.78887625963334
  C   -0.51318417156715     -0.12916338385921      0.34433247884241
  Br  1.26496553705756      0.81393118296837      2.39809723502390
  H   -1.14877895083667     -0.48384816137827      1.15680302497802
  H   1.11457827073543     -1.27708045203337      1.08616955111470
  C   1.91554433532092      0.10456393337265     -0.24098370816573
  N   2.72678149484947      0.30315352785893     -1.06724656106409
  C   -0.77473766421051     -0.87573301356795     -0.95295711997110
  H   -1.83330974194601     -0.80775797070846     -1.21145972701247
  H   -0.18214256873972     -0.45214832963231     -1.76478901940239
  H   -0.51753927006819     -1.93097907494647     -0.83728775583687
  N   -0.89795600354924      1.30825266116538      0.15619531886334
  O   -1.89995898951099      1.69675289516751      0.74996205879020
  O   -0.19808430881964      1.97089125754950     -0.60371203579323
