14
Coordinates from ORCA-job run
  C   1.00989409101805      0.22039175435865      0.64744672611591
  C   -0.44321099487977     -0.00781033837651      0.21744585370382
  Br  1.99573550296144      1.27730527517090     -0.66147966689553
  H   -0.93629803021037     -0.51583423020168      1.05396084642487
  H   1.02200443640336      0.80681881161118      1.56722062194835
  C   1.67621039957654     -1.05595704135919      0.85599120266973
  N   2.16211994759800     -2.11436100354125      1.01252400083386
  C   -0.63340768614946     -0.76988008610230     -1.07206910999453
  H   -0.19463876219425     -0.23731068386145     -1.91392776444222
  H   -0.16377871771481     -1.75162216996887     -0.98222067730997
  H   -1.69547943419385     -0.90966859749554     -1.27084638364824
  N   -1.10417399149814      1.35219177272775      0.18001313110987
  O   -1.67801513203413      1.69260513973013     -0.84792985724142
  O   -1.01796162868259      2.01313139730811      1.21187107672553
