12

C	0.0	0.0	0.0
C	-0.545312	0.163707	-1.412217
Cl	1.772137	0.0	0.0
H	0.282312	0.281282	-2.128542
H	-0.348468	-0.929209	0.429909
H	-0.350775	0.821398	0.607339
N	-1.305572	1.455825	-1.579286
O	-0.932501	2.410875	-0.908534
O	-2.114816	1.506904	-2.495174
C	-1.360057	-0.966379	-1.84651
N	-1.777715	-1.932376	-2.36997
F	-2.393558	0.0	0.0
