12

C	0.0	0.0	0.0
C	-0.467283	0.112321	-1.437042
Cl	1.772416	0.0	0.0
H	0.066957	-0.604861	-2.063359
H	-0.36868	0.831286	0.586031
H	-0.35575	-0.934037	0.417094
N	-0.03841	1.447208	-1.995189
O	0.44253	1.455609	-3.126729
O	-0.218724	2.441036	-1.297546
C	-1.935447	-0.020458	-1.707239
N	-2.664623	-0.116838	-2.641646
F	-2.470203	0.0	0.0
