12

C	0.0	0.0	0.0
C	-0.470732	0.147627	-1.434901
Cl	1.772456	0.0	0.0
H	0.000502	-0.609923	-2.063878
H	-0.360008	-0.939049	0.40177
H	-0.359021	0.824692	0.6013
N	0.059816	1.446187	-1.987768
O	-0.087459	2.453634	-1.300433
O	0.58634	1.41697	-3.097943
C	-1.946398	0.139919	-1.696194
N	-2.68337	0.174249	-2.629401
F	-2.473447	0.0	0.0
