19

C	-0.318027	0.128147	-1.494115
C	0.0	0.0	0.0
Br	-0.128599	-1.783348	-2.34718
H	1.09531	0.0	0.0
N	-1.615246	0.619156	-1.783783
H	-2.320907	0.035194	-1.351322
H	-1.749256	0.615156	-2.78815
N	0.643448	0.901783	-2.220604
H	0.469002	1.877042	-1.99534
H	1.574124	0.662954	-1.861309
C	-0.559098	-1.198212	0.745457
H	-0.311467	-1.097093	1.80774
H	-0.119128	-2.128513	0.387099
H	-1.653447	-1.275148	0.664398
C	-0.40608	1.29772	0.706684
H	-1.489469	1.382318	0.845037
H	-0.06533	2.177795	0.158405
H	0.08073	1.318207	1.686485
H	2.970844	0.0	0.0
