19

C	-0.328746	0.136949	-1.492654
C	0.0	0.0	0.0
Br	-0.163847	-1.652706	-2.391956
H	1.096724	0.0	0.0
N	-1.689337	0.555647	-1.738407
H	-1.858123	1.408187	-1.213912
H	-1.76743	0.77084	-2.727547
N	0.640645	0.962475	-2.19563
H	1.57428	0.675098	-1.874926
H	0.515847	1.910327	-1.851849
C	-0.572693	-1.214382	0.710289
H	-0.076137	-2.128501	0.383777
H	-0.409764	-1.116014	1.789397
H	-1.648437	-1.312266	0.526563
C	-0.403969	1.275706	0.74736
H	0.124364	1.287646	1.704322
H	-1.480561	1.323317	0.950971
H	-0.099359	2.185019	0.220079
H	2.986703	0.0	0.0
