13
Coordinates from ORCA-job run
  C   0.53022510240081      0.48546545158119      0.11735918185025
  C   -0.92715506879389      0.08528353798256     -0.26679538960994
  H   0.71038728401406      1.48339215154261     -0.30620787743458
  H   -1.59549997285758      0.76285055705109      0.27767572330553
  C   1.47134778280319     -0.44102425298082     -0.51720190775516
  N   2.22790226910211     -1.19214529223084     -1.00919115171102
  N   0.64069092142222      0.43129827947082      1.56722204884765
  H   0.54859480066057      1.35381366368162      1.97042878158586
  H   1.51758573898757      0.02348139156859      1.87669916134625
  C   -1.20927686298638     -1.28406517239083      0.16942451649491
  N   -1.43207698541645     -2.38349871673618      0.51473888811908
  C   -1.16215720411329      0.25205617377555     -1.70405040928511
  N   -1.31956780522293      0.42409222768464     -2.85510156575371
