13
Coordinates from ORCA-job run
  C   0.68614475787939      0.30435190218683     -0.07632615797518
  C   -0.60934590592295     -0.22971963196399     -0.75341406083077
  H   1.02854703189045      1.15640875455200     -0.68335116317489
  H   -0.39271401003543     -0.48090522138954     -1.79899532844309
  C   1.71803618961497     -0.73428606274212     -0.14867090665647
  N   2.55461874894721     -1.55512100483568     -0.21679166977982
  N   0.38984336377361      0.62954904688132      1.30725496511482
  H   1.22923154931095      0.63785083730092      1.87170254852320
  H   -0.05032973472527      1.54002157855931      1.36770412024809
  C   -1.61549351078715      0.83706461573812     -0.72559175794017
  N   -2.36627433168297      1.73893945887574     -0.68904835525591
  C   -1.09808319395406     -1.42954329007393     -0.06838199714228
  N   -1.47518095430873     -2.41261098308900      0.44990976331248
