13
Coordinates from ORCA-job run
  C   0.64998382651948      0.38672660327271     -0.10977720214861
  C   -0.62787313506965     -0.22675972531624     -0.74491659229042
  H   0.90592187384390      1.27182618459319     -0.70069472421829
  H   -0.39296501313983     -0.59392590878231     -1.75149022156518
  C   1.75587411782427     -0.58454324314656     -0.23801295148838
  N   2.63788801114727     -1.35875328847412     -0.29724477187694
  N   0.35239444924155      0.80882241961852      1.24081717752675
  H   0.31990778108506      0.01652662521836      1.87235558879225
  H   1.04991099492085      1.45948065467926      1.57826272091087
  C   -1.66859356994715      0.80029176154609     -0.85042450735478
  N   -2.48154579969526      1.63703213248207     -0.97794933455347
  C   -1.08796691617261     -1.35754102368343      0.06789354124323
  N   -1.41293662055788     -2.25918319200756      0.74618127702296
