13
Coordinates from ORCA-job run
  C   0.64610496454212      0.50391156729416      0.05995330615682
  C   -0.85611501618351      0.17051627009279     -0.25523521328460
  H   0.84301781874814      1.49093991616960     -0.37282673852425
  H   -1.46578154048503      0.94783102308372      0.22223934738797
  C   1.50022992420919     -0.47282529399244     -0.62799796286770
  N   2.15999693138880     -1.27722926147836     -1.17188101359841
  N   0.97822428252816      0.54046369194727      1.46223750080838
  H   0.81845457433266     -0.35388457656723      1.91019591104420
  H   0.46448740584843      1.26410745426164      1.94818195287239
  C   -1.21180045235423     -1.11937723611104      0.34053073205589
  N   -1.45862943909664     -2.13822155744198      0.86989590884310
  C   -1.12011867040534      0.19388009902275     -1.69546038941937
  N   -1.29807078307276      0.24988790371913     -2.85483334147440
