13
Coordinates from ORCA-job run
  C   0.57387630492042      0.29207275206417     -0.14521429499149
  C   -0.80722263670094     -0.40149862762672      0.02305345596170
  H   0.57699037833412      0.78740960411863     -1.12082686315613
  H   -0.83745015644342     -0.86360847971079      1.01789685317118
  C   1.63286952177626     -0.73542912408908     -0.14217176150532
  N   2.49559812417666     -1.53017792966077     -0.07123023316338
  N   0.71012727345897      1.29875576812663      0.88712447796868
  H   1.38655834188178      2.00157912991219      0.61896250069048
  H   1.01160430961846      0.88508659385007      1.76125924429804
  C   -1.00259372698838     -1.44869447746640     -0.98483956257420
  N   -1.13547990862046     -2.28204665473330     -1.80119606941290
  C   -1.87302187655138      0.60172677974714     -0.05943021554798
  N   -2.73185594886209      1.39682466546825     -0.14638753173868
