13
Coordinates from ORCA-job run
  C   0.55910395877069      0.46387541614509      0.02516803856636
  C   -0.94034018831447      0.11021487804368     -0.22470766439850
  H   0.76574868768209      1.38544085378347     -0.53538701419451
  H   -1.53381786257075      0.89503793699791      0.25945303312886
  C   1.41269114435551     -0.58894380290769     -0.53113876766458
  N   2.08351200086076     -1.46031938058490     -0.93400527719752
  N   0.76098770511277      0.60696863055352      1.45946407404365
  H   0.81575592228946      1.58300676287367      1.71848312324365
  H   1.59818857732577      0.13699724075539      1.77718648720262
  C   -1.27111806380662     -1.17055897372967      0.40504564308852
  N   -1.55669639732942     -2.20133905776592      0.88766767001156
  C   -1.24775661516878      0.09972173373688     -1.65738686962160
  N   -1.44725886920699      0.13889776209857     -2.81484247620852
