16

C	-0.409015	0.044442	-1.479324
C	0.0	0.0	0.0
Cl	0.092662	-1.508497	-2.250854
H	1.092119	0.0	0.0
C	-1.863746	0.149358	-1.662768
N	-3.032729	0.167358	-1.786191
C	0.270053	1.109278	-2.227517
N	0.77869	1.948425	-2.872973
C	-0.510871	-1.198256	0.770195
H	-0.027057	-2.097858	0.398187
H	-1.600304	-1.311436	0.720074
H	-0.214094	-1.068567	1.808977
N	-0.455142	1.247164	0.642361
O	-0.368644	1.324554	1.867448
O	-0.856378	2.17024	-0.07837
F	2.480021	0.0	0.0
