16

C	-0.32621	0.009683	-1.480554
C	0.0	0.0	0.0
Cl	-2.118954	0.137774	-1.825019
H	1.093382	0.0	0.0
C	0.346116	1.071872	-2.240889
N	0.834026	1.849817	-2.973751
C	0.104168	-1.268592	-2.062367
N	0.415563	-2.291685	-2.549331
C	-0.484532	-1.217996	0.749827
H	-0.123786	-1.152847	1.774474
H	-1.575507	-1.308619	0.762056
H	-0.045986	-2.110675	0.301787
N	-0.45002	1.246207	0.63223
O	-0.563239	2.254194	-0.070899
O	-0.63603	1.236128	1.851243
F	2.460069	0.0	0.0
