16

C	-0.424951	-0.079583	-1.464419
C	0.0	0.0	0.0
Cl	0.190031	1.321284	-2.405603
H	1.091366	0.0	0.0
C	0.195069	-1.277323	-2.050463
N	0.662047	-2.23375	-2.547798
C	-1.875988	-0.195404	-1.672637
N	-3.02386	-0.367112	-1.860615
C	-0.435943	-1.21592	0.801244
H	0.040089	-2.106678	0.389785
H	-1.523593	-1.353356	0.824816
H	-0.062459	-1.087491	1.816978
N	-0.549099	1.205906	0.645624
O	-0.126105	1.461246	1.770867
O	-1.410277	1.872507	0.059152
F	2.491721	0.0	0.0
