12

C	0.0	0.0	0.0
C	-0.464536	0.326643	-1.406446
Br	1.947449	0.0	0.0
H	-1.565381	0.330724	-1.396145
H	-0.34379	0.772451	0.685813
H	-0.057858	-0.360444	-2.145119
C	-0.438697	-1.316136	0.450982
N	-0.627338	-2.41239	0.828677
N	-0.003605	1.686683	-1.789193
O	0.371636	1.846443	-2.94982
O	-0.057432	2.569298	-0.936883
Cl	-3.279068	0.0	0.0
