12

C	0.0	0.0	0.0
C	-0.491686	0.100487	-1.433842
Br	1.94901	0.0	0.0
H	-1.583535	-0.034107	-1.408717
H	-0.346666	0.883552	0.535484
H	-0.225563	1.063877	-1.86386
C	-0.416205	-1.19687	0.729172
N	-0.606767	-2.15383	1.382996
N	0.099244	-0.925405	-2.330314
O	0.217421	-2.068858	-1.898069
O	0.39442	-0.564585	-3.469967
Cl	-3.32516	0.0	0.0
