12

C	0.0	0.0	0.0
C	-0.543543	0.115342	-1.408767
Br	1.954145	0.0	0.0
H	-0.275861	1.072128	-1.852491
H	-0.330154	0.885033	0.545417
H	-1.640491	0.015024	-1.326475
C	-0.41288	-1.18637	0.748174
N	-0.617985	-2.12254	1.427369
N	-0.040224	-0.929049	-2.333714
O	0.143107	-2.057962	-1.887107
O	0.113149	-0.596911	-3.509438
Cl	-3.409871	0.0	0.0
