12

C	0.0	0.0	0.0
C	-0.392371	0.230629	-1.456578
Br	1.947763	0.0	0.0
H	0.101666	-0.476133	-2.124615
H	-0.370818	0.789132	0.650098
H	-1.479052	0.163536	-1.551607
C	-0.401232	-1.322223	0.465956
N	-0.579676	-2.383475	0.935558
N	0.005381	1.574999	-1.930402
O	0.070658	2.493362	-1.11966
O	0.206921	1.684457	-3.137147
Cl	-3.051542	0.0	0.0
