12

C	0.0	0.0	0.0
C	-0.542356	0.123805	-1.408619
Br	1.948894	0.0	0.0
H	-1.638749	0.015449	-1.329039
H	-0.330449	0.879969	0.552887
H	-0.280074	1.086871	-1.841802
C	-0.406365	-1.194239	0.740193
N	-0.604139	-2.138206	1.4102
N	-0.026695	-0.907808	-2.33916
O	0.134881	-2.045603	-1.907136
O	0.160427	-0.558193	-3.504809
Cl	-3.400809	0.0	0.0
