12

C	0.0	0.0	0.0
C	-0.540443	0.141588	-1.407744
Br	1.948755	0.0	0.0
H	-0.272265	1.107369	-1.831456
H	-0.330449	0.874452	0.561818
H	-1.637609	0.037379	-1.330303
C	-0.412021	-1.200511	0.726722
N	-0.607762	-2.150117	1.389474
N	-0.029148	-0.882834	-2.349992
O	0.152363	-0.521584	-3.512988
O	0.134867	-2.024654	-1.929602
Cl	-3.399074	0.0	0.0
