17

C	-0.242067	-0.065798	-1.502605
C	0.0	0.0	0.0
Br	-2.142589	-0.418575	-1.989966
H	1.09752	0.0	0.0
N	0.091635	1.317429	-2.089872
O	-0.694614	2.232661	-1.864043
O	1.152812	1.416714	-2.691978
N	0.581563	-1.019947	-2.160329
H	1.531147	-0.870296	-1.783104
H	0.278569	-1.945694	-1.874638
C	-0.399199	-1.270991	0.575112
N	-0.694976	-2.300195	1.062722
C	-0.534364	1.176157	0.802139
H	-0.304636	1.006686	1.856311
H	-0.034289	2.094585	0.497418
H	-1.612703	1.301621	0.684589
H	2.635065	0.0	0.0
