17

C	-0.240677	-0.0768	-1.503208
C	0.0	0.0	0.0
Br	-2.134081	-0.455616	-1.989949
H	1.097656	0.0	0.0
N	0.077179	1.309191	-2.091557
O	1.154288	1.424593	-2.659046
O	-0.733093	2.21039	-1.897304
N	0.601163	-1.018448	-2.157313
H	0.303738	-1.946168	-1.880791
H	1.544972	-0.861268	-1.767524
C	-0.39768	-1.265891	0.587194
N	-0.689592	-2.293433	1.080674
C	-0.537084	1.184571	0.787656
H	-0.027403	2.098634	0.4804
H	-0.319297	1.022003	1.84649
H	-1.614324	1.314743	0.656732
H	2.634859	0.0	0.0
