17

C	-0.250638	-0.109132	-1.50759
C	0.0	0.0	0.0
Br	-0.275406	-2.002224	-2.068403
H	1.105496	0.0	0.0
N	-1.657534	0.438823	-1.810108
O	-1.724132	1.525518	-2.386219
O	-2.611635	-0.17703	-1.354883
N	0.710651	0.588203	-2.271993
H	1.610877	0.51684	-1.775072
H	0.432153	1.552743	-2.391549
C	-0.567218	-1.037034	0.832111
N	-0.999798	-1.826992	1.590391
C	-0.377736	1.386172	0.526182
H	-1.459578	1.544672	0.564973
H	0.034619	1.493964	1.531546
H	0.08209	2.154012	-0.098286
H	2.658652	0.0	0.0
