17

C	-0.577698	0.081075	-1.416866
C	0.0	0.0	0.0
Br	0.131914	1.642964	-2.334194
H	1.092104	0.0	0.0
N	-0.103294	-1.17141	-2.17269
O	-0.865996	-2.134116	-2.07682
O	0.982917	-1.161834	-2.730541
N	-2.009671	0.112721	-1.570279
H	-2.398566	-0.684612	-1.07713
H	-2.354443	0.967637	-1.152774
C	-0.489213	-1.208402	0.642477
N	-0.909257	-2.163324	1.189911
C	-0.364079	1.204603	0.871229
H	0.115407	1.062937	1.842218
H	-1.441298	1.324297	1.024294
H	0.054549	2.111659	0.433615
H	2.655823	0.0	0.0
