17

C	-0.49172	0.097	-1.423923
C	0.0	0.0	0.0
Br	0.5198	1.474966	-2.42651
H	1.106944	0.0	0.0
N	-0.134696	-1.211418	-2.187295
O	-0.751139	-1.402179	-3.237726
O	0.726546	-1.94472	-1.716265
N	-1.868586	0.403103	-1.56017
H	-2.134466	0.3451	-2.535956
H	-2.407174	-0.266316	-1.01833
C	-0.559171	-1.187779	0.610742
N	-1.065458	-2.115649	1.135224
C	-0.360754	1.242654	0.817367
H	0.050572	1.116839	1.82196
H	-1.435811	1.424897	0.876711
H	0.130441	2.10806	0.368505
H	2.569693	0.0	0.0
