17

C	-0.183241	-0.009748	-1.507713
C	0.0	0.0	0.0
Br	-0.111742	-1.950498	-2.198299
H	1.106003	0.0	0.0
N	-1.581451	0.386754	-1.995806
O	-2.523617	0.148076	-1.248723
O	-1.658466	0.912764	-3.102693
N	0.76771	0.817664	-2.064158
H	0.791139	0.800349	-3.073318
H	1.686497	0.640962	-1.608983
C	-0.554738	-1.116392	0.732007
N	-0.977964	-1.965192	1.427497
C	-0.410093	1.334119	0.629526
H	-1.494061	1.4337	0.717776
H	-0.00882	2.151239	0.028723
H	0.040098	1.394393	1.623745
H	2.670841	0.0	0.0
