15

C	-0.601228	0.055347	-1.387014
C	0.0	0.0	0.0
Cl	0.405251	1.180577	-2.422593
H	1.098858	0.0	0.0
H	-0.403298	-0.890608	0.488054
N	-0.521315	-1.283881	-2.111843
O	0.03447	-2.219896	-1.551185
O	-1.069773	-1.337428	-3.210493
N	-1.96714	0.404833	-1.36743
H	-2.291848	0.663644	-2.289593
H	-2.032209	1.181974	-0.714048
N	-0.444765	1.231017	0.704271
H	-0.7405	0.98021	1.638869
H	0.398158	1.786737	0.813056
F	2.651474	0.0	0.0
