18

C	0.0	0.0	0.0
C	-0.289814	0.251701	-1.486643
Br	2.144453	0.0	0.0
H	0.195806	-0.54903	-2.039303
N	-0.521029	0.946848	0.843985
H	-0.385997	1.906094	0.5625
H	-0.409363	0.76661	1.829434
N	-0.356893	-1.356486	0.315948
H	0.227162	-1.721408	1.055712
H	-1.332358	-1.349404	0.609749
N	0.351397	1.505931	-1.997138
O	0.929573	1.436838	-3.078241
O	0.207933	2.54378	-1.348418
C	-1.774347	0.338771	-1.794863
H	-1.908546	0.454962	-2.873874
H	-2.25516	1.15948	-1.267947
H	-2.297329	-0.55923	-1.47227
Cl	-4.584003	0.0	0.0
