18

C	0.0	0.0	0.0
C	-0.308854	-0.259051	-1.534822
Br	2.035551	0.0	0.0
H	0.630429	-0.163558	-2.077205
N	-0.477101	1.219664	0.457095
H	-0.197881	2.038048	-0.055963
H	-0.480088	1.317852	1.458195
N	-0.436868	-1.108653	0.793243
H	-0.113029	-0.978425	1.745619
H	-1.463718	-1.031888	0.78508
N	-1.108513	0.841991	-2.200382
O	-0.669004	1.989533	-2.08134
O	-2.037398	0.53238	-2.931394
C	-0.917945	-1.613759	-1.822995
H	-1.92569	-1.667018	-1.412382
H	-0.963354	-1.766584	-2.902207
H	-0.287933	-2.37982	-1.371937
Cl	-3.577884	0.0	0.0
