18

C	0.0	0.0	0.0
C	-0.517111	-0.026279	-1.453901
Br	1.967307	0.0	0.0
H	-1.605199	-0.110915	-1.351417
N	-0.442099	1.254458	0.568362
H	-0.14753	1.28642	1.539023
H	-1.466902	1.203132	0.558109
N	-0.402707	-1.226682	0.642204
H	-1.423467	-1.262092	0.578803
H	-0.147429	-1.183854	1.623211
N	-0.100193	-1.290347	-2.144391
O	-0.852405	-2.258101	-2.057074
O	0.955835	-1.280159	-2.781336
C	-0.135816	1.17279	-2.292542
H	-0.529941	2.069996	-1.818115
H	-0.572292	1.074348	-3.289738
H	0.945811	1.258344	-2.388862
Cl	-3.576148	0.0	0.0
