18

C	0.0	0.0	0.0
C	-0.285977	-0.048876	-1.508513
Br	2.126487	0.0	0.0
H	0.218395	-0.932615	-1.892236
N	-0.537366	1.088609	0.640546
H	-0.390898	1.980085	0.191498
H	-0.447124	1.091576	1.644995
N	-0.358372	-1.271201	0.570833
H	-1.344471	-1.21214	0.821341
H	0.194616	-1.458984	1.39609
N	0.343009	1.091995	-2.253344
O	0.916037	0.818916	-3.304968
O	0.19535	2.23425	-1.815687
C	-1.765819	-0.04833	-1.84228
H	-2.270534	0.84252	-1.476022
H	-2.274946	-0.885557	-1.369262
H	-1.879307	-0.132893	-2.926672
Cl	-4.536352	0.0	0.0
