18

C	0.0	0.0	0.0
C	-0.330827	-0.228366	-1.492795
Br	2.054176	0.0	0.0
H	0.083931	-1.197022	-1.775044
N	-0.539989	1.17716	0.493196
H	-0.363509	1.30432	1.47815
H	-0.345147	1.990199	-0.070429
N	-0.406451	-1.068166	0.856546
H	-1.422897	-1.045448	0.922315
H	-0.087716	-1.96536	0.514955
N	0.377986	0.737868	-2.394386
O	0.275591	1.939433	-2.144577
O	0.967851	0.274236	-3.367435
C	-1.811384	-0.130006	-1.805691
H	-2.410778	-0.802245	-1.194329
H	-2.197924	0.863572	-1.592246
H	-1.971212	-0.373695	-2.860652
Cl	-4.611616	0.0	0.0
