15

C	-0.533355	-0.034819	-1.418184
C	0.0	0.0	0.0
Br	0.07561	1.533981	-2.461095
H	1.092991	0.0	0.0
H	-0.300676	-0.957291	0.45377
C	-0.012843	-1.205886	-2.14791
N	0.250615	-2.186684	-2.741717
N	-1.987407	0.001434	-1.44855
H	-2.318215	-0.150703	-2.395901
H	-2.325226	-0.758138	-0.864571
C	-0.514702	1.166575	0.829926
H	-1.601583	1.174845	0.942775
H	-0.05098	1.112476	1.818561
H	-0.207489	2.112999	0.381155
H	2.930194	0.0	0.0
