15

C	-0.526706	-0.006057	-1.421517
C	0.0	0.0	0.0
Br	0.060782	1.598797	-2.421301
H	1.093009	0.0	0.0
H	-0.301575	-0.967619	0.430759
C	0.016902	-1.148963	-2.17858
N	0.297397	-2.11024	-2.79545
N	-1.981283	0.005216	-1.459106
H	-2.303615	-0.12242	-2.413187
H	-2.308359	-0.779555	-0.902635
C	-0.518832	1.147545	0.853109
H	-0.178122	2.101865	0.447473
H	-1.608552	1.1728	0.930512
H	-0.089744	1.051085	1.85427
H	2.931983	0.0	0.0
