15

C	-0.22001	-0.029142	-1.497742
C	0.0	0.0	0.0
Br	-2.118623	-0.588684	-1.951066
H	1.0976	0.0	0.0
H	-0.305774	-0.976649	0.39307
C	-0.090291	1.308377	-2.090434
N	0.016396	2.387494	-2.544141
N	0.681104	-0.932046	-2.180499
H	1.618679	-0.667125	-1.825934
H	0.513049	-1.85796	-1.795201
C	-0.621903	1.143863	0.772296
H	-0.352344	1.05971	1.828715
H	-1.714165	1.149748	0.693375
H	-0.242834	2.104299	0.41509
H	2.871407	0.0	0.0
