15

C	-0.539462	-0.008745	-1.412842
C	0.0	0.0	0.0
Br	0.117735	1.580727	-2.388156
H	1.09291	0.0	0.0
H	-0.349682	0.926493	0.466926
C	-0.056687	-1.173661	-2.178395
N	0.183289	-2.142817	-2.799828
N	-1.992446	0.075084	-1.441613
H	-2.322639	-0.012502	-2.397934
H	-2.358656	-0.707553	-0.908929
C	-0.445834	-1.220483	0.803842
H	0.105783	-1.218199	1.747633
H	-0.180606	-2.148041	0.288481
H	-1.516321	-1.237818	1.039449
H	2.925309	0.0	0.0
