15

C	-0.243099	0.269993	-1.483897
C	0.0	0.0	0.0
Br	-0.160133	-1.575461	-2.533583
H	1.093032	0.0	0.0
H	-0.311574	0.923715	0.504456
C	-1.601424	0.692451	-1.831556
N	-2.701492	1.058237	-2.030479
N	0.72818	1.161558	-1.920615
H	1.653573	0.916473	-1.527885
H	0.745317	1.312228	-2.91958
C	-0.649809	-1.211481	0.632059
H	-0.200583	-2.131861	0.260516
H	-1.728146	-1.251677	0.445344
H	-0.492973	-1.173855	1.713795
H	2.932333	0.0	0.0
