15

C	-0.490651	-0.042041	-1.45421
C	0.0	0.0	0.0
Br	-0.052806	1.641131	-2.344504
H	1.095216	0.0	0.0
H	-1.584391	-0.086957	-1.477617
C	0.145617	-1.192548	-2.215477
H	-0.156027	-1.181801	-3.264212
H	-0.161759	-2.145079	-1.77443
H	1.232553	-1.112444	-2.148963
C	-0.439013	-1.249445	0.645321
N	-0.851798	-2.209118	1.185157
N	-0.467522	1.167752	0.74107
H	-1.248042	0.936321	1.341582
H	0.296121	1.503323	1.31488
Br	3.490188	0.0	0.0
