15

C	-0.379974	-0.039811	-1.475163
C	0.0	0.0	0.0
Br	-2.345561	0.035776	-1.682824
H	1.100023	0.0	0.0
H	-0.104984	-1.01202	-1.886916
C	0.272375	1.089075	-2.242161
H	0.036561	1.026474	-3.30658
H	-0.06079	2.047221	-1.847314
H	1.354287	1.007176	-2.096622
C	-0.46398	-1.207262	0.701625
N	-0.833643	-2.169231	1.266754
N	-0.415808	1.242417	0.635527
H	-1.348646	1.160994	1.020997
H	0.237197	1.460289	1.379796
Br	3.475417	0.0	0.0
