15

C	-0.375652	0.049989	-1.476043
C	0.0	0.0	0.0
Br	-2.341952	0.121331	-1.686497
H	1.097576	0.0	0.0
H	-0.090357	-0.892549	-1.947437
C	0.269691	1.230304	-2.168639
H	1.351993	1.14832	-2.023253
H	0.039775	1.23089	-3.236063
H	-0.073564	2.160315	-1.717339
C	-0.463315	-1.247392	0.627852
N	-0.83143	-2.227142	1.162781
N	-0.422987	1.199824	0.709746
H	-1.359946	1.089775	1.076663
H	0.216907	1.360992	1.477647
Br	3.473839	0.0	0.0
