15

C	-0.516328	0.02881	-1.43905
C	0.0	0.0	0.0
Br	0.026205	-1.599326	-2.375503
H	1.093631	0.0	0.0
H	0.012625	0.842235	-1.937275
C	-2.019309	0.195812	-1.542078
H	-2.534646	-0.640045	-1.062382
H	-2.305357	1.129442	-1.052012
H	-2.335346	0.239074	-2.585923
C	-0.505771	-1.169977	0.731239
N	-0.97018	-2.037541	1.374303
N	-0.388383	1.26191	0.648318
H	0.36361	1.532052	1.273005
H	-1.232169	1.143304	1.196575
Br	3.481673	0.0	0.0
