15

C	-0.479802	-0.037422	-1.45415
C	0.0	0.0	0.0
Br	-0.072097	1.677208	-2.32647
H	1.10215	0.0	0.0
H	-1.570562	-0.096487	-1.479921
C	0.196156	-1.151525	-2.231732
H	-0.092846	-2.118325	-1.809441
H	-0.098081	-1.129617	-3.282319
H	1.28014	-1.045984	-2.1523
C	-0.460533	-1.24569	0.626994
N	-0.846576	-2.242042	1.114989
N	-0.582999	1.125546	0.745673
H	-0.159384	1.965593	0.363202
H	-0.235877	1.057211	1.697965
Br	3.526377	0.0	0.0
