15

C	-0.328902	0.012157	-1.497117
C	0.0	0.0	0.0
Br	-2.286729	0.065759	-1.790542
H	1.100514	0.0	0.0
H	-0.017564	-0.938214	-1.934691
C	0.329063	1.175707	-2.207714
H	1.404328	1.125619	-2.00859
H	0.151029	1.127955	-3.283328
H	-0.059022	2.125964	-1.836625
C	-0.48821	-1.235844	0.62092
N	-0.900714	-2.228166	1.093868
N	-0.432872	1.152259	0.770782
H	0.241686	1.897477	0.65725
H	-1.349214	1.464399	0.46968
Br	3.481153	0.0	0.0
