15

C	-0.485979	-0.045132	-1.454368
C	0.0	0.0	0.0
Br	-0.050619	1.633554	-2.350929
H	1.09528	0.0	0.0
H	-1.577905	-0.091166	-1.483146
C	0.151957	-1.198933	-2.210852
H	1.239166	-1.118389	-2.140801
H	-0.157381	-2.149762	-1.768583
H	-0.146938	-1.1902	-3.260549
C	-0.443888	-1.249767	0.645317
N	-0.891013	-2.208108	1.160297
N	-0.460433	1.170609	0.736095
H	0.27852	1.46654	1.361673
H	-1.287543	0.96396	1.280452
Br	3.486752	0.0	0.0
