15

C	-0.315523	0.181156	-1.490186
C	0.0	0.0	0.0
Br	-2.267598	0.326607	-1.788746
H	1.09108	0.0	0.0
H	-0.029606	-0.727349	-2.024058
C	0.38749	1.391043	-2.069244
H	0.217759	1.465149	-3.145014
H	1.459198	1.282325	-1.870165
H	0.030279	2.309911	-1.600071
C	-0.503306	-1.292934	0.476161
N	-0.9266	-2.328571	0.833553
N	-0.42658	1.067685	0.888774
H	-1.312484	1.456606	0.589742
H	0.282321	1.788248	0.898299
Br	3.477269	0.0	0.0
