15

C	-0.484307	-0.027866	-1.452434
C	0.0	0.0	0.0
Br	-0.055381	1.68378	-2.321766
H	1.09514	0.0	0.0
H	-1.576291	-0.071743	-1.474054
C	0.17204	-1.151073	-2.23528
H	-0.135047	-2.114598	-1.816997
H	1.258688	-1.065737	-2.156115
H	-0.122904	-1.118858	-3.285734
C	-0.46518	-1.245586	0.623204
N	-0.863151	-2.234917	1.115178
N	-0.578639	1.125445	0.751862
H	-0.220476	1.05702	1.699734
H	-0.158566	1.965163	0.364776
Br	3.52407	0.0	0.0
