12

C	0.0	0.0	0.0
C	-0.346875	-0.01847	-1.508486
F	1.375732	0.0	0.0
H	-1.438264	-0.05307	-1.564695
H	0.028469	0.915111	-1.937926
C	-0.453204	1.255241	0.617632
N	-0.382359	2.33289	1.100601
C	-0.534489	-1.155471	0.737788
N	-0.599082	-2.092759	1.455194
C	0.27615	-1.145525	-2.188591
N	0.748512	-2.041455	-2.783173
H	-2.339468	0.0	0.0
