12

C	0.0	0.0	0.0
C	-0.362775	0.03492	-1.497778
F	1.375943	0.0	0.0
H	0.078126	0.947303	-1.910798
H	-1.454008	0.063756	-1.528489
C	-0.474365	1.228098	0.692157
N	-0.56977	2.165723	1.396878
C	-0.562617	-1.125122	0.755342
N	-0.616098	-2.038602	1.525352
C	0.195016	-1.121456	-2.201034
N	0.659265	-2.012081	-2.791427
H	-2.415397	0.0	0.0
