12

C	0.0	0.0	0.0
C	-0.440473	0.04221	-1.466092
F	1.375553	0.0	0.0
H	-1.548906	0.091968	-1.366208
H	-0.138726	-0.893672	-1.941582
C	-0.471291	1.145936	0.797883
N	-0.603022	1.967171	1.632399
C	-0.431272	-1.251928	0.655646
N	-0.671979	-2.185562	1.329453
C	0.161889	1.159003	-2.170977
N	0.626802	2.054798	-2.772741
H	-2.558231	0.0	0.0
