12

C	0.0	0.0	0.0
C	-0.382471	-0.043446	-1.495333
F	1.375607	0.0	0.0
H	0.020441	-0.970174	-1.907826
H	-1.483397	-0.044852	-1.481729
C	-0.511369	1.180272	0.71057
N	-0.638637	2.041039	1.508492
C	-0.457031	-1.219869	0.710606
N	-0.76386	-2.16996	1.335344
C	0.197275	1.085868	-2.207739
N	0.629258	2.001246	-2.802983
H	-2.463741	0.0	0.0
