12

C	0.0	0.0	0.0
C	-0.489327	-0.044925	-1.447782
F	1.375581	0.0	0.0
H	-0.264092	0.913897	-1.914942
H	-1.596898	-0.129369	-1.285042
C	-0.493282	1.2225	0.649977
N	-0.540407	2.279317	1.167842
C	-0.479661	-1.151367	0.773156
N	-0.623476	-2.065033	1.494211
C	0.082045	-1.15604	-2.18591
N	0.492134	-2.076935	-2.789027
H	-2.63001	0.0	0.0
