15

C	-0.594389	-0.004013	-1.409039
C	0.0	0.0	0.0
Br	0.041621	-1.626641	-2.337986
H	1.097172	0.0	0.0
H	-0.352688	-0.908953	0.502443
C	-2.119038	-0.034198	-1.404801
H	-2.468262	0.848398	-0.865084
H	-2.522695	-0.033551	-2.419752
H	-2.456722	-0.936376	-0.889111
C	-0.138448	1.152655	-2.181979
N	0.146411	2.10191	-2.813219
N	-0.452514	1.224233	0.681889
H	-0.899601	0.991696	1.556001
H	0.389301	1.746768	0.907463
H	2.907526	0.0	0.0
