15

C	-0.468811	-0.050539	-1.458063
C	0.0	0.0	0.0
Br	-0.102387	1.705921	-2.287922
H	1.093297	0.0	0.0
H	-0.377579	0.909621	0.480522
C	0.288932	-1.125012	-2.22411
H	1.358003	-0.930249	-2.103017
H	0.00892	-1.137618	-3.279632
H	0.052676	-2.086228	-1.763777
C	-1.918151	-0.238605	-1.541569
N	-3.081862	-0.403611	-1.583935
N	-0.42059	-1.238028	0.657019
H	0.370951	-1.590534	1.180937
H	-1.188653	-1.07961	1.292669
H	2.947983	0.0	0.0
