15

C	-0.394269	0.011903	-1.461791
C	0.0	0.0	0.0
Br	-2.376878	0.346827	-1.650704
H	1.095756	0.0	0.0
H	-0.317679	0.956312	0.436076
C	0.364161	1.102238	-2.199132
H	1.433203	0.915285	-2.023214
H	0.137692	1.105944	-3.267134
H	0.109402	2.074613	-1.771953
C	-0.178625	-1.291298	-2.085632
N	0.010648	-2.314819	-2.630155
N	-0.491403	-1.169743	0.707614
H	0.279932	-1.558704	1.236064
H	-1.238037	-0.93317	1.345069
H	2.882871	0.0	0.0
