15

C	-0.587565	0.003958	-1.411692
C	0.0	0.0	0.0
Br	0.0684	-1.574945	-2.403891
H	1.098022	0.0	0.0
H	-0.339958	0.931706	0.471059
C	-2.11153	-0.060827	-1.41151
H	-2.509139	-0.119573	-2.426419
H	-2.408795	-0.937075	-0.835999
H	-2.503371	0.838869	-0.925169
C	-0.143243	1.183822	-2.15277
N	0.136888	2.17184	-2.72343
N	-0.502555	-1.165284	0.7471
H	-0.682881	-0.877489	1.699048
H	0.273598	-1.816497	0.799275
H	2.918364	0.0	0.0
