15

C	-0.519526	0.033595	-1.441229
C	0.0	0.0	0.0
Br	0.220704	-1.519173	-2.415764
H	1.092626	0.0	0.0
H	-0.373358	-0.923476	0.459264
C	-2.041356	-0.072784	-1.543637
H	-2.368564	-0.991677	-1.053663
H	-2.367056	-0.087623	-2.58523
H	-2.511759	0.781239	-1.047711
C	-0.076513	1.240358	-2.139327
N	0.206121	2.237002	-2.695638
N	-0.38244	1.174019	0.778423
H	-1.248359	1.604028	0.484354
H	0.36752	1.848398	0.699932
H	2.897819	0.0	0.0
