14

C	0.0	0.0	0.0
C	-0.499838	0.005409	-1.451627
Cl	1.801961	0.0	0.0
H	-0.227227	-0.901893	-1.987078
H	-1.609895	0.104977	-1.316106
N	-0.512449	1.015527	0.862504
H	-1.542909	0.845877	0.785017
H	-0.328652	1.909637	0.417486
C	-0.35611	-1.32073	0.560523
N	-0.499639	-2.388608	1.029399
N	0.040943	1.125767	-2.230598
O	0.556938	0.868057	-3.32297
O	-0.070988	2.267633	-1.77221
H	-2.855928	0.0	0.0
