14

C	0.0	0.0	0.0
C	-0.505891	0.008349	-1.448569
Cl	1.801863	0.0	0.0
H	-0.211208	-0.885761	-1.994214
H	-1.619717	0.074882	-1.295092
N	-0.520378	1.006549	0.867219
H	-1.55041	0.819168	0.812166
H	-0.361141	1.901021	0.414471
C	-0.367964	-1.326911	0.542146
N	-0.553395	-2.393711	0.998102
N	-0.013667	1.151358	-2.226668
O	-0.113781	2.282747	-1.741434
O	0.448873	0.923183	-3.348988
H	-2.884038	0.0	0.0
