14

C	0.0	0.0	0.0
C	-0.506783	0.041538	-1.44139
Cl	1.791738	0.0	0.0
H	-1.609602	-0.014235	-1.334938
H	-0.06366	-0.761772	-2.027128
N	-0.564387	1.085471	0.718208
H	-0.357635	0.976412	1.707025
H	-1.604791	0.917594	0.583072
C	-0.33636	-1.355454	0.520297
N	-0.482657	-2.444509	0.940324
N	-0.14586	1.311577	-2.113373
O	-0.908937	2.267536	-1.991377
O	0.892711	1.320059	-2.78462
H	-2.905679	0.0	0.0
