14

C	0.0	0.0	0.0
C	-0.528543	0.074892	-1.428736
Cl	1.791886	0.0	0.0
H	-1.635367	0.064399	-1.289704
H	-0.147775	-0.75325	-2.02277
N	-0.55141	1.055851	0.772678
H	-0.346937	0.889492	1.753607
H	-1.590475	0.916253	0.633808
C	-0.341624	-1.36493	0.492779
N	-0.511243	-2.446258	0.923143
N	-0.118253	1.314986	-2.117985
O	0.785193	1.221253	-2.954737
O	-0.715796	2.35331	-1.851993
H	-2.919789	0.0	0.0
