14

C	0.0	0.0	0.0
C	-0.532042	-0.064449	-1.419017
Cl	1.785594	0.0	0.0
H	-1.639066	-0.17702	-1.262476
H	-0.274542	0.859822	-1.930234
N	-0.56088	1.202274	0.542166
H	-1.599144	1.001705	0.45114
H	-0.357668	1.228022	1.537461
C	-0.350771	-1.198988	0.806456
N	-0.509432	-2.074678	1.575681
N	-0.00264	-1.180568	-2.212006
O	0.526854	-0.912008	-3.294563
O	-0.154334	-2.320663	-1.772015
H	-2.883807	0.0	0.0
