14
Coordinates from ORCA-job run
  C   -0.49904961857374      0.26937835650521      0.00841329008599
  C   0.55050898839338     -0.70719793505518     -0.48670786030338
  H   -0.74819574663267      0.99195891041074     -0.77954095831915
  H   0.27443900315401     -1.17383206198116     -1.43134765874838
  H   0.75003086447253     -1.46661767704312      0.26781827465450
  N   -0.10396715909707      0.83797211332773      1.26920802772089
  H   0.52195285069673      1.61313108052417      1.09187162479088
  H   -0.92111484265404      1.18124288657300      1.75829707633639
  N   -1.78318038907600     -0.51207818377508      0.20235552908652
  O   -2.50013898902990     -0.20231029043087      1.14676025658814
  O   -2.04076456361648     -1.36138627767439     -0.64535639791353
  N   1.84346276149979      0.00412928801209     -0.72577517249800
  O   2.84887117928368     -0.69364664235800     -0.76261927254643
  O   1.80514566117977      1.22025643296487     -0.91437675893445
