14
Coordinates from ORCA-job run
  C   -0.57280456012412      0.29020069503754     -0.05552469520705
  C   0.53447674989944     -0.68399115541021     -0.45521556138390
  H   -0.78628041982114      0.97533928439253     -0.87412973632826
  H   0.70991230853405     -1.42046849996669      0.32727978070260
  H   0.32540380143595     -1.16056839577411     -1.41435076926507
  N   -0.36436011403739      1.01024227053173      1.15402962559419
  H   0.11848280780153      0.47292324732326      1.86020712324397
  H   0.09475952316821      1.89438585390235      0.99695030322959
  N   -1.80883480541032     -0.56764782643298      0.09403330622395
  O   -2.65105239526487     -0.51070041497340     -0.79707947200478
  O   -1.84596185690762     -1.28094045608676      1.09211175309766
  N   1.77952907420481      0.11454772041327     -0.60986356252349
  O   1.78188881771160      0.94858086597328     -1.51283183213846
  O   2.68584106880988     -0.08090318892981      0.19638373675904
