18

C	-0.44194	0.016782	-1.456803
C	0.0	0.0	0.0
F	0.275103	-0.863948	-2.197121
H	1.09413	0.0	0.0
N	-1.903256	-0.409762	-1.578168
O	-2.241812	-1.032859	-2.573655
O	-2.654224	-0.025448	-0.681248
C	-0.315828	1.387694	-2.074387
H	-0.973782	2.098913	-1.581632
H	0.718688	1.709799	-1.947585
H	-0.551204	1.306545	-3.138141
N	-0.413009	-1.314594	0.651309
O	-0.589915	-2.29228	-0.0713
O	-0.513029	-1.312527	1.875888
N	-0.425717	1.136856	0.739076
H	-1.385648	1.037116	1.041209
H	0.179572	1.251123	1.541193
Cl	3.249566	0.0	0.0
