18

C	-0.550453	-0.120891	-1.422561
C	0.0	0.0	0.0
F	-1.891334	-0.43909	-1.356938
H	1.088804	0.0	0.0
N	-0.481092	1.284545	-2.017004
O	0.644069	1.685449	-2.27964
O	-1.53301	1.885779	-2.195101
C	0.174885	-1.063795	-2.34857
H	-0.022815	-2.088829	-2.036595
H	-0.187451	-0.916707	-3.368992
H	1.248794	-0.873828	-2.289614
N	-0.415556	-1.296264	0.709793
O	0.066324	-2.346802	0.299128
O	-1.207851	-1.204096	1.644836
N	-0.490433	1.159718	0.647857
H	-1.43573	1.030483	0.979357
H	0.114856	1.396038	1.420495
Cl	3.269551	0.0	0.0
