18

C	-0.549752	-0.050275	-1.422098
C	0.0	0.0	0.0
F	-1.922384	-0.135619	-1.358742
H	1.088846	0.0	0.0
N	-0.233943	1.306463	-2.041898
O	-1.166605	2.069785	-2.257333
O	0.946887	1.500621	-2.29429
C	-0.004792	-1.117803	-2.332477
H	1.083358	-1.124182	-2.274564
H	-0.333261	-0.916586	-3.354973
H	-0.388442	-2.086273	-2.017108
N	-0.43255	-1.316442	0.658541
O	0.13829	-2.342028	0.299179
O	-1.329713	-1.265655	1.500806
N	-0.492346	1.141555	0.676941
H	-1.461377	1.026128	0.940786
H	0.072154	1.325781	1.494562
Cl	3.291895	0.0	0.0
