18

C	-0.515176	-0.069576	-1.442507
C	0.0	0.0	0.0
F	-1.887927	-0.162792	-1.423972
H	1.088123	0.0	0.0
N	-0.20624	1.293047	-2.055337
O	0.941771	1.459962	-2.447986
O	-1.113399	2.120894	-2.086901
C	0.072366	-1.140735	-2.318743
H	1.159192	-1.116361	-2.241789
H	-0.242878	-0.978499	-3.352206
H	-0.288555	-2.110027	-1.979152
N	-0.479345	-1.291854	0.643373
O	0.157082	-2.310299	0.378375
O	-1.484959	-1.245389	1.345245
N	-0.468199	1.108736	0.749466
H	0.23728	1.828413	0.791174
H	-1.361868	1.46621	0.448047
Cl	3.28711	0.0	0.0
