19

C	-0.427581	0.003243	-1.462302
C	0.0	0.0	0.0
Br	0.339202	-1.575253	-2.323692
H	1.091401	0.0	0.0
N	-1.939568	-0.163523	-1.652647
O	-2.450842	-1.179715	-1.193597
O	-2.556198	0.807855	-2.088488
C	0.046376	1.232434	-2.21075
H	1.127652	1.31382	-2.091555
H	-0.433293	2.125889	-1.811028
H	-0.200749	1.158148	-3.270479
C	-0.54532	-1.073604	0.91508
H	-0.316659	-2.060081	0.511378
H	-1.623158	-0.993071	1.059532
H	-0.043219	-0.97701	1.882709
N	-0.394691	1.3398	0.556418
O	0.503981	2.109671	0.886699
O	-1.601847	1.576194	0.668669
Cl	2.698117	0.0	0.0
