19

C	-0.395038	-0.001528	-1.481795
C	0.0	0.0	0.0
Br	0.273933	-1.63817	-2.300859
H	1.091407	0.0	0.0
N	-1.9132	-0.037703	-1.666361
O	-2.433021	0.924411	-2.225869
O	-2.513697	-1.012886	-1.230457
C	0.214895	1.181222	-2.202038
H	0.020364	1.124138	-3.272521
H	-0.207594	2.112882	-1.82354
H	1.290618	1.162097	-2.007457
C	-0.517305	-1.100729	0.904769
H	-1.599644	-1.072035	1.013341
H	-0.041062	-0.974937	1.880487
H	-0.215242	-2.069422	0.508624
N	-0.460776	1.318159	0.556384
O	0.379841	2.150736	0.878032
O	-1.683079	1.474771	0.648561
Cl	3.328431	0.0	0.0
