19

C	-0.49142	-0.001553	-1.445945
C	0.0	0.0	0.0
Br	0.351331	1.4717	-2.430442
H	1.088256	0.0	0.0
N	0.087926	-1.285343	-2.084219
O	1.27055	-1.521106	-1.910363
O	-0.694593	-1.998209	-2.716868
C	-1.981714	0.025041	-1.692172
H	-2.397371	0.934193	-1.264051
H	-2.450308	-0.841111	-1.2219
H	-2.180873	-0.012304	-2.761388
C	-0.556715	-1.153978	0.807942
H	-1.644323	-1.116315	0.9015
H	-0.257207	-2.104203	0.359585
H	-0.117319	-1.120021	1.808778
N	-0.411813	1.260942	0.698591
O	-1.623193	1.473308	0.868088
O	0.459188	2.108018	0.906965
Cl	2.878736	0.0	0.0
