19

C	-0.422628	0.007696	-1.46071
C	0.0	0.0	0.0
Br	-2.304276	0.499909	-1.663557
H	1.093682	0.0	0.0
N	0.420931	1.003694	-2.297234
O	-0.121569	1.873397	-2.963625
O	1.621219	0.781271	-2.24924
C	-0.201709	-1.338549	-2.13941
H	0.832719	-1.653523	-1.9842
H	-0.880869	-2.088224	-1.734618
H	-0.393854	-1.246502	-3.21149
C	-0.549333	-1.146219	0.811758
H	-0.124665	-2.086629	0.454871
H	-0.254347	-1.023965	1.854242
H	-1.640587	-1.19662	0.772046
N	-0.38854	1.313163	0.592835
O	-1.050131	1.330597	1.633968
O	0.074034	2.311222	0.036989
Cl	2.683815	0.0	0.0
