14

C	-0.428042	0.025613	-1.465871
C	0.0	0.0	0.0
F	-1.794587	0.294197	-1.564077
H	1.090683	0.0	0.0
H	0.106748	0.857489	-1.932836
C	-0.15472	-1.20146	-2.22414
N	0.011981	-2.15013	-2.894169
N	-0.539891	-1.267179	0.608827
O	0.120358	-2.290396	0.447148
O	-1.629974	-1.199556	1.175175
N	-0.454455	1.124826	0.745655
H	-1.35908	1.459067	0.446926
H	0.244804	1.852702	0.734852
Br	3.423741	0.0	0.0
