14

C	-0.528371	0.054136	-1.418166
C	0.0	0.0	0.0
F	-1.926555	0.06813	-1.377124
H	1.09616	0.0	0.0
H	-0.201278	1.013562	-1.82502
C	-0.115177	-1.010663	-2.341555
N	0.158926	-1.776702	-3.187652
N	-0.435147	-1.31426	0.643716
O	-0.991178	-1.258186	1.740172
O	-0.181352	-2.347119	0.032392
N	-0.454646	1.145349	0.710275
H	0.142922	1.295494	1.51053
H	-1.407728	1.02636	1.024142
Br	3.391154	0.0	0.0
