14

C	-0.539135	0.01361	-1.415638
C	0.0	0.0	0.0
F	-1.936599	0.046903	-1.362934
H	1.091398	0.0	0.0
H	-0.202994	0.95333	-1.858462
C	-0.148809	-1.090226	-2.302563
N	0.128886	-1.89058	-3.114354
N	-0.438875	-1.29286	0.681505
O	-1.055443	-1.202952	1.742505
O	-0.134202	-2.344084	0.128357
N	-0.446909	1.167346	0.680214
H	0.180057	1.360449	1.449166
H	-1.383903	1.044619	1.038363
Br	3.393449	0.0	0.0
