14

C	-0.426461	0.021415	-1.469689
C	0.0	0.0	0.0
F	-1.802894	0.266137	-1.569935
H	1.090695	0.0	0.0
H	0.095516	0.865663	-1.93694
C	-0.133474	-1.208179	-2.219324
N	0.119955	-2.170016	-2.843778
N	-0.549979	-1.267379	0.592121
O	-1.676533	-1.207396	1.086382
O	0.141725	-2.277799	0.486194
N	-0.464068	1.123347	0.74412
H	0.223937	1.864778	0.730457
H	-1.369962	1.454103	0.439592
Br	3.419851	0.0	0.0
