14

C	-0.536103	0.030324	-1.416674
C	0.0	0.0	0.0
F	-1.933197	0.07076	-1.367908
H	1.091411	0.0	0.0
H	-0.193616	0.973081	-1.848506
C	-0.150715	-1.066188	-2.314411
N	0.106266	-1.864966	-3.135053
N	-0.436007	-1.300303	0.668905
O	-1.028531	-1.221349	1.745377
O	-0.148049	-2.344952	0.09407
N	-0.447529	1.159782	0.692048
H	-1.389398	1.039597	1.038068
H	0.171581	1.336657	1.470885
Br	3.39072	0.0	0.0
