14

C	-0.581158	-0.000454	-1.405182
C	0.0	0.0	0.0
F	0.074455	-0.880188	-2.230113
H	1.097585	0.0	0.0
H	-1.635626	-0.286266	-1.359693
C	-0.487372	1.350671	-1.987244
N	-0.421663	2.417927	-2.472447
N	-0.432373	-1.239953	0.723026
O	-0.240494	-1.257116	1.937006
O	-0.929143	-2.160291	0.073292
N	-0.551294	1.13459	0.742159
H	0.025614	1.934807	0.501956
H	-0.35463	0.944336	1.720204
Br	3.370713	0.0	0.0
