18

C	0.0	0.0	0.0
C	-0.578005	0.01645	-1.409781
Br	1.956138	0.0	0.0
H	-1.678284	-0.209236	-1.165094
C	-0.454398	1.234235	0.775745
H	-0.034375	2.137089	0.331035
H	-0.119852	1.158983	1.811989
H	-1.552653	1.224099	0.726813
C	-0.377233	-1.193171	0.772799
N	-0.530416	-2.08919	1.518778
N	0.007069	-1.077595	-2.219676
O	0.403764	-0.831456	-3.364823
O	0.04569	-2.198518	-1.707485
C	-0.478173	1.344139	-2.123769
H	0.53873	1.747325	-2.113993
H	-0.781754	1.22003	-3.16205
H	-1.165257	2.045704	-1.649566
H	-2.959208	0.0	0.0
