18

C	0.0	0.0	0.0
C	-0.215388	0.003359	-1.568087
Br	1.967633	0.0	0.0
H	0.464477	-0.763636	-1.94109
C	-0.251545	1.294604	0.817956
H	0.075828	1.084209	1.841136
H	0.335374	2.123271	0.430684
H	-1.300831	1.565789	0.818279
C	-0.854513	-1.099398	0.508724
N	-0.900646	-2.186593	1.009452
N	0.302474	1.258371	-2.2106
O	1.166686	1.142072	-3.08043
O	-0.222299	2.32545	-1.893229
C	-1.562366	-0.244266	-2.234149
H	-2.270221	0.556647	-2.039866
H	-1.37487	-0.328773	-3.316743
H	-1.988884	-1.176746	-1.873634
H	-2.032535	0.0	0.0
