14
Coordinates from ORCA-job run
  C   0.90135460549305     -0.08860725176400      0.40198942907229
  C   -0.57800743358493      0.16591871698802      0.10610470816436
  Cl  1.15211737372558     -0.09752702123321      2.20323670415352
  H   -1.15141874838391     -0.61808188972545      0.62765270150200
  H   1.48342583043754      0.75516790475117      0.02928913647832
  N   1.34394506153377     -1.29396010267997     -0.22493921224165
  H   0.93373462036447     -2.09677734224155      0.23905064284203
  H   2.35006125874648     -1.38358525938351     -0.16815012704074
  N   -0.71770965449157      0.14935614735635     -1.34599866034952
  H   -0.26070237902844     -0.66850638651419     -1.73032743970422
  H   -1.69931447573614      0.13423408168552     -1.59506167286865
  N   -0.98979156657520      1.43836339500084      0.65624835785311
  H   -0.78259859948141      2.15310492939646     -0.03246817596850
  H   -1.98509589301928      1.44890007836351      0.83237360810765
