14
Coordinates from ORCA-job run
  C   0.92704967636195     -0.06552637625124      0.49829246801211
  C   -0.56994337982564      0.02603541798529      0.19769712017540
  Cl  1.23652053340211      0.22385427533894      2.23821463348797
  H   -1.05601462764237     -0.74071723583743      0.80706620722414
  H   1.44271141633062      0.76458678756193     -0.01125597372378
  N   1.39593543026250     -1.37638513021183      0.15208876219009
  H   1.03505290796759     -1.60254498608149     -0.76701549880623
  H   2.40628854256282     -1.41410931149516      0.15718733172172
  N   -0.74458836257355     -0.36268300185098     -1.20950879828279
  H   -0.53460417404063      0.43096647390664     -1.80606239343587
  H   -1.70883041096695     -0.62192568457174     -1.37853916079101
  N   -1.08795446769527      1.31621722485136      0.60044285092075
  H   -2.08767596895161      1.35874528988768      0.45065403094282
  H   -0.65294711519157      2.06148625676806      0.06873842036468
