15

C	0.0	0.0	0.0
C	-0.342349	0.199961	-1.511289
F	1.346433	0.0	0.0
H	0.581294	0.654243	-1.880616
C	-0.457911	1.140019	0.798485
N	-0.485971	2.14366	1.414949
N	-0.385434	-1.309066	0.685438
O	-0.331469	-1.26686	1.906587
O	-0.547405	-2.294877	-0.014935
C	-1.415511	1.102488	-1.914972
N	-1.879885	1.984119	-2.54552
N	-0.381614	-1.096363	-2.305698
O	0.715916	-1.624101	-2.455809
O	-1.445046	-1.47747	-2.762473
Br	-3.10077	0.0	0.0
