17
Coordinates from ORCA-job run
  C   -0.51303876678271     -0.18851461135385      0.40765293218383
  C   0.96450733047733     -0.45861866508883      0.07226586584289
  F   -0.67302742443239     -0.61599202816381      1.73354851765442
  H   1.11016671063689     -1.54125178028312      0.14458367230335
  C   -1.42069889834971     -1.03279989407487     -0.45960262582710
  H   -2.46186987629800     -0.85495516068558     -0.18293143005196
  H   -1.27634235051236     -0.78985944014614     -1.51165835785367
  H   -1.20196999946776     -2.09225792420810     -0.30702656736857
  C   -0.85572090991442      1.28548077212090      0.36075145819999
  H   -1.88063784301462      1.42530282094781      0.70925123658855
  H   -0.19344745158526      1.85898813064084      1.01301929968195
  H   -0.78749099016637      1.66996889161814     -0.65890488625670
  C   1.83883443525126      0.17360980385881      1.08110563051610
  N   2.56166642104890      0.72521008834913      1.82456169646341
  N   1.26314970808578     -0.04649562522107     -1.29488960949783
  H   2.12880766166174     -0.47407713582283     -1.60064811930945
  H   1.39811224336171      0.95726175751258     -1.33007871326922
