17
Coordinates from ORCA-job run
  C   -0.48232187297273      0.21780071821874     -0.08610733828815
  C   0.96047721767703     -0.29862499561784      0.05038063882961
  F   -0.42838187393586      1.23278752541491     -1.05947149022783
  H   0.94456534039060     -1.14237670534973      0.74901928590272
  C   -0.99026532580370      0.84647762925335      1.19400676235191
  H   -0.37390828648654      1.70033235273889      1.47740619837710
  H   -0.98612052943908      0.12088960928499      2.01102776277357
  H   -2.01402246576092      1.19424586520282      1.04574995245346
  C   -1.40044583376528     -0.86666764904470     -0.60930835254405
  H   -2.38862041559611     -0.44114079477455     -0.79503547050184
  H   -1.00499526486060     -1.28352488970164     -1.53355379241713
  H   -1.50034014628398     -1.66996819600306      0.12478730956493
  C   1.82669273347364      0.74649981315821      0.63616066000354
  N   2.55433307127101      1.56251098915005      1.06592048375671
  N   1.43888341198506     -0.77843558754437     -1.23860651528092
  H   1.46696538935552      0.00200168048213     -1.88451953872522
  H   2.37950485075194     -1.14280736486819     -1.14885655602840
