17
Coordinates from ORCA-job run
  C   -0.46322140088270      0.24958310491041     -0.10150378535764
  C   0.93828432755585     -0.35468599405871      0.09257921158044
  F   -0.28559292985670      1.33620546675698     -0.97826482726699
  H   0.82930673333067     -1.25228218589583      0.71139663041653
  C   -1.03527325801924      0.79862906512230      1.18820064097761
  H   -2.02959030896384      1.20740936614346      0.99912014176308
  H   -1.12209319106213      0.01054518987924      1.94052637018541
  H   -0.40404210976584      1.59565422704791      1.58334853955088
  C   -1.39152729891748     -0.73584667923627     -0.77979713846450
  H   -1.59330803910958     -1.58533330153525     -0.12263373715051
  H   -2.33720619297101     -0.23919690861444     -1.00544871975038
  H   -0.94523657407467     -1.10344675431274     -1.70189789665341
  C   1.80650402021399      0.58948014047834      0.82815968400249
  N   2.53736068492054      1.32627831455335      1.37864409615217
  N   1.48942359638205     -0.75066470297511     -1.19584202374905
  H   1.60439537467754      0.07861047735864     -1.76705747090107
  H   2.40181656654254     -1.17193882562228     -1.07052971533505
