15
Coordinates from ORCA-job run
  C   0.50736252156364      0.27615490267869     -0.08533360681987
  C   -0.67239005604689     -0.24157761413372      0.38176517556884
  N   1.41722624723200      0.85478375943832      0.88117192121625
  O   1.03449101946553      1.04027102284025      2.04821101805948
  O   2.55188332304060      1.13186508732807      0.48907720105959
  C   1.01012471225165      0.26826106028329     -1.49489932467881
  H   1.69497888404644     -0.56383459849103     -1.67189970155675
  H   0.19532970750837      0.19499634782438     -2.21076818789753
  H   1.55757910218132      1.19335060156405     -1.67323967651783
  N   -1.25767240855315     -0.13184450654063      1.58812114831696
  H   -2.06595977191199     -0.69709168078784      1.78358065923365
  H   -0.70941046837669      0.26835481068507      2.33231933690862
  N   -1.53420311178507     -0.99602262932254     -0.56443561974564
  O   -0.98269246630770     -1.67155431778435     -1.42925385113538
  O   -2.74764723430807     -0.92611224558202     -0.37341649201160
