15
Coordinates from ORCA-job run
  C   0.50477274446912      0.27405569082487     -0.10861968840850
  C   -0.63955151744031     -0.26454871099636      0.41963030398624
  N   1.49659848328173      0.78264531785573      0.81510236225513
  O   1.21353346189669      0.88867615670869      2.02002072290826
  O   2.59702794947944      1.08317216782027      0.34957734018465
  C   0.88792436177455      0.36143019329173     -1.55274932380338
  H   1.42857088221466      1.29389088265509     -1.71257999671476
  H   1.54745883948735     -0.45940222212076     -1.84279131868321
  H   0.01568035921945      0.34195665359476     -2.20113377594304
  N   -1.11628818706450     -0.24285673637654      1.67620127398690
  H   -0.51384500377634      0.11730050704514      2.39823517038260
  H   -1.93453931477195     -0.78474278135323      1.89361922929867
  N   -1.58722120170335     -0.94633705299344     -0.49973072307597
  O   -1.12018358824342     -1.56156838309205     -1.45437516256670
  O   -2.77893826882313     -0.88467168286390     -0.19940641380691
