15
Coordinates from ORCA-job run
  C   0.51356609513948      0.25096557179014     -0.03368636759461
  C   -0.72467209983395     -0.28224634935796      0.01896987709478
  N   0.67178111002388      1.69375790089403     -0.15579640361578
  O   -0.11728798699047      2.31467283964274     -0.86633720558158
  O   1.63114211278151      2.18043518365542      0.44439610988319
  C   1.78310180541625     -0.52283091524006      0.10610291440640
  H   2.14286184269000     -0.50426936166713      1.13765158187283
  H   2.56020551389073     -0.08831607483393     -0.52392217583473
  H   1.65111882718886     -1.56387769996016     -0.19677720278269
  N   -1.06560877705439     -1.60038381335808      0.19795357272411
  H   -1.94362028704380     -1.84492206024354     -0.23864020526880
  H   -0.33318337129384     -2.26826818596489      0.01638416378900
  N   -1.94208765723515      0.55695318967461      0.02224578412894
  O   -2.80072027656786      0.23973621139264     -0.79900857362839
  O   -2.02659685111126      1.43559356357618      0.86946413040733
