15
Coordinates from ORCA-job run
  C   0.50983744278014      0.28143110881914      0.02596649921946
  C   -0.70324461966171     -0.31060389016608      0.04458430349409
  N   0.61983479771930      1.73669163264846     -0.03768107941918
  O   1.48998835232255      2.25050880281973      0.66427788446758
  O   -0.11982276555049      2.33684342597658     -0.81571314155384
  C   1.78969657225251     -0.48225941920592     -0.02198403287249
  H   2.55169937930794      0.06161322927620      0.53650472798326
  H   1.66211354614914     -1.46590168161920      0.43478839784621
  H   2.14760339316748     -0.61199208657394     -1.04915282029773
  N   -0.93041158737176     -1.66199950724887     -0.03939867820911
  H   -1.90672244936887     -1.89012606111286     -0.15991870536513
  H   -0.33333757875873     -2.15558398862154     -0.68459149570031
  N   -1.94221121154986      0.45956827197916      0.29584518462727
  O   -2.95972266271202      0.03911967778177     -0.25577895211901
  O   -1.87630060872562      1.41269048524735      1.06225190789893
