15
Coordinates from ORCA-job run
  C   0.49794679343573      0.27655836545320     -0.11261635261006
  C   -0.70021408243820     -0.26762037554600      0.19518304227398
  N   0.62575401551366      1.72761443610997     -0.17777836931546
  O   1.47376175658900      2.17537660457186     -0.95034905847402
  O   -0.09655328331277      2.40660544169398      0.55161425045707
  C   1.73892519104231     -0.52762054467768     -0.31911152144230
  H   2.42377149400277      0.02991773125548     -0.95621784164726
  H   1.51570686828316     -1.47445812130828     -0.81808205300936
  H   2.24658880457989     -0.74163754110228      0.62705303178029
  N   -0.93316957646903     -1.56806150653244      0.53506451604104
  H   -1.83815982594963     -1.95123289443546      0.31208714507457
  H   -0.16347772590226     -2.21125912257039      0.45310204372870
  N   -1.94449554293741      0.53022473701358      0.22192693502552
  O   -2.19823650810239      1.18344179184753     -0.78477397289071
  O   -2.64814837833482      0.41315099822694      1.22089820500800
