15
Coordinates from ORCA-job run
  C   0.49572470144479      0.26758157689458     -0.14897266506134
  C   -0.69845896407585     -0.29563115156246      0.13176106275777
  N   0.63837820847763      1.72118639161392     -0.16259403044159
  O   1.34596120013444      2.19405184996287     -1.05130249952571
  O   0.08912747162745      2.36219811796551      0.73206789148885
  C   1.73948287334219     -0.52258222124610     -0.37788920548630
  H   1.49490352669496     -1.51946786812375     -0.75036222210147
  H   2.35061409809245     -0.01658941524760     -1.12550870634037
  H   2.33340632029853     -0.62081763142565      0.53717165491408
  N   -0.92721961767320     -1.63760956400519      0.30754035591039
  H   -0.20001892364177     -2.13486882634870      0.79749978454941
  H   -1.84895547268251     -1.83699853188471      0.66834398970423
  N   -1.94898878835359      0.49691630679729      0.14907353795659
  O   -2.05702342105999      1.40993936452258     -0.66004187320571
  O   -2.80693321262554      0.13169160208741      0.95321292488118
