15
Coordinates from ORCA-job run
  C   0.49043006163737      0.29441013270233      0.10846346464853
  C   -0.69484867364322     -0.32109826254549     -0.08748890645771
  N   0.63082033991188      1.72424037155682     -0.15695939809892
  O   1.30906898289172      2.36565905750935      0.64465499404602
  O   0.11138907937391      2.17456465119606     -1.17685783811912
  C   1.73076035148530     -0.42684836931939      0.51428301786030
  H   2.34993301178799     -0.69001190528725     -0.35006552770847
  H   1.48017541685588     -1.33815969974116      1.06108672071053
  H   2.31896556621796      0.21645897091662      1.16903880784418
  N   -0.91474399890473     -1.67389500894799     -0.00739711617486
  H   -1.82855805665775     -1.94463194570236     -0.34111672429718
  H   -0.17741111096838     -2.24902374093822     -0.38411302142812
  N   -1.94601462076761      0.44494974044025     -0.28881859459956
  O   -2.07207665055240      1.50185925572442      0.31697179964318
  O   -2.78688969866792     -0.07947324756397     -1.01968167786881
