15
Coordinates from ORCA-job run
  C   0.55281793415186      0.18059313500504     -0.02822012587585
  C   -0.72056459998244     -0.15764434428237      0.33481881888373
  N   1.38675435495208      0.83987318722304      0.95860525916146
  O   2.56891182509155      1.02069203050486      0.66427297082816
  O   0.89036723686996      1.18580810435773      2.04165696456668
  C   1.21720577994102     -0.07084705029545     -1.34513594718140
  H   1.83959923112542      0.78784331400327     -1.59448318489272
  H   0.49233693179951     -0.22580528584042     -2.14006197532588
  H   1.86541759269682     -0.94893664313654     -1.29905665115553
  N   -1.39814761712535      0.01693726429925      1.49181379800916
  H   -0.98717948054592      0.66739716606053      2.14302141703916
  H   -2.40279251724794     -0.01350469643420      1.41090553832260
  N   -1.55009704666128     -0.90275421282988     -0.64475475908800
  O   -1.01785007207068     -1.79655723063132     -1.29524815825833
  O   -2.73777955299460     -0.58309473800354     -0.69713396503324
