15
Coordinates from ORCA-job run
  C   0.50236820683171      0.29109828301687     -0.04232073088939
  C   -0.69810020167433     -0.32532327987367     -0.01003361809423
  N   0.58550944430566      1.74611860178701      0.05875568339018
  O   -0.12914697011018      2.30772121211390      0.88731743759937
  O   1.41107723010213      2.29911210505820     -0.66708919736129
  C   1.79916419096761     -0.44245675507219     -0.10089656934422
  H   2.50236109145891      0.12691952788529     -0.70915230908478
  H   1.66197821750445     -1.42344501369538     -0.56031389343113
  H   2.23884539863961     -0.57374924888151      0.89362414107608
  N   -0.89706007674168     -1.68277721377676      0.04272311759359
  H   -0.24962253876463     -2.18699519143487      0.62815788539193
  H   -1.85943662565153     -1.93269383924546      0.21896179673946
  N   -1.96426151405164      0.42598745487505     -0.16590457776119
  O   -2.93668740008616     -0.02549375804069      0.43974893686459
  O   -1.96398845272992      1.39597711528422     -0.91357810268895
