15
Coordinates from ORCA-job run
  C   0.53992209388559      0.13211783129510     -0.17312399098030
  C   -0.77198057664190     -0.23613079605509     -0.06799885473089
  N   1.11122326821979      0.23492603449151     -1.50237472079917
  O   2.32194179867042      0.44757718272131     -1.57863409741597
  O   0.37595058092551      0.10190475562610     -2.49274665506295
  C   1.48878566082126      0.43471940284751      0.94342462844142
  H   0.96520574332518      0.69049079302302      1.86084186258450
  H   2.12116235077071      1.27203016765481      0.65024665797152
  H   2.14058085964313     -0.41751106302870      1.14911340748093
  N   -1.69618261749147     -0.53565429795288     -1.00851162104609
  H   -1.45921701387731     -0.26828269503682     -1.95115989862592
  H   -2.65591237750832     -0.45120395124889     -0.71085964385494
  N   -1.33872684213792     -0.41551687653987      1.29178491981598
  O   -0.64933898497753     -0.97331263308583      2.13968293910851
  O   -2.49241394362713     -0.01615385471125      1.45031506711337
