15
Coordinates from ORCA-job run
  C   0.50141524573101      0.26219168266138     -0.04031690621484
  C   -0.69878603097383     -0.33988257300010      0.02072468822382
  N   0.65258553089514      1.71610025818248      0.08462392234749
  O   0.46485093824306      2.38294736696975     -0.92737226657668
  O   1.04240544763418      2.12085112446001      1.17508784409779
  C   1.80313367730430     -0.44079681392627     -0.20491256149571
  H   1.63306428857488     -1.48766970235338     -0.45003517608121
  H   2.39120598255701     -0.36809520159267      0.71413633882540
  H   2.37316848085915      0.03674285661522     -1.00694611416242
  N   -0.85641901749566     -1.72381926998318     -0.04064546213739
  H   -1.75407681080122     -1.96085153647981     -0.44300325287591
  H   -0.75298726356662     -2.16468688824545      0.86419138292856
  N   -1.94862256135306      0.46280980734843      0.07787199086493
  O   -1.88993676707316      1.60852656110560      0.50990514356529
  O   -2.96100114053517     -0.10236767176201     -0.33430957130911
