15
Coordinates from ORCA-job run
  C   0.51066497923920      0.27910110219291      0.03644289792899
  C   -0.70570375883151     -0.30607165170185      0.01883841838828
  N   0.62903021876906      1.73202764407024     -0.05710754225704
  O   1.48115898071025      2.25920873867355      0.65707350352373
  O   -0.08710804417845      2.31736405300919     -0.86786539883817
  C   1.78755630917998     -0.49025469709276      0.07131525322904
  H   2.19903681291561     -0.64206033627916     -0.93236408279199
  H   1.63211151177832     -1.46357777878634      0.54134038953507
  H   2.52120381528266      0.06268293901214      0.65815146220356
  N   -0.93940425374378     -1.65766947484002     -0.03578844925805
  H   -1.90935108690806     -1.88422015309989     -0.20145651392289
  H   -0.31117195156130     -2.17613518414684     -0.62972159333135
  N   -1.95029995102425      0.47623654722053      0.19472438930976
  O   -2.93949365711691      0.05687585768949     -0.40678629913638
  O   -1.91822992451082      1.43649239407883      0.95420356541742
