15
Coordinates from ORCA-job run
  C   0.50682229875549      0.27554989199667     -0.07801329723752
  C   -0.69129675871386     -0.29514679831385      0.16890914411050
  N   0.59276906647256      1.70014280040158     -0.39059371933555
  O   -0.24318153942678      2.17281712819633     -1.15901546010359
  O   1.53601302984632      2.31398280723417      0.10695185896560
  C   1.78444114712300     -0.49128847830548     -0.13432739908028
  H   2.58941911714822      0.12834471035142      0.26126276988691
  H   2.04479629327741     -0.77263381704496     -1.16038663908897
  H   1.71402553420840     -1.39528911028992      0.47395582669582
  N   -0.91637469086874     -1.63902671824066      0.33688554186590
  H   -0.38103103533520     -2.24056163698502     -0.26958109646050
  H   -1.89815532102010     -1.87470306133126      0.35266099989375
  N   -1.90341608522891      0.51666762816332      0.42158933396878
  O   -2.96799401788609      0.02749676416902      0.04273358032997
  O   -1.76683703835173      1.57364788999864      1.02496855558919
