15
Coordinates from ORCA-job run
  C   0.50258825859737      0.27185415506951     -0.04990077047485
  C   -0.71427404981299     -0.30207192086199      0.04915542913501
  N   0.61496166853488      1.72376719492427     -0.08112917389555
  O   -0.22927344783255      2.36600766919829     -0.70362733186670
  O   1.59232797479460      2.19799483230239      0.49938052331112
  C   1.79537587856780     -0.47611655926786     -0.05093147926870
  H   2.19464414170181     -0.57910188343657      0.96117129015762
  H   1.67545724694442     -1.47338408781588     -0.48109672118746
  H   2.53693406967109      0.05592445903211     -0.64741043477215
  N   -1.00257234386686     -1.63951692414919      0.16520996008199
  H   -0.25977545292439     -2.26965451596785     -0.09298866604388
  H   -1.89574029258872     -1.89016972652991     -0.23562230390884
  N   -1.95204223726142      0.49475270437076      0.18261627906493
  O   -2.00444382908498      1.32078518143740      1.08372679231860
  O   -2.85416758544008      0.19792942169452     -0.59855339265113
