15
Coordinates from ORCA-job run
  C   0.50479584886839      0.26478437439450     -0.06319671343759
  C   -0.71650743557290     -0.29447631590289      0.06193518100986
  N   0.62833327755025      1.71220185963405     -0.17105608495707
  O   1.60903782819162      2.20880325275632      0.38473487756672
  O   -0.21023001037972      2.32726028768236     -0.82781261920183
  C   1.79271955363695     -0.49041659044281     -0.02119305730209
  H   2.53541246822156     -0.00304604204600     -0.65348146549133
  H   1.66503822525029     -1.51280223779216     -0.38481372625730
  H   2.19500973252345     -0.52989642771133      0.99415857302158
  N   -1.01522109682200     -1.62198459573309      0.24565649431579
  H   -0.27899411663842     -2.27050904184594      0.01568704366775
  H   -1.91241224476342     -1.88442732158887     -0.13822959814753
  N   -1.94830437544043      0.51755918041675      0.15483042922172
  O   -2.85473280102120      0.18548219202953     -0.60720923437928
  O   -1.99294485360442      1.39146742614959      1.00998990037059
