15
Coordinates from ORCA-job run
  C   0.51156757300690      0.27805242545973      0.00456826542409
  C   -0.70284309826539     -0.30797403021856      0.06839556913342
  N   0.62372510756025      1.73207578425470     -0.08263011722248
  O   1.52943052174102      2.25130067554881      0.56870779171619
  O   -0.15222994949725      2.32613814836823     -0.82946313864320
  C   1.78827253636968     -0.48885685284220     -0.06794054569385
  H   2.55915692589391      0.05030210151542      0.48301412917971
  H   1.66633404899261     -1.47500546677205      0.38465878461226
  H   2.13161764576864     -0.61139672649862     -1.10077184625594
  N   -0.94051131860995     -1.65908933437778      0.01167474276141
  H   -1.92089873921681     -1.88157180512191     -0.08365034338174
  H   -0.36276377539100     -2.16596940903491     -0.64075695195291
  N   -1.93033087445347      0.47138193705128      0.34972422445356
  O   -2.96300007439828      0.05836476979132     -0.17865114750163
  O   -1.83952652950085      1.42224778287655      1.11612058337111
