15
Coordinates from ORCA-job run
  C   0.50209100991602      0.28401159296306     -0.07832621547206
  C   -0.70397451533333     -0.30909833224556      0.04709002546103
  N   0.64680989204748      1.71659901550348      0.16977370979728
  O   1.38788312457134      2.33269047763976     -0.59522044478844
  O   0.06586272670529      2.19408585773447      1.14309297067389
  C   1.75579645406905     -0.46260390728139     -0.38499346792001
  H   1.52817930112422     -1.38444183834921     -0.92410138301292
  H   2.31504530508968     -0.71049488261244      0.52349250563029
  H   2.39312094125821      0.15676121289389     -1.01657441781547
  N   -0.94223640225234     -1.65889177214080     -0.02226637625665
  H   -1.88201283411653     -1.90885957276101      0.24940088647079
  H   -0.24293132902774     -2.24079075938119      0.41184205023488
  N   -1.95335093877519      0.48091615128975      0.14430319353528
  O   -2.01777393415423      1.52686968237446     -0.48945953236981
  O   -2.85250880112192     -0.01475292562727      0.82394649583191
