15
Coordinates from ORCA-job run
  C   0.51132533939872      0.26945014564626     -0.07620098551721
  C   -0.70893380956412     -0.29912306220237      0.02468969156782
  N   0.64688678104251      1.72373976454595     -0.10268978379731
  O   -0.03550510224296      2.38053764072874      0.68195865467401
  O   1.47991579675107      2.18153460544186     -0.88406770154375
  C   1.77983884706319     -0.51444569384390     -0.07978417028607
  H   2.21442791118484     -0.58979785077673      0.92285721313860
  H   2.50391447052627     -0.01878753844727     -0.72663851363466
  H   1.60423196722685     -1.52063520785726     -0.46599425289663
  N   -0.95240510099828     -1.63919245511014      0.19723166643836
  H   -1.91989646018586     -1.83960170745043      0.40581738109877
  H   -0.31393893371523     -2.11239090346231      0.81750139820569
  N   -1.95121246944129      0.48022219862179     -0.17940377469486
  O   -2.92855305964882      0.11799798829890      0.47624158238961
  O   -1.93009617739687      1.38049207586691     -1.00951840514238
