15
Coordinates from ORCA-job run
  C   0.50753674886473      0.26108434463470     -0.05147556572984
  C   -0.71883886184400     -0.29252907493069      0.04576901258758
  N   0.63899063025147      1.70876827438153     -0.14422346286231
  O   -0.18779577900083      2.33382824365770     -0.80646846556780
  O   1.61435992205357      2.19600956954173      0.42892826406888
  C   1.79212541882181     -0.49818296914069      0.00965912132222
  H   2.18514707193284     -0.52635653365869      1.02891999218940
  H   2.54196148072522     -0.02043643695006     -0.62177862375539
  H   1.66449866930140     -1.52452624788138     -0.34212032419127
  N   -1.03013158398081     -1.61975433044159      0.21245624817774
  H   -1.92115854764475     -1.87120248041667     -0.19287352336614
  H   -0.29444617301975     -2.27043416301656     -0.01346930009706
  N   -1.94727077521837      0.52624199642571      0.12265290963755
  O   -2.00672916227479      1.38610284245734      0.99092557190381
  O   -2.83724905896772      0.21238696533762     -0.66590185431739
