15

C	0.0	0.0	0.0
C	-0.632346	0.042497	-1.367905
Cl	1.794033	0.0	0.0
H	-1.753609	-0.034775	-1.071613
H	-0.408753	0.980079	-1.874822
C	-0.464869	1.249247	0.754162
H	-0.067071	1.238647	1.770359
H	-1.559236	1.190953	0.742996
H	-0.096741	2.139257	0.236531
C	-0.398415	-1.183868	0.776611
N	-0.590037	-2.086594	1.502741
N	-0.228438	-1.036297	-2.278086
O	-0.245928	-0.781832	-3.485926
O	0.053563	-2.137436	-1.805254
F	-2.84108	0.0	0.0
