15

C	0.0	0.0	0.0
C	-0.51798	-0.26679	-1.428681
Cl	1.798727	0.0	0.0
H	0.326373	-0.374688	-2.117163
H	-1.142308	-1.149631	-1.433559
C	-0.377303	1.315424	0.698108
H	-1.466418	1.344922	0.684696
H	0.016604	1.26924	1.716468
H	0.076059	2.154559	0.176198
C	-0.402564	-1.130724	0.844053
N	-0.537096	-2.061028	1.548475
N	-1.367766	0.778222	-2.066141
O	-2.211456	0.369	-2.856103
O	-1.075773	1.960759	-1.908046
F	-2.509006	0.0	0.0
