15

C	0.0	0.0	0.0
C	-0.264038	-0.011518	-1.517769
Cl	1.7987	0.0	0.0
H	0.127666	-0.942306	-1.928027
H	0.275612	0.83457	-1.943643
C	-0.430646	1.269796	0.718971
H	-0.055129	1.247633	1.747065
H	-0.002604	2.132634	0.200796
H	-1.527468	1.240703	0.67399
C	-0.463761	-1.23101	0.638633
N	-0.750612	-2.288926	1.06261
N	-1.64785	0.113428	-2.073574
O	-2.168843	-0.916685	-2.487235
O	-2.038455	1.254602	-2.300796
F	-2.557558	0.0	0.0
