15

C	0.0	0.0	0.0
C	-0.621973	0.062032	-1.372824
Cl	1.793743	0.0	0.0
H	-0.387281	1.005112	-1.863401
H	-1.741717	-0.02079	-1.089877
C	-0.465908	1.239451	0.769852
H	-0.096785	2.135942	0.264199
H	-0.069549	1.214882	1.786249
H	-1.560007	1.180697	0.75555
C	-0.400488	-1.194397	0.759667
N	-0.573664	-2.097953	1.489492
N	-0.204593	-1.005601	-2.291363
O	-0.130583	-0.71751	-3.490233
O	-0.003106	-2.130766	-1.833866
F	-2.834287	0.0	0.0
