15

C	0.0	0.0	0.0
C	-0.565422	-0.009891	-1.404679
Cl	1.793845	0.0	0.0
H	-1.674606	-0.120018	-1.192366
H	-0.320686	0.921658	-1.912048
C	-0.47443	1.278284	0.689165
H	-0.075882	2.143519	0.151971
H	-1.569775	1.216331	0.640123
H	-0.11124	1.300512	1.718385
C	-0.420143	-1.161545	0.794926
N	-0.622148	-2.056512	1.528238
N	-0.022548	-1.090498	-2.248697
O	0.005308	-2.230034	-1.786898
O	0.356016	-0.788919	-3.385101
F	-2.793827	0.0	0.0
