15

C	0.0	0.0	0.0
C	-0.577628	-0.006623	-1.397846
Cl	1.793873	0.0	0.0
H	-0.335325	0.92422	-1.907947
H	-1.688708	-0.109867	-1.169505
C	-0.475694	1.275361	0.69577
H	-0.084748	2.143917	0.158407
H	-1.571019	1.212035	0.652513
H	-0.107887	1.296772	1.723262
C	-0.409684	-1.162875	0.799313
N	-0.606272	-2.055408	1.536787
N	-0.057312	-1.089733	-2.250838
O	-0.001441	-2.225105	-1.781496
O	0.268691	-0.795718	-3.404918
F	-2.8047	0.0	0.0
