16

C	-0.532218	0.010965	-1.415641
C	0.0	0.0	0.0
Cl	-0.009007	-1.52863	-2.158838
H	1.089521	0.0	0.0
H	-0.352872	-0.878648	0.537252
C	-2.030336	0.127822	-1.553029
H	-2.349916	1.103818	-1.189507
H	-2.33772	0.020406	-2.592673
H	-2.493546	-0.66011	-0.956204
N	0.130347	1.111434	-2.258331
O	1.31773	1.314769	-2.059183
O	-0.5725	1.66251	-3.10276
N	-0.506384	1.168513	0.740519
O	-0.497351	2.262395	0.132136
O	-0.437553	1.088122	1.983975
H	2.627832	0.0	0.0
