16

C	-0.560459	-0.042222	-1.406218
C	0.0	0.0	0.0
Cl	0.281582	-1.208056	-2.431687
H	1.086053	0.0	0.0
H	-0.30519	0.916596	0.497756
C	-2.061636	-0.268953	-1.505279
H	-2.384357	-0.162205	-2.543819
H	-2.283194	-1.276306	-1.160881
H	-2.579156	0.462329	-0.881364
N	-0.344919	1.372641	-2.00032
O	-0.73798	2.295894	-1.292557
O	0.0821	1.491358	-3.139708
N	-0.426008	-1.093182	0.842901
O	-0.704603	-2.194794	0.338194
O	-0.345312	-0.897286	2.064662
H	2.544791	0.0	0.0
