16

C	-0.549635	0.004824	-1.410513
C	0.0	0.0	0.0
Cl	0.162918	-1.32984	-2.34506
H	1.08605	0.0	0.0
H	-0.40392	0.845843	0.557586
C	-2.054057	-0.032081	-1.560049
H	-2.441089	-0.956514	-1.136175
H	-2.329192	0.037659	-2.612068
H	-2.48697	0.806193	-1.008051
N	-0.077098	1.31094	-2.072102
O	-0.435688	1.494119	-3.232568
O	0.65619	2.045264	-1.419769
N	-0.472024	-1.233621	0.684072
O	0.342588	-2.140311	0.838426
O	-1.591168	-1.18668	1.230962
H	2.729698	0.0	0.0
