16

C	-0.542403	0.009518	-1.414745
C	0.0	0.0	0.0
Cl	0.252945	-1.177771	-2.450862
H	1.086048	0.0	0.0
H	-0.302332	0.906678	0.518197
C	-2.050727	-0.14026	-1.532863
H	-2.326777	-1.136675	-1.194782
H	-2.537363	0.614266	-0.911878
H	-2.358076	-0.014311	-2.574145
N	-0.236584	1.422235	-1.971876
O	-0.634207	2.349651	-1.268537
O	0.287582	1.544505	-3.068738
N	-0.449737	-1.108828	0.808451
O	-0.751789	-2.189902	0.272382
O	-0.372522	-0.947524	2.036541
H	2.54523	0.0	0.0
