16

C	-0.434389	0.011698	-1.43626
C	0.0	0.0	0.0
Cl	0.239104	1.379643	-2.331875
H	1.088315	0.0	0.0
H	-0.306212	-0.924632	0.485497
C	0.051394	-1.275069	-2.082532
H	-0.426757	-2.131318	-1.601595
H	1.132214	-1.321844	-1.925701
H	-0.175338	-1.273498	-3.149859
N	-1.966271	0.030591	-1.565659
O	-2.558404	-0.646893	-0.728454
O	-2.490575	0.609121	-2.507246
N	-0.537849	1.084606	0.815818
O	-0.314471	1.010019	2.025414
O	-1.147407	2.011044	0.2725
H	2.650499	0.0	0.0
