16

C	-0.427896	-0.015495	-1.451694
C	0.0	0.0	0.0
Cl	0.009105	1.458282	-2.313093
H	1.088588	0.0	0.0
H	-0.380672	-0.907872	0.467654
C	0.226439	-1.20318	-2.122831
H	-0.028435	-1.228166	-3.182687
H	-0.091925	-2.127942	-1.644647
H	1.304005	-1.082164	-1.990841
N	-1.964739	-0.172131	-1.493751
O	-2.375596	-1.297532	-1.216101
O	-2.669074	0.802118	-1.72403
N	-0.57248	1.11927	0.755191
O	-0.052083	2.230306	0.636095
O	-1.544958	0.870528	1.484652
H	2.714123	0.0	0.0
