16

C	-0.63383	0.168621	-1.368172
C	0.0	0.0	0.0
Cl	-0.28499	-1.326584	-2.295548
H	1.08899	0.0	0.0
H	-0.317957	-0.946101	0.435056
C	-2.131464	0.379782	-1.335975
H	-2.585221	-0.452553	-0.79516
H	-2.537763	0.417735	-2.346573
H	-2.355289	1.317622	-0.829687
N	0.026201	1.302731	-2.164943
O	-0.704506	2.210498	-2.556785
O	1.231858	1.219389	-2.341028
N	-0.387892	1.048633	0.897426
O	-0.561388	0.76317	2.096589
O	-0.354559	2.215191	0.452381
H	2.503041	0.0	0.0
