17

C	0.0	0.0	0.0
C	-0.352436	0.039066	-1.558389
Br	1.944344	0.0	0.0
H	0.482707	-0.428085	-2.071646
N	-0.639352	0.94641	0.761845
H	-0.447908	0.788754	1.744847
H	-1.676978	0.763411	0.557534
N	-0.295262	-1.47989	0.46895
O	-0.1312	-2.38899	-0.338578
O	-0.628944	-1.618026	1.638274
N	-0.260194	1.504062	-1.949238
O	0.817472	1.899481	-2.40159
O	-1.265549	2.188971	-1.817939
N	-1.572439	-0.472833	-2.055928
H	-1.46423	-1.474402	-2.136374
H	-2.326031	-0.269777	-1.354791
F	-2.930038	0.0	0.0
