17

C	0.0	0.0	0.0
C	-0.431202	0.006822	-1.473606
Br	1.997794	0.0	0.0
H	-1.519795	-0.147397	-1.441353
N	-0.264726	1.130991	0.696586
H	-0.490084	1.950283	0.151951
H	0.070638	1.19984	1.643138
N	-0.410917	-1.263515	0.777164
O	-0.024429	-1.247194	1.955887
O	-1.005607	-2.185142	0.245488
N	0.177664	-1.139071	-2.295478
O	-0.257259	-1.156031	-3.467114
O	0.597992	-2.160817	-1.746083
N	-0.10157	1.261839	-2.082133
H	0.890879	1.339343	-2.274735
H	-0.618782	1.348217	-2.94511
F	-2.530899	0.0	0.0
