14

C	0.0	0.0	0.0
C	-0.451801	0.02995	-1.446596
Br	1.982607	0.0	0.0
H	-0.051341	0.902509	-1.968193
H	-0.133132	-0.88154	-1.95597
H	-1.550056	0.074123	-1.410068
C	-0.426481	1.270642	0.722562
H	-0.089954	1.251942	1.764079
H	-0.030115	2.169606	0.241161
H	-1.525469	1.262257	0.686682
N	-0.515586	-1.198076	0.604358
H	-1.542253	-1.099274	0.463722
H	-0.363973	-1.143636	1.608481
H	-3.205372	0.0	0.0
