13

C	0.0	0.0	0.0
C	-0.463229	0.046971	-1.441728
Br	1.93922	0.0	0.0
H	-0.012276	0.862705	-2.004689
H	-1.557449	0.144374	-1.379551
H	-0.207719	-0.908464	-1.908562
N	-0.332141	1.360857	0.668811
O	-0.395383	2.337464	-0.068834
O	-0.444905	1.380497	1.884156
N	-0.588079	-0.998737	0.800079
H	-0.427953	-1.893457	0.345281
H	-1.62544	-0.777155	0.701152
H	-3.026424	0.0	0.0
