14
Coordinates from ORCA-job run
  C   1.19059937219565      0.20728159235923      0.15029075050028
  C   -0.32393777033014      0.24389483121768      0.26660407167850
  F   1.71396722554961      1.34241826790958      0.73590029545637
  H   -0.60453518681331      0.39995325786446      1.30921971934429
  H   1.48497555164226      0.20506897572298     -0.90200815147585
  C   1.72102888451876     -0.98203493293726      0.82807004889863
  N   2.12118290188612     -1.94642512850602      1.36413175781606
  C   -1.00360773972802     -0.96857693736808     -0.34390148327187
  H   -0.73616838596613     -1.87115114382947      0.20732712838061
  H   -0.70951687548569     -1.08580854626818     -1.38850332045611
  H   -2.08684258719927     -0.84613296028957     -0.29623454679888
  N   -0.79565150109269      1.47299633386175     -0.45885726177709
  O   -0.37250464362176      1.63644427121099     -1.60037649534896
  O   -1.59698924555541      2.19207211905192      0.12833748705404
