14
Coordinates from ORCA-job run
  C   1.10831460694269      0.29566655677290      0.40741896269492
  C   -0.39479954948052      0.17713928385690      0.22070231628040
  F   1.37742995387283      1.39048496576356      1.20388926297773
  H   -0.88314665604458      0.17318931608720      1.19622555033894
  H   1.59355028630032      0.45457769392317     -0.55868426885234
  C   1.63698381733531     -0.91566062876326      1.04643879950560
  N   2.04166142253579     -1.89732512013583      1.54666798567978
  C   -0.80287291006049     -1.00591700644924     -0.63874383013997
  H   -0.30496616191964     -0.96326926640474     -1.60914899136640
  H   -0.54280115862510     -1.94219529493262     -0.14301146614622
  H   -1.88233128764846     -0.99045384828117     -0.79748479706578
  N   -0.85969650463534      1.43935444055226     -0.45031114907344
  O   -1.83572611196029      2.00051116334380      0.03584849584164
  O   -0.25059974661254      1.78389774466708     -1.45980687067486
