13

C	0.0	0.0	0.0
C	-0.496894	-0.090397	-1.426439
F	1.395662	0.0	0.0
H	-0.090041	-0.98111	-1.909929
H	-1.589486	-0.132359	-1.412971
H	-0.166666	0.797398	-1.971914
C	-0.497214	1.236817	0.716124
H	-0.166664	2.120417	0.163747
H	-1.589886	1.205956	0.747046
H	-0.091004	1.273773	1.729136
C	-0.363843	-1.220819	0.756069
N	-0.532376	-2.208028	1.368173
Br	-3.964024	0.0	0.0
