13

C	0.0	0.0	0.0
C	-0.493647	-0.010912	-1.431858
F	1.395945	0.0	0.0
H	-0.162362	0.906784	-1.92504
H	-0.084996	-0.87318	-1.962892
H	-1.58671	-0.0543	-1.424563
C	-0.493648	1.198463	0.783597
H	-0.085007	1.178765	1.79608
H	-1.586711	1.168866	0.816134
H	-0.162353	2.109622	0.278446
C	-0.367954	-1.259345	0.687451
N	-0.552069	-2.27711	1.243027
Br	-3.963616	0.0	0.0
