16

C	0.0	0.0	0.0
C	-0.556924	-0.368007	-1.374956
Br	1.955621	0.0	0.0
H	-1.647745	-0.401643	-1.2036
H	-0.299237	1.026991	0.21633
C	-0.482266	-0.938489	1.089144
H	-0.119987	-1.953533	0.908382
H	-1.575569	-0.92439	1.077383
H	-0.124321	-0.609851	2.06715
C	-0.112704	-1.697914	-1.790816
N	0.251161	-2.751359	-2.16311
C	-0.256118	0.666281	-2.459177
H	-0.672888	1.629628	-2.156323
H	-0.725108	0.37468	-3.401069
H	0.819116	0.772416	-2.618474
Cl	-3.712298	0.0	0.0
