16

C	0.0	0.0	0.0
C	-0.413066	0.333922	-1.448877
Br	1.957405	0.0	0.0
H	0.117123	-0.369099	-2.10387
H	-0.290112	0.819389	0.661304
C	-0.566933	-1.314877	0.489195
H	-0.302633	-2.128473	-0.191165
H	-1.656928	-1.230993	0.546334
H	-0.180914	-1.553835	1.481844
C	0.060696	1.675858	-1.810124
N	0.402085	2.755078	-2.123173
C	-1.919916	0.223991	-1.699426
H	-2.157397	0.617946	-2.690362
H	-2.247467	-0.813079	-1.659551
H	-2.522846	0.754404	-0.963742
Cl	-4.791441	0.0	0.0
