18

C	-0.008986	-0.031753	0.015818
C	-0.526487	-0.192218	-1.41899
F	1.407209	0.078942	-0.033742
H	-1.631548	-0.234076	-1.299568
N	-0.551474	1.18429	0.523451
H	-1.581535	1.146712	0.310059
H	-0.459802	1.185532	1.535102
C	-0.302839	-1.256559	0.863841
H	0.083916	-1.08833	1.873814
H	-1.387932	-1.380596	0.912417
H	0.164867	-2.156257	0.456551
C	-0.03253	-1.425005	-2.023245
N	0.357365	-2.407256	-2.538599
C	-0.187611	1.012002	-2.299818
H	-0.689563	1.889561	-1.896038
H	0.889573	1.189126	-2.309354
H	-0.533885	0.84107	-3.32266
H	-3.093551	0.614058	-0.231121
