16

C	0.0	0.0	0.0
C	-0.333726	0.120452	-1.491142
Cl	1.864593	0.0	0.0
H	0.142974	-0.719402	-2.010817
H	0.163238	1.023765	-1.861334
N	-0.439576	1.063713	0.854258
H	-0.213125	1.960512	0.443204
H	-1.451803	0.978301	0.929333
N	-0.507562	-1.19794	0.538333
H	-0.210732	-2.012213	0.02137
H	-0.275473	-1.283447	1.518489
C	-1.825294	0.159226	-1.790897
H	-2.355575	-0.708967	-1.405629
H	-1.974414	0.213714	-2.874151
H	-2.325697	1.016561	-1.343137
Cl	-4.802842	0.0	0.0
