16

C	0.0	0.0	0.0
C	-0.46509	0.008722	-1.448027
Cl	1.852749	0.0	0.0
H	-0.012583	-0.854194	-1.941615
H	-1.548628	-0.139743	-1.387068
N	-0.431892	1.181896	0.673998
H	-0.273678	1.111109	1.670469
H	0.025022	2.0107	0.318553
N	-0.454567	-1.203205	0.627082
H	-1.477552	-1.152043	0.584853
H	-0.180324	-1.206775	1.604172
C	-0.179911	1.297723	-2.204833
H	-0.773659	2.117402	-1.795227
H	0.880172	1.565716	-2.175549
H	-0.468322	1.185461	-3.253319
Cl	-3.817455	0.0	0.0
