16

C	0.0	0.0	0.0
C	-0.418311	-0.109837	-1.463559
Cl	1.866421	0.0	0.0
H	0.091006	0.688698	-2.014051
H	-1.495532	0.088496	-1.456832
N	-0.426315	1.203283	0.657819
H	-1.448477	1.149559	0.672435
H	-0.151836	2.004247	0.101433
N	-0.488762	-1.075475	0.759313
H	-0.16915	-1.976847	0.445078
H	-0.317885	-0.931913	1.743394
C	-0.150554	-1.461487	-2.115562
H	0.88888	-1.776077	-1.985865
H	-0.815203	-2.22008	-1.6957
H	-0.356506	-1.412596	-3.188444
Cl	-3.863478	0.0	0.0
