16

C	0.0	0.0	0.0
C	-0.391109	0.02425	-1.465691
Cl	1.958392	0.0	0.0
H	0.127766	0.85442	-1.95624
H	-1.470682	0.218752	-1.440369
N	-0.439385	1.14115	0.671414
H	-0.010011	1.263004	1.576425
H	-0.368983	1.979242	0.116002
N	-0.420642	-1.166491	0.657049
H	0.186946	-1.958973	0.540855
H	-0.733282	-1.021356	1.603123
C	-0.12339	-1.285838	-2.19004
H	-0.355758	-1.184389	-3.252901
H	-0.766338	-2.066689	-1.781791
H	0.922575	-1.59131	-2.100147
Cl	-4.083661	0.0	0.0
