16

C	0.0	0.0	0.0
C	-0.393692	-0.124977	-1.480209
Cl	1.863232	0.0	0.0
H	-1.470856	-0.323649	-1.475566
H	0.123098	-0.996465	-1.900177
N	-0.412223	1.18295	0.697797
H	-0.076643	2.008251	0.218166
H	-1.43536	1.168415	0.68259
N	-0.495062	-1.097313	0.7152
H	-0.220854	-1.0629	1.685819
H	-0.2853	-1.984854	0.286155
C	-0.109325	1.110008	-2.322371
H	0.937207	1.419003	-2.267465
H	-0.34897	0.910148	-3.369852
H	-0.744685	1.938041	-2.004242
Cl	-3.902082	0.0	0.0
