16

C	0.0	0.0	0.0
C	-0.446332	0.104789	-1.455613
Cl	1.863236	0.0	0.0
H	-0.001825	1.005394	-1.894329
H	-1.53084	0.246852	-1.384273
N	-0.455056	1.127184	0.714754
H	-0.165624	1.076498	1.681458
H	-0.171164	1.99675	0.288824
N	-0.445431	-1.151523	0.727264
H	-0.191795	-1.998593	0.235728
H	-1.467045	-1.069244	0.74692
C	-0.126949	-1.109848	-2.313399
H	-0.677132	-1.985933	-1.963952
H	0.94168	-1.339043	-2.315344
H	-0.439993	-0.931482	-3.345451
Cl	-3.808133	0.0	0.0
