16

C	0.0	0.0	0.0
C	-0.430326	0.205131	-1.456432
Cl	1.813119	0.0	0.0
H	0.046761	-0.576749	-2.053063
H	-1.510932	0.040635	-1.470625
N	-0.421737	1.021766	0.934902
H	-1.444012	0.991937	0.919589
H	-0.124059	1.936686	0.614952
N	-0.450402	-1.29679	0.420271
H	-0.291566	-1.356032	1.421395
H	-1.463012	-1.299432	0.279987
C	-0.12762	1.582947	-2.028276
H	0.931697	1.837884	-1.942158
H	-0.718072	2.351951	-1.524771
H	-0.398329	1.615593	-3.087128
Cl	-3.636759	0.0	0.0
