17

C	0.0	0.0	0.0
C	-0.437213	0.015643	-1.49525
F	1.392091	0.0	0.0
H	0.505673	0.16076	-2.040264
C	-0.398173	1.235083	0.700487
N	-0.510777	2.227381	1.318875
C	-0.416945	-1.208034	0.821375
H	-1.507957	-1.17648	0.862323
H	0.038964	-1.114469	1.810657
H	-0.037679	-2.118213	0.351037
C	-1.285057	1.156278	-1.855779
N	-1.839641	2.061762	-2.360593
C	-1.106493	-1.272177	-1.979135
H	-2.015283	-1.368774	-1.384224
H	-0.440483	-2.131408	-1.862137
H	-1.353956	-1.17449	-3.039443
F	-2.616025	0.0	0.0
