17

C	0.0	0.0	0.0
C	-0.241249	0.15437	-1.548203
F	1.389576	0.0	0.0
H	0.164855	-0.789418	-1.936773
C	-0.425752	1.208055	0.729986
N	-0.644551	2.192338	1.331347
C	-0.623566	-1.237641	0.572513
H	-0.318156	-2.109856	-0.013388
H	-0.309445	-1.368584	1.611505
H	-1.718441	-1.045339	0.501008
C	0.650044	1.212065	-2.052324
N	1.299799	2.077305	-2.51004
C	-1.638157	0.379513	-2.12746
H	-1.608405	0.117054	-3.19061
H	-2.397501	-0.152562	-1.532752
H	-1.915495	1.430051	-2.029912
F	-3.090222	0.0	0.0
