17

C	0.0	0.0	0.0
C	-0.567537	0.363419	-1.373628
F	1.389422	0.0	0.0
H	-1.654741	0.109003	-1.210136
C	-0.406134	1.016363	0.992863
N	-0.557915	1.845508	1.80975
C	-0.461351	-1.375745	0.443938
H	-1.554546	-1.319898	0.46494
H	-0.039498	-1.600689	1.425143
H	-0.100349	-2.116567	-0.274203
C	0.079415	-0.467804	-2.390859
N	0.621604	-1.117602	-3.205161
C	-0.437923	1.847907	-1.716563
H	0.578659	2.215799	-1.542909
H	-0.69517	2.021296	-2.763922
H	-1.13085	2.417579	-1.094828
F	-2.791721	0.0	0.0
