17

C	0.0	0.0	0.0
C	-0.4341	0.102843	-1.494371
F	1.392392	0.0	0.0
H	0.514096	0.256998	-2.028111
C	-0.402388	1.188183	0.775968
N	-0.510112	2.136877	1.459759
C	-0.416177	-1.258428	0.741946
H	-0.026069	-2.135448	0.219974
H	0.030742	-1.223184	1.739009
H	-1.507682	-1.235068	0.776873
C	-1.243753	1.288415	-1.790505
N	-1.762603	2.259541	-2.20202
C	-1.135043	-1.137535	-2.051215
H	-0.495818	-2.021168	-1.975311
H	-2.049424	-1.23511	-1.465322
H	-1.371225	-0.976625	-3.106884
F	-2.619842	0.0	0.0
