16

C	-0.434013	-0.142212	-1.45705
C	0.0	0.0	0.0
F	-1.831838	-0.284065	-1.499519
H	1.102047	0.0	0.0
C	-0.126422	1.098846	-2.190779
N	0.074006	2.039455	-2.863473
C	0.207851	-1.338675	-2.127359
H	-0.096473	-1.388971	-3.17425
H	-0.111696	-2.249265	-1.616742
H	1.294422	-1.246772	-2.05259
C	-0.451784	-1.184878	0.746635
N	-0.832494	-2.115647	1.354636
N	-0.463962	1.25422	0.56856
H	0.201253	1.564053	1.265506
H	-1.375675	1.154625	0.995018
Br	3.421786	0.0	0.0
