16

C	-0.44255	0.048268	-1.471295
C	0.0	0.0	0.0
F	-0.2412	-1.205912	-2.036302
H	1.099684	0.0	0.0
C	-1.893224	0.328533	-1.54852
N	-3.045011	0.55436	-1.5984
C	0.367522	1.069944	-2.239674
H	0.07421	1.059018	-3.291718
H	0.202454	2.059893	-1.816356
H	1.423291	0.808766	-2.132929
C	-0.502536	-1.214712	0.654338
N	-0.928409	-2.150329	1.223883
N	-0.414664	1.235454	0.655837
H	0.285687	1.489386	1.341354
H	-1.309072	1.127304	1.116958
Br	3.456247	0.0	0.0
