16

C	0.0	0.0	0.0
C	-0.527937	0.155668	-1.43789
Cl	1.798159	0.0	0.0
H	-1.596144	-0.099598	-1.392213
N	-0.48576	1.090207	0.788333
H	-1.489431	1.171269	0.591125
H	-0.391948	0.844288	1.768523
C	-0.343374	-1.319932	0.574729
N	-0.53111	-2.310089	1.180553
N	0.124327	-0.924866	-2.314981
O	0.853321	-0.54955	-3.232527
O	-0.14394	-2.093831	-2.054604
N	-0.339751	1.460907	-1.928523
H	0.639289	1.669317	-2.070304
H	-0.847452	1.59231	-2.791332
Br	-3.669098	0.0	0.0
