16

C	0.0	0.0	0.0
C	-0.530504	0.087594	-1.441647
Cl	1.797639	0.0	0.0
H	-1.599131	-0.167569	-1.386902
N	-0.480619	1.13001	0.736233
H	-0.385743	0.930102	1.726741
H	-1.485522	1.199951	0.538107
C	-0.346345	-1.290235	0.639345
N	-0.520428	-2.250522	1.295613
N	0.1243	-1.033703	-2.268474
O	-0.144481	-2.188821	-1.955057
O	0.852271	-0.700639	-3.203598
N	-0.343091	1.368272	-1.993134
H	0.637255	1.57391	-2.135991
H	-0.846142	1.458216	-2.864541
Br	-3.674861	0.0	0.0
