16

C	0.0	0.0	0.0
C	-0.535773	-0.116853	-1.435259
Cl	1.852107	0.0	0.0
H	-1.612459	-0.325981	-1.307087
N	-0.530404	1.151519	0.538565
H	-0.5648	1.953402	-0.067012
H	-0.49169	1.285789	1.531693
C	-0.319353	-1.151118	0.858257
N	-0.499681	-2.012827	1.635893
N	0.08529	-1.323268	-2.12534
O	-0.097501	-2.413231	-1.597861
O	0.716357	-1.130938	-3.164422
N	-0.322692	1.097556	-2.139577
H	-1.031776	1.21427	-2.849535
H	0.592086	1.095496	-2.57314
Br	-3.808064	0.0	0.0
