16

C	0.0	0.0	0.0
C	-0.513347	-0.181599	-1.448637
Cl	1.797786	0.0	0.0
H	-1.603437	-0.297224	-1.342685
N	-0.485723	1.210428	0.600955
H	-0.333885	1.976839	-0.044682
H	-1.500801	1.085032	0.706257
C	-0.386148	-1.117778	0.877647
N	-0.631524	-1.98976	1.625257
N	-0.055781	-1.486032	-2.095885
O	0.485612	-2.333958	-1.387913
O	-0.322088	-1.621516	-3.284479
N	-0.21718	0.900019	-2.318747
H	0.659304	1.357669	-2.11313
H	-0.984322	1.548378	-2.390312
Br	-3.643506	0.0	0.0
