17

C	-0.611687	0.018864	-1.400031
C	0.0	0.0	0.0
Br	0.167264	1.496715	-2.384923
H	1.088024	0.0	0.0
N	-0.172541	-1.234342	-2.199915
O	-0.911408	-1.553777	-3.128336
O	0.863083	-1.787003	-1.86955
N	-2.024418	0.164657	-1.380382
H	-2.361382	0.331744	-2.319949
H	-2.415125	-0.710536	-1.046804
N	-0.424868	-1.295149	0.706742
O	-1.200639	-2.076507	0.141717
O	0.00519	-1.446013	1.842675
N	-0.431856	1.139548	0.725927
H	0.119662	1.249885	1.56438
H	-1.425238	1.140926	0.908051
Cl	3.303433	0.0	0.0
