17

C	-0.432942	0.003178	-1.483987
C	0.0	0.0	0.0
Br	-2.367198	-0.166793	-1.666915
H	1.091672	0.0	0.0
N	-0.010557	1.40519	-1.975305
O	1.2076	1.53082	-2.057263
O	-0.841378	2.269772	-2.213845
N	0.181413	-0.908963	-2.392596
H	-0.133125	-1.850401	-2.196791
H	1.187266	-0.87318	-2.249234
N	-0.414069	-1.335094	0.542429
O	-1.337696	-1.382234	1.355181
O	0.257616	-2.302722	0.172617
N	-0.495539	1.036367	0.822037
H	0.065329	1.873057	0.744022
H	-1.480059	1.231755	0.697182
Cl	2.692875	0.0	0.0
