19

C	-0.418552	0.061245	-1.445086
C	0.0	0.0	0.0
Br	-2.402435	0.271103	-1.67426
H	1.093105	0.0	0.0
C	0.275895	1.216745	-2.134457
H	1.336652	1.169904	-1.859111
H	0.159759	1.142204	-3.216654
H	-0.154278	2.160257	-1.801501
N	-0.029529	-1.225882	-2.184399
O	-0.852461	-2.12045	-2.321231
O	1.132926	-1.248309	-2.575845
N	-0.421205	-1.244697	0.659496
O	-1.179831	-1.185715	1.637291
O	0.084214	-2.289552	0.235014
C	-0.400312	1.209706	0.813955
H	0.101446	2.091092	0.411768
H	-1.478576	1.366587	0.845269
H	-0.033625	1.067129	1.831314
H	2.551979	0.0	0.0
