19

C	-0.379497	0.025896	-1.47818
C	0.0	0.0	0.0
Br	0.165502	1.755625	-2.238317
H	1.09143	0.0	0.0
C	0.276536	-1.053138	-2.306837
H	1.349706	-0.984315	-2.104136
H	0.068684	-0.892384	-3.366968
H	-0.075372	-2.035173	-2.008574
N	-1.905946	-0.039625	-1.598478
O	-2.37826	-1.151715	-1.849546
O	-2.567602	0.96378	-1.350237
N	-0.391655	-1.312027	0.573125
O	-1.298273	-1.343073	1.423133
O	0.249033	-2.309483	0.219058
C	-0.504269	1.12521	0.873188
H	-1.589812	1.208512	0.893263
H	-0.146146	0.945498	1.888137
H	-0.068296	2.061542	0.5277
H	2.589956	0.0	0.0
