19

C	-0.530133	-0.053672	-1.422041
C	0.0	0.0	0.0
Br	0.605241	-1.120615	-2.640079
H	1.114529	0.0	0.0
C	-1.957556	-0.53679	-1.591084
H	-1.994044	-1.586695	-1.313243
H	-2.276644	-0.418372	-2.628417
H	-2.621178	0.04248	-0.946539
N	-0.434463	1.387751	-1.947557
O	-1.487912	2.022561	-2.000984
O	0.66874	1.840199	-2.215845
N	-0.338235	-1.166878	0.744897
O	-0.35716	-1.085223	1.994064
O	-0.374397	-2.264519	0.140036
C	-0.306076	1.277803	0.757295
H	0.127583	1.173511	1.751373
H	-1.377507	1.482227	0.852261
H	0.190841	2.117243	0.267222
H	2.341067	0.0	0.0
