19

C	-0.494589	0.029924	-1.442767
C	0.0	0.0	0.0
Br	0.677363	-0.938041	-2.702537
H	1.094473	0.0	0.0
C	-1.911755	-0.457342	-1.666932
H	-2.593843	0.063631	-0.99299
H	-1.93832	-1.525301	-1.468647
H	-2.216684	-0.267609	-2.697197
N	-0.40338	1.497817	-1.876274
O	0.703284	1.979386	-2.075559
O	-1.464526	2.122479	-1.922328
N	-0.364815	-1.221503	0.652071
O	-0.340682	-2.277984	-0.018516
O	-0.489976	-1.21486	1.89705
C	-0.368727	1.215436	0.828075
H	0.090643	2.106635	0.398609
H	-1.449188	1.362421	0.920455
H	0.055429	1.072846	1.820653
H	2.374322	0.0	0.0
