19

C	-0.557106	-0.024606	-1.425884
C	0.0	0.0	0.0
Br	0.360755	-1.288896	-2.60122
H	1.08861	0.0	0.0
C	-2.045925	-0.300902	-1.504344
H	-2.231017	-1.324212	-1.178543
H	-2.592958	0.387108	-0.860387
H	-2.401053	-0.187273	-2.530264
N	-0.282145	1.371195	-1.99861
O	-1.215803	2.170304	-1.921326
O	0.835698	1.626368	-2.419194
N	-0.465593	-1.202393	0.697535
O	0.018133	-2.284962	0.340581
O	-1.284182	-1.087709	1.625808
C	-0.382793	1.248094	0.774669
H	0.161421	2.096412	0.355869
H	-0.026196	1.114405	1.797246
H	-1.45133	1.464706	0.800738
H	2.588512	0.0	0.0
