13

C	-0.455721	-0.024018	-1.427042
C	0.0	0.0	0.0
Br	-2.465062	-0.139271	-1.608102
H	1.093673	0.0	0.0
H	-0.322492	0.901723	0.51397
C	-0.09715	1.251368	-2.049867
N	0.191089	2.27734	-2.545294
C	0.091728	-1.113616	-2.236522
N	0.57103	-1.91571	-2.950223
N	-0.421881	-1.144966	0.756523
O	-0.560894	-2.223048	0.157966
O	-0.494344	-1.005946	1.985287
H	2.439667	0.0	0.0
