13

C	-0.451388	0.007247	-1.430793
C	0.0	0.0	0.0
Br	-2.458704	-0.101457	-1.617157
H	1.093663	0.0	0.0
H	-0.327079	0.890385	0.532309
C	-0.084216	1.294504	-2.024275
N	0.201443	2.332222	-2.496411
C	0.095686	-1.066839	-2.262067
N	0.524495	-1.853514	-3.023514
N	-0.424422	-1.161718	0.730271
O	-0.506675	-1.049012	1.962275
O	-0.552449	-2.228458	0.108513
H	2.442905	0.0	0.0
