13

C	-0.458239	-0.000385	-1.426682
C	0.0	0.0	0.0
Br	-2.469152	0.123377	-1.606463
H	1.093684	0.0	0.0
H	-0.322486	-0.893396	0.529903
C	0.091413	1.07215	-2.256602
N	0.571406	1.861152	-2.984172
C	-0.104486	-1.289052	-2.024176
N	0.182274	-2.326692	-2.496807
N	-0.421801	1.156537	0.738709
O	-0.552633	2.227404	0.124299
O	-0.49979	1.035095	1.970074
H	2.435354	0.0	0.0
