13

C	-0.457463	0.063823	-1.449263
C	0.0	0.0	0.0
Br	0.017643	-1.684904	-2.249548
H	1.090537	0.0	0.0
H	-0.355158	-0.899414	0.498565
C	-1.908852	0.19792	-1.581185
N	-3.080007	0.264803	-1.670002
C	0.211179	1.092863	-2.253413
N	0.673582	1.873	-3.001076
N	-0.439927	1.153868	0.737944
O	-0.674864	2.198242	0.100799
O	-0.427784	1.069308	1.973397
H	2.476896	0.0	0.0
