13

C	-0.45819	0.041855	-1.44917
C	0.0	0.0	0.0
Br	0.0045	-1.725283	-2.221666
H	1.090541	0.0	0.0
H	-0.353811	-0.893321	0.50913
C	-1.909116	0.18237	-1.578729
N	-3.079266	0.257081	-1.669315
C	0.21582	1.052615	-2.271903
N	0.713623	1.825303	-3.004318
N	-0.449183	1.160695	0.720118
O	-0.672874	2.19823	0.070394
O	-0.459266	1.08928	1.955749
H	2.476349	0.0	0.0
