13

C	-0.452065	0.052363	-1.451066
C	0.0	0.0	0.0
Br	0.002567	-1.713207	-2.22796
H	1.09059	0.0	0.0
H	-0.355663	-0.895595	0.504435
C	-1.900009	0.20645	-1.590533
N	-3.068864	0.290544	-1.689268
C	0.233756	1.063285	-2.264162
N	0.711521	1.833848	-3.012473
N	-0.44379	1.158762	0.726364
O	-0.439253	1.085207	1.962101
O	-0.67511	2.198092	0.079607
H	2.476861	0.0	0.0
