13

C	-0.492018	-0.034857	-1.422342
C	0.0	0.0	0.0
Br	0.642752	1.077396	-2.673834
H	1.08839	0.0	0.0
H	-0.283842	-0.890327	0.558403
C	-0.37968	-1.405301	-1.921717
N	-0.31639	-2.51745	-2.298851
C	-1.867995	0.417737	-1.606187
N	-3.001062	0.689548	-1.770522
N	-0.433225	1.162983	0.722865
O	-0.404559	1.08859	1.961254
O	-0.648736	2.205907	0.083146
H	2.400554	0.0	0.0
