18

C	-0.300658	0.032511	-1.516689
C	0.0	0.0	0.0
Br	-2.263571	0.26013	-1.850763
H	1.09927	0.0	0.0
C	0.447333	1.133748	-2.253101
H	0.313984	1.041739	-3.332351
H	1.506706	1.041681	-1.994837
H	0.081627	2.108145	-1.933843
C	0.016124	-1.269021	-2.101396
N	0.271735	-2.318008	-2.566671
N	-0.469952	-1.185812	0.688986
H	-1.435294	-1.381231	0.443423
H	0.099864	-1.98324	0.432172
C	-0.470429	1.243969	0.734824
H	-0.097432	2.162701	0.277942
H	-0.076075	1.184986	1.750145
H	-1.562563	1.288436	0.786398
Br	3.576985	0.0	0.0
