18

C	-0.435336	-0.056099	-1.482402
C	0.0	0.0	0.0
Br	-0.02764	1.645141	-2.403689
H	1.096199	0.0	0.0
C	0.308411	-1.164414	-2.218858
H	0.0367	-1.183947	-3.275353
H	0.051705	-2.114102	-1.748534
H	1.38088	-0.985584	-2.108081
C	-1.885596	-0.221355	-1.569806
N	-3.049994	-0.381285	-1.617391
N	-0.425407	-1.279462	0.581084
H	-1.273183	-1.157856	1.118772
H	0.304867	-1.614064	1.195206
C	-0.528337	1.198337	0.77163
H	-0.198065	1.108785	1.809721
H	-0.14735	2.14069	0.37959
H	-1.625173	1.225908	0.755858
Br	3.580434	0.0	0.0
