18

C	-0.364257	0.02928	-1.486105
C	0.0	0.0	0.0
Br	-2.356715	0.092587	-1.710725
H	1.098858	0.0	0.0
C	0.241542	1.214155	-2.224664
H	-0.193358	2.147024	-1.867068
H	1.31787	1.2095	-2.023939
H	0.062343	1.133466	-3.29802
C	0.038907	-1.220104	-2.128814
N	0.401333	-2.186258	-2.69183
N	-0.455434	-1.25035	0.588502
H	-1.363008	-1.129355	1.024944
H	0.211064	-1.541485	1.294245
C	-0.437407	1.245317	0.763906
H	0.003806	2.157473	0.356927
H	-1.526953	1.348903	0.776349
H	-0.082304	1.147835	1.792482
Br	3.537303	0.0	0.0
