18

C	-0.473146	0.012312	-1.483236
C	0.0	0.0	0.0
Br	0.258883	-1.569099	-2.411502
H	1.095457	0.0	0.0
C	-1.991798	-0.024417	-1.655376
H	-2.254211	-0.050933	-2.713746
H	-2.405245	-0.915671	-1.180251
H	-2.436759	0.866622	-1.205658
C	0.03897	1.183866	-2.19033
N	0.342902	2.166592	-2.759441
N	-0.40303	-1.176023	0.752123
H	-1.374027	-1.419899	0.597792
H	0.179619	-1.960019	0.486384
C	-0.485195	1.252723	0.722288
H	0.022959	1.283418	1.686978
H	-0.238592	2.165788	0.175403
H	-1.564894	1.224071	0.908002
Br	3.579993	0.0	0.0
