18

C	-0.472174	-0.001746	-1.483491
C	0.0	0.0	0.0
Br	0.262484	-1.59124	-2.396698
H	1.095471	0.0	0.0
C	-1.990433	-0.042136	-1.656406
H	-2.404376	-0.928123	-1.171854
H	-2.436925	0.853515	-1.217241
H	-2.252142	-0.080637	-2.714721
C	0.040094	1.163415	-2.200888
N	0.368608	2.150434	-2.749422
N	-0.400694	-1.171446	0.759992
H	-1.364907	-1.431079	0.593392
H	0.196986	-1.950169	0.516173
C	-0.488717	1.257286	0.711951
H	-1.56778	1.224736	0.900041
H	0.020788	1.29911	1.6752
H	-0.247882	2.166689	0.156855
Br	3.579813	0.0	0.0
