13
Coordinates from ORCA-job run
  C   -0.82017551826007     -0.03578963905255     -0.14354559402420
  C   0.71131242117462     -0.15109120229089     -0.27009778739992
  Br  -1.66187818097877     -1.07761756471549     -1.62731907047068
  H   0.96937851461607     -1.21408951654745     -0.18088979955521
  H   -1.13203098171412      0.99445304474168     -0.32101054143630
  N   -1.22531318160689     -0.45214067990592      1.15183446678043
  H   -2.19222034690024     -0.21825602942045      1.33470727496202
  H   -1.10911891663453     -1.45219755838441      1.26799536068693
  N   1.42841887542459      0.58893270620851      0.75745543892230
  H   1.34939002720719      1.58501295807447      0.58563951964268
  H   0.99012958197471      0.39085452401322      1.64973123599122
  C   1.16067425641253      0.30829211343801     -1.58833484812351
  N   1.53143344928490      0.73363684384128     -2.61716565597576
