13
Coordinates from ORCA-job run
  C   -0.90146524692177     -0.36664874314742     -0.26891933696714
  C   0.60097878926751     -0.14254763020205     -0.46986089398646
  Br  -1.06107148188592     -2.32870109086766      0.34747097798942
  H   0.97934012018801     -0.93099978211015     -1.13329798185490
  H   -1.43546082626866     -0.39959746830643     -1.21699750717464
  N   -1.42814342223795      0.57453313841063      0.60377880378761
  H   -2.41549884918974      0.47627992740960      0.78541413894307
  H   -0.87880556654593      0.65578519025136      1.44939053887526
  N   1.25228554233025     -0.09783368466510      0.83724930047931
  H   1.34594524218844     -1.04484568461777      1.18589525461274
  H   2.17599512236210      0.30856991621128      0.75944497489859
  C   0.79160863861754      1.14392531225853     -1.15349845122066
  N   0.97429193809612      2.15208059937518     -1.72606981838220
