13
Coordinates from ORCA-job run
  C   -0.91836396290901     -0.35844026264399     -0.21660772007062
  C   0.57114080693513     -0.14483753158741     -0.50484182794917
  Br  -1.05734839385944     -2.32148635604801      0.40032924523021
  H   0.90368475339338     -0.93346071591909     -1.19225504181957
  H   -1.50708518818200     -0.38249818550283     -1.13197229861421
  N   -1.38557909640150      0.58285220303894      0.68914799395409
  H   -0.78757341206930      0.65639703932873      1.50177558663076
  H   -2.36139510870103      0.49185064519993      0.92794910178046
  N   1.29889068002470     -0.11097833767056      0.76183893829285
  H   1.40450040070180     -1.06055181143637      1.10031948610039
  H   2.22033289573065      0.28656177544433      0.63032223397313
  C   0.73174131815627      1.14286570314227     -1.19361322268276
  N   0.88905430718036      2.15172583465406     -1.77239247482559
