13
Coordinates from ORCA-job run
  C   -0.84608550336039     -0.45624850416740     -0.25432013094804
  C   0.65824795842869     -0.26649481398500     -0.49589411906430
  Br  -1.21411041423841     -2.30980097214767      0.18960299669858
  H   0.96989234581839     -0.93730242723981     -1.30244898724043
  H   -1.38223376525595     -0.28167103438565     -1.19386513609529
  N   -1.25502501504791      0.39335650402028      0.84882003454936
  H   -2.14963142856059      0.09444215637262      1.21492357674136
  H   -1.35327079011133      1.34745959334865      0.51510379274114
  N   1.40448758988750     -0.57399188735582      0.70267255288014
  H   1.01986001189334     -0.03736134764760      1.47115657432312
  H   2.38398473353914     -0.34882969555805      0.58808101821150
  C   0.82241938451415      1.12804489107302     -0.97510346836021
  N   0.94046489249338      2.24839753767244     -1.31072870443694
