13
Coordinates from ORCA-job run
  C   -0.93808760990567     -0.08826730462097     -0.25433903411378
  C   0.59000023796270     -0.20736752490142     -0.23079832899615
  Br  -1.62483953671247     -1.02797806551897     -1.82864831518256
  H   0.81556196910880     -1.27598734672816     -0.16759182358541
  H   -1.22450285973098      0.95742861169210     -0.42780910531110
  N   -1.44927667810056     -0.69531552800128      0.93637138565689
  H   -0.91359644904491     -0.34074012513771      1.72145664709841
  H   -2.43126986844439     -0.48729656235764      1.06048569869740
  N   1.08604502100649      0.44059867130086      0.98308550970281
  H   1.14106881187489      1.44345896292440      0.84416232125720
  H   2.01872510056508      0.11048090357863      1.19846585035140
  C   1.19618784972538      0.33596304257223     -1.45816378641681
  N   1.73298401169563      0.83402226519792     -2.37667701915830
