13
Coordinates from ORCA-job run
  C   -0.90625113786192     -0.28015258948043     -0.34615729121599
  C   0.61826241255064     -0.15824790396196     -0.44154166518223
  Br  -1.24593714970701     -2.25832446345636      0.12688365053148
  H   0.98125659324095     -0.93049351726737     -1.13207258589994
  H   -1.37861684543850     -0.21280179463453     -1.32465661458830
  N   -1.41906641552665      0.64241398105422      0.55441125659497
  H   -0.92157459349542      0.62842261854585      1.43512423673006
  H   -2.42064448871322      0.60871577436645      0.66937363508564
  N   1.18542899939539     -0.24435890219440      0.90225835179069
  H   1.18950233278268     -1.21572216847066      1.19139167590483
  H   2.13854066317522      0.09632538168320      0.90747982927633
  C   0.94417096213699      1.15005201336038     -1.02518774739404
  N   1.23492866746084      2.17517157045561     -1.51730673163350
