13
Coordinates from ORCA-job run
  C   -0.85713790341212     -0.45836480516533     -0.21102567702856
  C   0.63177536017016     -0.26233275210567     -0.53118054126500
  Br  -1.19569042330805     -2.31503399570521      0.24383258471325
  H   0.90142622349031     -0.92709415260693     -1.35763346376405
  H   -1.44304338666716     -0.28254167678851     -1.12031839392640
  N   -1.20994577731771      0.38438943965522      0.91622773642391
  H   -2.09000762775691      0.08877237181384      1.31837960162237
  H   -1.31583224493551      1.34224867490099      0.59486874177905
  N   1.44218193351019     -0.57526533769644      0.62395066328980
  H   2.41213583641201     -0.33907895620363      0.46063709664161
  H   1.09372631195432     -0.04897242314177      1.41656596962336
  C   0.76657081018240      1.13537763090849     -1.00982429426280
  N   0.86484088767806      2.25789598213495     -1.34448002384653
