13
Coordinates from ORCA-job run
  C   -0.74910615519650     -0.52100176616332      0.08167258969422
  C   0.61151235420032      0.07392994803765     -0.30237778282560
  Br  -0.83757768691436     -0.77720562328237      2.05501754178756
  H   0.55926157012102      0.17374161599779     -1.39817116707412
  H   -0.80967187234689     -1.53605111445711     -0.31606196647309
  N   -1.79763705920852      0.26556146294806     -0.45845039718706
  H   -1.83422053601858      1.18123028884815     -0.02456345352194
  H   -2.69558846129180     -0.18315678941740     -0.33552645072213
  N   1.71613917850657     -0.74321794995649      0.17188819458807
  H   1.71697873393889     -1.62816660314867     -0.32191766815535
  H   2.59708205889573     -0.28077408307590     -0.01594398696442
  C   0.72566343441616      1.43463658021227      0.23548236361850
  N   0.79716444089795      2.53847403345733      0.62795218323535
