13
Coordinates from ORCA-job run
  C   -0.90558610705615     -0.29691132244068     -0.36898099056264
  C   0.62536215709021     -0.19239155155193     -0.43885271405393
  Br  -1.35768212273724     -2.26235662312100     -0.26078885065259
  H   1.00046914712925     -0.98911562111164     -1.08455873467920
  H   -1.36226255295671      0.00887754853311     -1.30967378822137
  N   -1.38983528266327      0.47320502912678      0.70236673198221
  H   -1.05055341774003      0.10409538559903      1.58247275591603
  H   -2.39883419143608      0.52752709101821      0.71653275113818
  N   1.19271229228972     -0.34492654986756      0.89407723124685
  H   1.32713129344908      0.55856770621617      1.32934653830809
  H   2.08647155281827     -0.81403506846068      0.85325456542992
  C   0.97064593422777      1.09713571095246     -1.06706612569597
  N   1.25996129758520      2.12932826510773     -1.54712937015558
