13
Coordinates from ORCA-job run
  C   -0.87967744031438      0.10918970124808     -0.12290648449886
  C   0.61887528778565     -0.15470215769591     -0.30301155835003
  Br  -1.87600292197507     -0.86909637572498     -1.54752811175534
  H   0.78061394416949     -1.23964690630280     -0.18650979854226
  H   -1.08060327938139      1.16412897927196     -0.30575837513049
  N   -1.26649120553860     -0.24662100976156      1.19668060743764
  H   -1.28004286037539     -1.25277525094891      1.31630662386390
  H   -2.18041668294912      0.11837305401334      1.42910458447119
  N   1.31586776379555      0.68021509966042      0.66689092019389
  H   0.97689380219573      0.44534040986697      1.59149564258624
  H   2.31457228668347      0.52068010055067      0.61972669558951
  C   1.07081801580196      0.21124046543229     -1.65018443643158
  N   1.48659329010211      0.51267389039045     -2.70530630943382
