13
Coordinates from ORCA-job run
  C   -0.79173494120225     -0.40680011492178      0.20155206576888
  C   0.58169801690837      0.08604187107010     -0.26438104892370
  Br  -0.80559716725448     -0.73100666740627      2.11307366394508
  H   0.44782846124904      0.36256930262706     -1.32599461526887
  H   -0.96588489522460     -1.39479664780004     -0.24650886933326
  N   -1.78198205886237      0.59895172497752     -0.10719970812884
  H   -1.91666873584738      0.65097902301849     -1.11149576023073
  H   -2.66924023389878      0.36881304855233      0.32148901231526
  N   1.59944399696008     -0.93499235498386     -0.05915619709998
  H   1.48570605954085     -1.67433639379163     -0.74231225344945
  H   2.52397324535511     -0.54003949073388     -0.17601467504904
  C   0.96043242426012      1.31660213733971      0.43607167563026
  N   1.33202582801628      2.29801456205224      0.96087670982439
