13
Coordinates from ORCA-job run
  C   -0.79497239365009     -0.45208125158689      0.13722650136164
  C   0.54381525830381      0.07312563303176     -0.37749584682198
  Br  -0.65795244423336     -0.88005092726383      2.03717417625681
  H   0.38041590940932      0.31553845882863     -1.43629827953688
  H   -0.97219472023780     -1.41884529431831     -0.34655410255871
  N   -1.81250345172694      0.55481165117332     -0.03112763509723
  H   -1.97487684896307      0.70748216211574     -1.02135431787347
  H   -2.68340111913223      0.25807510554568      0.39118440000327
  N   1.55426205514511     -0.96942318246711     -0.32689807003599
  H   1.79362206865087     -1.16229464793691      0.63917300256947
  H   2.39560454301403     -0.65710569757766     -0.79640179248271
  C   0.91593305338791      1.32890990328780      0.30415877401452
  N   1.31224809003243      2.30285808716777      0.82721319020126
