13
Coordinates from ORCA-job run
  C   -0.70343311991189     -0.43146184288872      0.18906089545398
  C   0.60177043724676      0.14669950271313     -0.38403052772123
  Br  -0.51774349368524     -0.72742781197444      2.11092351658115
  H   0.41694216324380      0.28808678329278     -1.45902093208425
  H   -0.82908044609320     -1.44284881179723     -0.22124632444632
  N   -1.79063235969209      0.48037735553945     -0.03502513153765
  H   -1.88790208558617      0.67206075217020     -1.02633615731797
  H   -2.66353528422294      0.10388189275861      0.31225193483816
  N   1.78769824094315     -0.67901020752455     -0.26133824373506
  H   1.97717129830316     -0.86653440285351      0.71619631275061
  H   1.64791915861120     -1.56268557399008     -0.73627219978164
  C   0.86431593195974      1.47706861009855      0.18090481797126
  N   1.09650955888372      2.54279375445580      0.61293203902895
