13
Coordinates from ORCA-job run
  C   -0.79198500893107     -0.57897827460287      0.00303685270805
  C   0.56526241110660      0.12266234157572     -0.21567249052717
  Br  -0.83323664646934     -1.41064400355313      1.76040578090011
  H   0.48374380119069      0.56359591253641     -1.22569229136694
  H   -0.86389994360007     -1.39849567698799     -0.71847397614075
  N   -1.94608919181618      0.26189032241267     -0.14194681095513
  H   -2.02033219834019      0.61450049374206     -1.08884642646034
  H   -1.91911504943417      1.03738148906861      0.50975508305284
  N   1.68691470042476     -0.78664738588001     -0.06085775296901
  H   2.55908250261450     -0.30452215730667     -0.24106327967614
  H   1.60348075890677     -1.54758134778473     -0.72495009226674
  C   0.69722021812706      1.24942730701435      0.71519828775010
  N   0.77995364622064      2.17741097976559      1.42910711595111
