13
Coordinates from ORCA-job run
  C   -0.90836391658495     -0.27312467284843     -0.34624123130966
  C   0.61698092938483     -0.16332807969722     -0.44129590728338
  Br  -1.26384431293066     -2.24865278832750      0.12681005342544
  H   0.97412696491768     -0.93846171751645     -1.13166689846341
  H   -1.38020127456022     -0.20224802588173     -1.32474222978338
  N   -1.41426572827148      0.65346745657120      0.55418564676865
  H   -0.91734734596742      0.63575616012723      1.43510217509667
  H   -2.41613400463712      0.62745671441453      0.66862379818098
  N   1.18328326901305     -0.25374658241248      0.90260533056827
  H   2.13912631549258      0.07913237614096      0.90767608171112
  H   1.17944314860206     -1.22507180844841      1.19190358146551
  C   0.95353293521866      1.14214686500417     -1.02524955133499
  N   1.25266302032299      2.16467410287412     -1.51771084904182
