13
Coordinates from ORCA-job run
  C   -0.90797381002975      0.08571658898377     -0.12453310792638
  C   0.58080415162935     -0.26386417279516     -0.28698941203538
  Br  -1.88020663166649     -1.00854352415357     -1.52822992766476
  H   0.66723710216261     -1.35061403947299     -0.38556576543801
  H   -1.11469454018686      1.10318774394443     -0.45770939455987
  N   -1.34837088119559     -0.09470856114704      1.19317632110608
  H   -2.34055463510880      0.06541029445638      1.29827495431181
  H   -1.08332132077959     -0.98780989037076      1.58556451140575
  N   1.33225404673276      0.13459239980206      0.89627583270770
  H   1.15748215433159      1.10760585594707      1.11690803789982
  H   2.32458374329813      0.01993221446858      0.72530565362513
  C   1.07567696957617      0.33567259216008     -1.54265568506856
  N   1.53608365123647      0.85642249817715     -2.48982201836334
