13
Coordinates from ORCA-job run
  C   -1.00423147074583     -0.03603571160271     -0.23853358996540
  C   0.53320774348819     -0.20105926872844     -0.25807377201123
  Br  -1.77280399314708     -1.28555715149702     -1.52387463716361
  H   0.75972642508026     -1.25558776564271     -0.05617592657578
  H   -1.24306848214908      0.96846976133732     -0.59348928371852
  N   -1.60825994935885     -0.23216442191818      1.04414540578563
  H   -1.24619466092199      0.46958341647833      1.67956862559350
  H   -1.41296229860095     -1.15811979756215      1.40665158660770
  N   1.08343503833883      0.68104713911910      0.77730347999717
  H   1.48654247786703      0.13723865455600      1.52699030941136
  H   1.80116519499148      1.28892751828578      0.40854174480877
  C   1.08284487348858      0.13883000121030     -1.57322539652847
  N   1.53959910166941      0.48342762596438     -2.59882854624112
