13
Coordinates from ORCA-job run
  C   -0.77967757998019     -0.39583020980965      0.25504157564352
  C   0.58049803761887      0.06827630104971     -0.27590481579225
  Br  -0.78754697761778     -0.46436402765279      2.19230567643932
  H   0.43870808613184      0.19797772453421     -1.36417802316627
  H   -0.92666564595363     -1.43860767439575     -0.05873394349455
  N   -1.79661417857790      0.53307572613148     -0.18295589187052
  H   -2.67586208067829      0.34192427322816      0.28037706438244
  H   -1.93741158706653      0.43949893144729     -1.18370868131444
  N   1.62501590061229     -0.88897123733935      0.06015371904821
  H   2.53764297243131     -0.49564283019189     -0.13073497850573
  H   1.51927472845316     -1.72483698240634     -0.50236824261039
  C   0.92669689942294      1.38823699107341      0.25808304355702
  N   1.27394142520391      2.43726301433154      0.65262349768361
