13
Coordinates from ORCA-job run
  C   -0.82452004641626     -0.44765964255681     -0.08096101059531
  C   0.60145125757911      0.00504062136376     -0.38752598038704
  Br  -0.89600941004538     -1.00789188256277      1.86241531584500
  H   0.59657967998307      0.22275491618843     -1.46137291973043
  H   -1.00824304073329     -1.38058387804195     -0.61180847395633
  N   -1.76509238390572      0.53833948420915     -0.43214305971589
  H   -2.71571486820892      0.20278708405395     -0.35877308307333
  H   -1.66429995212954      1.38300741645040      0.11825878555801
  N   1.55693792950721     -1.05796704540077     -0.15019182121940
  H   2.46387880344728     -0.79675231075796     -0.51682646536785
  H   1.65194620098602     -1.22653362487447      0.84424510245571
  C   0.88294756278003      1.27787346680714      0.31081819020393
  N   1.12013826715639      2.28758539512189      0.86286541998295
