13
Coordinates from ORCA-job run
  C   -0.71102148722045     -0.47858547350984      0.06459306029057
  C   0.65204982122293      0.05994950342785     -0.41004030548656
  Br  -0.66148088401239     -0.61322758759383      2.08215503378330
  H   0.59256374619519      0.03230120924163     -1.50494265292697
  H   -0.80972088838384     -1.52052435105959     -0.24336265411705
  N   -1.77252766965639      0.28818223892063     -0.44773345939262
  H   -2.67668894668986     -0.12044665136267     -0.25536666535138
  H   -1.75521923023831      1.24485282845549     -0.11455628961882
  N   1.83943310950072     -0.66038798723133     -0.00676985232070
  H   1.88470530943704     -0.72292235140491      1.00319185516175
  H   1.82102171002280     -1.59867649241152     -0.38712756191733
  C   0.76587524575129      1.47531706488119     -0.02877771409756
  N   0.83001016407127      2.61416804964691      0.24773720599335
