13
Coordinates from ORCA-job run
  C   -0.95115908981584      0.05064622873454     -0.21086887744258
  C   0.53931331573700     -0.30584410890155     -0.24626113756570
  Br  -1.85038479668113     -0.82569932289046     -1.71272746855964
  H   0.59928111362661     -1.39360843027374     -0.14701319061224
  H   -1.07984960487816      1.12148707389897     -0.41672051347259
  N   -1.49237042387656     -0.42558074099216      1.02530177927640
  H   -2.42414968005189     -0.06397119826174      1.18026821450182
  H   -0.87223713340779     -0.12973970684100      1.77150958207422
  N   1.18770048859482      0.29932270222121      0.91723832803797
  H   1.39150621580338      1.27528597065024      0.73276303564443
  H   2.06701638348601     -0.16549526461815      1.10705141000693
  C   1.16241923983401      0.09285316427249     -1.51975578176330
  N   1.72491397162954      0.46934363300134     -2.47978538012574
