13
Coordinates from ORCA-job run
  C   -0.85607133546268     -0.44811185628175     -0.23531178359923
  C   0.63719038320148     -0.24900631641823     -0.53069257666281
  Br  -1.20686184091305     -2.31612398714747      0.15878888478488
  H   0.91641560555013     -0.89102890164989     -1.37174010060163
  H   -1.43005618557975     -0.24124841022731     -1.14550412643794
  N   -1.21937807810994      0.36292903081938      0.91228065267453
  H   -1.33312284708548      1.32732227881184      0.61481242029999
  H   -2.09761832992794      0.04956688115158      1.30503197131079
  N   1.43141032516711     -0.59663383983261      0.62545062253693
  H   1.08059835325135     -0.08418156504419      1.42607613256778
  H   2.40575781689796     -0.36851020665777      0.47737414504308
  C   0.78280778904494      1.16139624078286     -0.96776417212907
  N   0.88892834396589      2.29263065169356     -1.26880206978731
