13
Coordinates from ORCA-job run
  C   -0.85339903725677     -0.51915422285869     -0.03058066071109
  C   0.55113018786598      0.03799203883748     -0.32020865726335
  Br  -0.87321296095070     -1.23624940521897      1.79630065303356
  H   0.51072731669069      0.38417501933502     -1.36080783551589
  H   -0.99830625815765     -1.38134871068599     -0.68337898649134
  N   -1.93975707101843      0.39682805568104     -0.17963807683155
  H   -2.11031349551571      0.60416914800762     -1.15556571813441
  H   -1.79069869813693      1.25264121563192      0.34088309803175
  N   1.56043556189179     -0.99961365399201     -0.24380271750201
  H   1.67775817195967     -1.29579343467808      0.71806346892194
  H   2.45021482164100     -0.65037657376365     -0.57838512841414
  C   0.80056844154872      1.23036562725020      0.51815362290167
  N   1.01585301943835      2.17636489645412      1.18096693797488
