13
Coordinates from ORCA-job run
  C   -0.75031302620522     -0.52243248726950      0.05439761787899
  C   0.61055186803292      0.11725314431673     -0.32385675518824
  Br  -0.68391927950726     -1.06526932164263      1.93861318356817
  H   0.52972816900233      0.33915262453985     -1.39713989516222
  H   -0.85142160737114     -1.45342555273890     -0.50995836163788
  N   -1.91060605734976      0.28321626457388     -0.16233537877671
  H   -2.11291314979630      0.37697947012578     -1.14967135758125
  H   -1.81900818162597      1.19770383234133      0.26381541526866
  N   1.80984173418329     -0.67152855074152     -0.13174487745081
  H   1.88812407007226     -0.94761389086353      0.83995404135178
  H   1.76573043384123     -1.51016015831397     -0.69840662433466
  C   0.73829491221151      1.41058381055032      0.36270101072432
  N   0.78491011451211      2.44554081512213      0.91463198133986
