13

C	0.0	0.0	0.0
C	-0.520771	0.113544	-1.411261
Cl	1.85469	0.0	0.0
H	-0.266411	-0.808811	-1.958332
H	-0.254287	0.902788	0.550545
H	-1.608692	0.149613	-1.285613
N	-0.512539	-1.134118	0.645033
H	-0.263743	-1.99932	0.19058
H	-0.316512	-1.166182	1.632508
N	-0.054628	1.338185	-2.051061
H	0.866734	1.19946	-2.446492
H	-0.690329	1.581289	-2.79886
Br	-4.232561	0.0	0.0
