13

C	0.0	0.0	0.0
C	-0.52067	0.334724	-1.380504
Cl	1.872748	0.0	0.0
H	-0.096889	1.290071	-1.711694
H	-0.228506	0.797625	0.705761
H	-1.602776	0.444499	-1.242425
N	-0.515906	-1.218687	0.423256
H	-0.443621	-1.92225	-0.296852
H	-0.20923	-1.527227	1.330532
N	-0.263614	-0.776196	-2.295431
H	-1.021017	-0.852665	-2.95981
H	0.601145	-0.631112	-2.797948
Br	-4.232028	0.0	0.0
