13

C	0.0	0.0	0.0
C	-0.421022	-0.481255	-1.392832
Cl	1.842649	0.0	0.0
H	0.1408	0.093581	-2.134382
H	-0.273906	1.044069	0.152713
H	-0.079941	-1.521143	-1.486552
N	-0.565484	-0.790269	1.011726
H	-0.290856	-1.760353	0.952815
H	-0.437006	-0.429668	1.944451
N	-1.826762	-0.405485	-1.696176
H	-2.14545	0.553481	-1.749244
H	-2.411388	-0.819019	-0.975355
Br	-4.8649	0.0	0.0
