13

C	0.0	0.0	0.0
C	-0.491862	0.374242	-1.383641
Cl	1.872898	0.0	0.0
H	-0.053779	1.335977	-1.680268
H	-0.229831	0.783874	0.720814
H	-1.576303	0.483548	-1.270879
N	-0.533546	-1.21892	0.385733
H	-0.308866	-1.532413	1.314021
H	-0.449211	-1.923306	-0.330676
N	-0.213967	-0.71519	-2.317958
H	-0.926418	-0.743604	-3.031603
H	0.688229	-0.585099	-2.757057
Br	-4.263692	0.0	0.0
