13

C	0.0	0.0	0.0
C	-0.327259	0.194952	-1.50189
Cl	1.788738	0.0	0.0
H	0.207648	1.087173	-1.845858
H	-0.309281	0.877325	0.571351
H	0.126429	-0.655538	-2.027561
N	-0.556561	-1.1559	0.633226
H	-0.52001	-1.948833	0.002084
H	-1.537265	-0.958303	0.826474
N	-1.708323	0.30267	-1.9009
H	-2.181359	1.054769	-1.41514
H	-2.247665	-0.511741	-1.633711
Br	-4.395902	0.0	0.0
