13

C	0.0	0.0	0.0
C	-0.451863	0.324725	-1.421422
Cl	1.79808	0.0	0.0
H	0.067134	-0.35984	-2.096494
H	-0.266952	0.827123	0.668696
H	-1.522467	0.128431	-1.481685
N	-0.489866	-1.289819	0.396204
H	-1.509254	-1.230466	0.349932
H	-0.238916	-1.470856	1.3613
N	-0.223655	1.699637	-1.850864
H	0.715705	1.982128	-1.599236
H	-0.870809	2.296303	-1.351143
Br	-3.785705	0.0	0.0
