13

C	0.0	0.0	0.0
C	-0.47597	-0.379854	-1.396441
Cl	1.85358	0.0	0.0
H	-1.567584	-0.426811	-1.319307
H	-0.262953	1.032978	0.223201
H	-0.096123	-1.382531	-1.62836
N	-0.523629	-0.850438	0.974405
H	-0.391961	-0.547675	1.923336
H	-0.311234	-1.824865	0.833521
N	-0.109235	0.533615	-2.468657
H	0.859194	0.810072	-2.37167
H	-0.683515	1.364765	-2.397634
Br	-4.112853	0.0	0.0
