13

C	0.0	0.0	0.0
C	-0.494272	0.393457	-1.374409
Cl	1.872827	0.0	0.0
H	-0.064155	1.362562	-1.65681
H	-0.233139	0.768916	0.734919
H	-1.57958	0.493771	-1.257687
N	-0.528536	-1.228272	0.366706
H	-0.441525	-1.917138	-0.364795
H	-0.285005	-1.556924	1.285516
N	-0.207923	-0.678848	-2.327731
H	-0.922497	-0.696855	-3.041907
H	0.68989	-0.527142	-2.767155
Br	-4.250772	0.0	0.0
