13

C	0.0	0.0	0.0
C	-0.545934	0.481147	-1.338377
F	1.353119	0.0	0.0
H	-1.644227	0.60754	-1.171019
H	-0.39879	-0.977076	0.263637
N	-0.383429	0.932838	1.122901
O	-0.625696	2.101365	0.847013
O	-0.31617	0.440541	2.243661
C	-0.317052	-0.57455	-2.328483
N	-0.03963	-1.408592	-3.107798
C	0.079407	1.714904	-1.815134
N	0.566302	2.681442	-2.26997
Br	-3.489222	0.0	0.0
