13

C	0.0	0.0	0.0
C	-0.415974	0.449001	-1.428549
F	1.346115	0.0	0.0
H	0.54057	0.725377	-1.894205
H	-0.410522	-0.95852	0.299314
N	-0.335009	0.994836	1.080756
O	-0.519577	0.538905	2.202433
O	-0.219113	2.180379	0.783328
C	-1.272534	1.624025	-1.624276
N	-1.751897	2.61782	-2.028323
C	-0.915901	-0.697834	-2.197961
N	-1.140416	-1.604804	-2.909459
Br	-3.159779	0.0	0.0
