13

C	0.0	0.0	0.0
C	-0.414169	-0.368571	-1.448828
F	1.349663	0.0	0.0
H	0.541218	-0.356413	-1.993501
H	-0.406424	-0.659851	0.759301
N	-0.334535	1.410329	0.406183
O	-0.484761	1.600611	1.607281
O	-0.243738	2.270185	-0.465378
C	-1.289415	0.514012	-2.229647
N	-1.749418	1.144795	-3.109572
C	-0.875981	-1.760071	-1.494161
N	-1.0787	-2.912679	-1.586289
Br	-3.153815	0.0	0.0
