18

C	-0.401973	0.007178	-1.470112
C	0.0	0.0	0.0
Br	-2.338751	0.773731	-1.707972
H	1.090709	0.0	0.0
N	0.390655	1.082188	-2.234622
O	0.720703	2.086079	-1.628118
O	0.586932	0.860033	-3.423412
N	-0.211037	-1.185175	-2.127281
H	-0.788942	-1.923457	-1.755102
H	-0.252389	-1.085176	-3.131213
N	-0.419479	-1.280261	0.661919
O	-1.3561	-1.939736	0.191883
O	0.159134	-1.554176	1.705574
C	-0.503614	1.113537	0.905173
H	0.044928	1.041689	1.845019
H	-0.296611	2.078853	0.453653
H	-1.575473	1.017523	1.089481
Cl	3.255892	0.0	0.0
