18

C	-0.54749	0.010845	-1.423456
C	0.0	0.0	0.0
Br	0.395403	1.386228	-2.434727
H	1.087901	0.0	0.0
N	-0.13724	-1.309064	-2.147544
O	-0.835563	-1.622144	-3.109331
O	0.83609	-1.913047	-1.72782
N	-1.937874	0.251922	-1.524651
H	-2.409398	-0.504594	-1.03894
H	-2.209231	0.230122	-2.500447
N	-0.434395	-1.254451	0.702805
O	-1.355248	-1.921762	0.214584
O	0.123523	-1.514814	1.759252
C	-0.496199	1.170731	0.834128
H	-1.581928	1.153216	0.947678
H	-0.207142	2.103488	0.351123
H	-0.010282	1.12352	1.809016
Cl	3.308384	0.0	0.0
