18

C	-0.361472	-0.025023	-1.503072
C	0.0	0.0	0.0
Br	-2.222006	-0.561757	-1.774779
H	1.093399	0.0	0.0
N	-0.217945	1.437571	-1.975722
O	-1.184856	2.186885	-1.916514
O	0.916595	1.748477	-2.316991
N	0.479103	-0.805905	-2.34671
H	1.443234	-0.550802	-2.117797
H	0.365681	-1.772893	-2.063912
N	-0.408058	-1.309837	0.600531
O	-0.01118	-2.335459	0.047825
O	-1.10774	-1.298019	1.612294
C	-0.533821	1.159315	0.806392
H	-0.24853	1.023966	1.848791
H	-0.068298	2.080159	0.454095
H	-1.619124	1.247411	0.741092
Cl	3.243605	0.0	0.0
