17

C	-0.342433	0.04825	-1.46524
C	0.0	0.0	0.0
Cl	-2.056541	0.874334	-1.751413
H	1.094586	0.0	0.0
N	0.552701	1.036102	-2.228472
O	0.809332	0.748852	-3.39408
O	0.896443	2.054812	-1.654498
N	-0.248429	-1.174149	-2.105111
H	-0.383592	-1.108669	-3.102233
H	-0.812002	-1.887091	-1.667653
C	-0.48677	-1.246285	0.549691
N	-0.893718	-2.257556	0.994991
C	-0.431811	1.169885	0.880585
H	-1.513173	1.210668	1.034726
H	-0.089787	2.102991	0.441154
H	0.06913	1.05082	1.843948
F	2.49041	0.0	0.0
