17

C	-0.094461	-0.087407	-1.533983
C	0.0	0.0	0.0
Cl	-1.679142	-0.68206	-2.177046
H	1.097009	0.0	0.0
N	-0.032062	1.397103	-2.099625
O	1.030959	1.725199	-2.614805
O	-1.011222	2.12461	-1.973186
N	0.966562	-0.862703	-1.978852
H	1.124222	-0.791905	-2.97358
H	1.813628	-0.62229	-1.410447
C	-0.472894	-1.244521	0.576755
N	-0.855192	-2.216426	1.116974
C	-0.596031	1.20895	0.702389
H	-0.055689	2.112313	0.419083
H	-1.655772	1.342263	0.477649
H	-0.474654	1.07493	1.779078
F	2.627988	0.0	0.0
