17

C	-0.512567	0.006256	-1.42244
C	0.0	0.0	0.0
Cl	0.403911	1.286419	-2.363068
H	1.092022	0.0	0.0
N	-0.141295	-1.286458	-2.164373
O	-0.723684	-1.46765	-3.232797
O	0.697027	-2.020229	-1.667975
N	-1.912399	0.126836	-1.551465
H	-2.182046	0.157482	-2.527197
H	-2.235263	0.953388	-1.067428
C	-0.526239	-1.15452	0.706356
N	-0.92229	-2.079761	1.315513
C	-0.367689	1.281513	0.754735
H	-1.441369	1.395844	0.951022
H	0.154622	1.255026	1.712618
H	0.005614	2.148369	0.207738
F	2.521246	0.0	0.0
