17

C	-0.106613	0.025748	-1.523724
C	0.0	0.0	0.0
Cl	-0.157293	-1.711391	-2.199219
H	1.098245	0.0	0.0
N	-1.445173	0.562214	-2.047388
O	-1.430292	1.17245	-3.112103
O	-2.44315	0.327252	-1.375172
N	0.945266	0.788134	-2.000739
H	1.806261	0.557362	-1.452536
H	1.047303	0.761077	-3.003457
C	-0.591787	-1.138297	0.665137
N	-1.043999	-2.032008	1.280357
C	-0.431808	1.3231	0.636254
H	0.003761	2.14502	0.065994
H	-0.026859	1.367657	1.649667
H	-1.517499	1.43423	0.678705
F	2.629178	0.0	0.0
