17

C	-0.119543	-0.182137	-1.533638
C	0.0	0.0	0.0
Cl	-1.645764	-0.942331	-2.072435
H	1.097645	0.0	0.0
N	-0.106245	1.253114	-2.105697
O	1.006569	1.734766	-2.273707
O	-1.171805	1.842248	-2.258233
N	1.000061	-0.870231	-2.086187
H	1.816632	-0.61356	-1.48728
H	0.838425	-1.865493	-1.996235
C	-0.429134	-1.21969	0.65652
N	-0.767763	-2.191779	1.225682
C	-0.622241	1.239259	0.623338
H	-0.12494	2.13238	0.241193
H	-0.46127	1.211464	1.703463
H	-1.695572	1.313751	0.426354
F	2.611654	0.0	0.0
