17

C	-0.543918	0.090842	-1.408163
C	0.0	0.0	0.0
Cl	0.344317	1.318434	-2.359252
H	1.107511	0.0	0.0
N	-0.227251	-1.236537	-2.178909
O	-0.953273	-1.472513	-3.14658
O	0.704031	-1.926909	-1.798639
N	-1.928635	0.377847	-1.477484
H	-2.264478	0.24214	-2.423642
H	-2.422902	-0.243453	-0.846876
C	-0.576528	-1.161204	0.644396
N	-1.099215	-2.072833	1.177358
C	-0.313434	1.266734	0.805349
H	0.156844	1.159828	1.78501
H	-1.381476	1.467316	0.926567
H	0.160407	2.114776	0.310082
F	2.509556	0.0	0.0
