17

C	-0.543207	0.188671	-1.39682
C	0.0	0.0	0.0
Cl	0.424659	1.510141	-2.223991
H	1.097092	0.0	0.0
N	-0.270641	-1.030791	-2.286313
O	-0.905763	-1.073159	-3.33854
O	0.55348	-1.848196	-1.910779
N	-1.935672	0.405911	-1.46455
H	-2.191578	1.188867	-0.879693
H	-2.228435	0.5647	-2.42007
C	-0.541633	-1.210393	0.588362
N	-0.9804	-2.16082	1.125279
C	-0.317981	1.197213	0.904724
H	0.054684	2.111029	0.439442
H	0.243195	1.057785	1.829974
H	-1.379999	1.307401	1.155639
F	2.520529	0.0	0.0
