17

C	-0.555927	0.041771	-1.402957
C	0.0	0.0	0.0
Cl	0.430222	1.238161	-2.386133
H	1.107326	0.0	0.0
N	-0.320571	-1.276911	-2.151617
O	0.513125	-2.050964	-1.709898
O	-0.991673	-1.438069	-3.169615
N	-1.94388	0.28296	-1.481219
H	-2.247021	0.330728	-2.445703
H	-2.1726	1.138419	-0.994351
C	-0.543589	-1.135536	0.719728
N	-0.983567	-2.020575	1.358557
C	-0.305641	1.291294	0.770639
H	-1.364263	1.431257	1.021847
H	0.061739	2.146902	0.201307
H	0.268439	1.255619	1.697528
F	2.515892	0.0	0.0
