17

C	-0.140225	0.055018	-1.534574
C	0.0	0.0	0.0
Cl	-0.377948	-1.611498	-2.216453
H	1.105728	0.0	0.0
N	-1.436382	0.808723	-1.888652
O	-2.49188	0.286175	-1.555343
O	-1.33052	1.928708	-2.388178
N	0.971977	0.67882	-2.124288
H	0.772663	1.634641	-2.378499
H	1.789649	0.562159	-1.491988
C	-0.630589	-1.110125	0.673772
N	-1.142117	-1.964452	1.299486
C	-0.385842	1.335806	0.638061
H	-1.462956	1.529492	0.605359
H	-0.059818	1.331918	1.679492
H	0.147597	2.141383	0.129846
F	2.610352	0.0	0.0
