17

C	-0.091027	0.159686	-1.524322
C	0.0	0.0	0.0
Cl	-0.275234	-1.518337	-2.348097
H	1.095649	0.0	0.0
N	-1.378118	0.834346	-2.019046
O	-2.405112	0.618281	-1.385216
O	-1.295287	1.529752	-3.027042
N	1.012899	0.872966	-1.935644
H	1.861235	0.584227	-1.385998
H	1.118708	0.944688	-2.935505
C	-0.61841	-1.177061	0.563168
N	-1.121085	-2.088454	1.10983
C	-0.408131	1.273255	0.745568
H	-0.007059	1.222167	1.760483
H	0.052138	2.129036	0.249361
H	-1.490205	1.40778	0.791643
F	2.643672	0.0	0.0
