15

C	-0.514	0.017394	-1.420464
C	0.0	0.0	0.0
F	-0.122926	-1.12924	-2.099277
H	1.093391	0.0	0.0
H	-0.309539	0.939854	0.477444
N	-1.960685	0.036842	-1.470827
H	-2.305909	0.736293	-0.825987
H	-2.277481	0.272441	-2.404801
C	0.052224	1.158951	-2.194314
N	0.34713	2.099121	-2.833764
C	-0.500839	-1.208924	0.780406
H	-0.236743	-2.123876	0.247808
H	0.009619	-1.234468	1.746327
H	-1.581428	-1.207323	0.945709
H	2.975563	0.0	0.0
