15

C	-0.513382	0.016522	-1.420806
C	0.0	0.0	0.0
F	-0.13081	-1.13496	-2.095847
H	1.093412	0.0	0.0
H	-0.309088	0.940801	0.476001
N	-1.95975	0.047032	-1.471756
H	-2.299447	0.750761	-0.828893
H	-2.274341	0.282459	-2.406345
C	0.062213	1.151585	-2.198065
N	0.364908	2.087451	-2.840468
C	-0.502629	-1.207266	0.781681
H	-0.23262	-2.123484	0.254355
H	-1.584311	-1.20753	0.939825
H	0.001295	-1.227754	1.751261
H	2.97621	0.0	0.0
