15

C	-0.358427	0.058047	-1.478974
C	0.0	0.0	0.0
F	-1.487932	0.888633	-1.676487
H	1.09298	0.0	0.0
H	-0.293758	0.981668	0.390003
N	0.726228	0.559121	-2.273988
H	0.468407	1.443871	-2.684969
H	1.579611	0.627578	-1.711418
C	-0.797329	-1.263997	-2.015158
N	-1.154238	-2.307315	-2.418695
C	-0.605553	-1.126555	0.81566
H	-0.302179	-1.020319	1.860282
H	-1.699695	-1.135634	0.774648
H	-0.243124	-2.096427	0.468309
H	2.950106	0.0	0.0
