16

C	-0.49882	0.034538	-1.459481
C	0.0	0.0	0.0
Cl	0.149699	-1.371975	-2.372492
H	1.101377	0.0	0.0
C	-1.963959	-0.044348	-1.494231
N	-3.138721	-0.083439	-1.468475
C	-0.084142	1.256012	-2.159864
N	0.191607	2.246275	-2.729073
N	-0.459961	-1.247076	0.596637
H	0.368239	-1.772733	0.864091
H	-1.001998	-1.064208	1.432321
C	-0.469817	1.228004	0.75962
H	-1.556932	1.233781	0.911452
H	-0.177648	2.153085	0.257415
H	0.026794	1.219169	1.733968
H	2.779964	0.0	0.0
