16

C	-0.422588	0.043262	-1.500057
C	0.0	0.0	0.0
Cl	0.246311	-1.378846	-2.382654
H	1.095733	0.0	0.0
C	-1.883277	-0.029785	-1.608823
N	-3.057611	-0.098822	-1.603376
C	0.038978	1.256294	-2.180934
N	0.377095	2.214167	-2.772472
N	-0.437558	-1.195954	0.677466
H	-1.402758	-1.436558	0.481262
H	0.170573	-1.966905	0.429409
C	-0.503898	1.240405	0.714828
H	-0.079508	1.218163	1.719946
H	-1.597525	1.260772	0.79847
H	-0.163734	2.156814	0.226763
H	2.795017	0.0	0.0
