16

C	-0.352146	0.113928	-1.487582
C	0.0	0.0	0.0
Cl	-2.174385	0.107257	-1.762996
H	1.105696	0.0	0.0
C	0.144146	1.351919	-2.090257
N	0.508513	2.356392	-2.579839
C	0.161661	-1.040798	-2.229215
N	0.526907	-1.988257	-2.820278
N	-0.403123	-1.264455	0.577421
H	0.31452	-1.954414	0.383536
H	-1.295452	-1.591446	0.227008
C	-0.501631	1.180711	0.804311
H	-0.066085	1.091776	1.801063
H	-1.592619	1.185582	0.897406
H	-0.172036	2.130597	0.374597
H	2.734339	0.0	0.0
