16

C	-0.45544	0.093168	-1.449304
C	0.0	0.0	0.0
Cl	-2.289603	0.102087	-1.584132
H	1.10776	0.0	0.0
C	0.004263	1.325142	-2.096955
N	0.339946	2.328031	-2.609093
C	0.000241	-1.066793	-2.219695
N	0.338419	-1.972912	-2.885944
N	-0.392751	-1.299273	0.516484
H	-1.146711	-1.220677	1.187769
H	0.4199	-1.701083	0.974913
C	-0.445687	1.184195	0.835466
H	0.07292	1.120979	1.796125
H	-1.527639	1.186355	1.010723
H	-0.16109	2.134412	0.375446
H	2.716203	0.0	0.0
