16

C	-0.504899	-0.054894	-1.45665
C	0.0	0.0	0.0
Cl	0.168028	-1.492626	-2.298796
H	1.102364	0.0	0.0
C	-1.9682	-0.167991	-1.472877
N	-3.142139	-0.219463	-1.431123
C	-0.124448	1.13583	-2.224761
N	0.128948	2.10217	-2.843507
N	-0.45031	-1.210589	0.66896
H	0.371872	-1.678153	1.039981
H	-1.077775	-0.994073	1.433005
C	-0.464974	1.272727	0.686815
H	-0.160511	2.166463	0.137065
H	0.024673	1.312122	1.663827
H	-1.552743	1.29687	0.831601
H	2.776954	0.0	0.0
