16

C	-0.457642	-0.118348	-1.448511
C	0.0	0.0	0.0
Cl	-2.288703	-0.10033	-1.584612
H	1.105968	0.0	0.0
C	0.023665	0.99404	-2.27203
N	0.379985	1.900122	-2.93051
C	-0.020301	-1.3882	-2.034375
N	0.303514	-2.394583	-2.547389
N	-0.399417	-1.207878	0.703348
H	-1.100794	-1.013878	1.405836
H	0.431171	-1.576517	1.156929
C	-0.443779	1.293495	0.654368
H	-1.523192	1.316325	0.840349
H	-0.171381	2.16507	0.052732
H	0.086725	1.378477	1.607208
H	2.721139	0.0	0.0
