16

C	-0.405503	-0.008501	-1.477723
C	0.0	0.0	0.0
F	-0.017922	1.227862	-1.998898
H	1.102297	0.0	0.0
C	0.315157	-1.095331	-2.248093
H	0.10035	-0.989538	-3.313199
H	1.387019	-0.983224	-2.0648
H	-0.009092	-2.082142	-1.912304
C	-1.871434	-0.09198	-1.638309
N	-3.027344	-0.199747	-1.814764
C	-0.480714	-1.224527	0.638126
N	-0.867561	-2.20485	1.156582
N	-0.583082	1.17388	0.657448
H	-0.297616	1.150036	1.631284
H	-0.116305	1.978521	0.250805
Br	3.482527	0.0	0.0
