16

C	-0.531921	-0.057192	-1.439443
C	0.0	0.0	0.0
F	-0.064023	-1.220011	-2.037629
H	1.100174	0.0	0.0
C	-2.048261	-0.071489	-1.511386
H	-2.36578	-0.107244	-2.554769
H	-2.42168	-0.958362	-0.995101
H	-2.449366	0.827958	-1.044262
C	-0.01488	1.096135	-2.198904
N	0.332402	2.003191	-2.857917
C	-0.468071	-1.180708	0.730989
N	-0.913261	-2.079667	1.343137
N	-0.432817	1.2562	0.614461
H	-1.149725	1.106274	1.31399
H	0.37348	1.682597	1.056468
Br	3.417306	0.0	0.0
