16

C	-0.40482	0.006582	-1.483593
C	0.0	0.0	0.0
F	0.08259	1.171854	-2.046134
H	1.095344	0.0	0.0
C	0.194535	-1.168588	-2.229411
H	-0.007368	-1.060099	-3.296735
H	1.272516	-1.155996	-2.052299
H	-0.222468	-2.113089	-1.878478
C	-1.877454	0.054066	-1.605235
N	-3.048807	0.076262	-1.682845
C	-0.463043	-1.249249	0.622138
N	-0.872113	-2.209291	1.163789
N	-0.476158	1.192165	0.677916
H	-1.360614	1.028162	1.143537
H	0.214405	1.476953	1.362258
Br	3.460029	0.0	0.0
