16

C	-0.445187	0.075085	-1.464204
C	0.0	0.0	0.0
F	-1.831216	0.298182	-1.491208
H	1.095248	0.0	0.0
C	0.255454	1.20658	-2.182237
H	1.334349	1.037538	-2.148477
H	0.023403	2.13131	-1.656397
H	-0.090147	1.261042	-3.216302
C	-0.220931	-1.208472	-2.152497
N	-0.060873	-2.235955	-2.697627
C	-0.512386	-1.213043	0.652198
N	-0.947763	-2.13686	1.234043
N	-0.406479	1.224421	0.680352
H	0.262923	1.415675	1.415518
H	-1.328565	1.126449	1.084197
Br	3.426029	0.0	0.0
