16

C	-0.528577	0.064377	-1.441247
C	0.0	0.0	0.0
F	-0.088403	-1.062384	-2.122735
H	1.094349	0.0	0.0
C	-2.04483	0.094186	-1.515468
H	-2.358838	0.128382	-2.560278
H	-2.423475	0.975145	-0.996781
H	-2.443814	-0.811729	-1.054008
C	0.020831	1.256787	-2.113148
N	0.414878	2.197426	-2.694034
C	-0.476086	-1.237948	0.623768
N	-0.949386	-2.190254	1.124484
N	-0.428547	1.202486	0.716977
H	0.373357	1.57264	1.212992
H	-1.159579	0.99934	1.385371
Br	3.417713	0.0	0.0
