10
Coordinates from ORCA-job run
  C   -1.03918893908102     -0.38930908824312      0.04433745108131
  C   0.16570372819146      0.50574411809388      0.24485603650144
  Cl  -2.45321130977186      0.38165274993512      0.80385909184036
  H   0.03053906777196      1.49180412425142     -0.19409430217576
  H   -1.25552477834883     -0.52051020646738     -1.01511546622230
  H   -0.88754687789408     -1.35886441736325      0.50971835225281
  H   0.41070544044503      0.60584609906089      1.30366118208741
  N   1.37163823069745     -0.09006441067957     -0.41146664951218
  O   1.50210802904661     -1.30999067878003     -0.33358818744909
  O   2.15577740894327      0.68369171019206     -0.95116750840401
