10
Coordinates from ORCA-job run
  C   -1.04889406373706     -0.33109078200929     -0.15451066159281
  C   0.15475865863883      0.41019891371507      0.38844842483629
  Cl  -2.50059927607487      0.23074625197554      0.71013091725173
  H   0.30010790965390      0.24596953704506      1.45388896246505
  H   -1.18429891028899     -0.13359064600046     -1.21388381267512
  H   -0.95299483177297     -1.40362580252159      0.00958369586277
  H   0.08165133907423      1.48066509558978      0.18877020949365
  N   1.40421594640344     -0.05961441716384     -0.28842695536839
  O   2.41641484002853     -0.14416876477672      0.39943407795628
  O   1.32963838807496     -0.29648938585355     -1.49243485822946
