10
Coordinates from ORCA-job run
  C   -1.11015669743204     -0.17180597117952     -0.21411580330648
  C   0.13155297555183      0.62697211234018      0.09007693788455
  Cl  -1.42214049244131     -1.36098528109002      1.07228377238643
  H   0.28346233978764      1.39538123305840     -0.67241924404167
  H   -1.97015781655744      0.49516424358236     -0.27002767884632
  H   -0.99470959712624     -0.71123869954201     -1.15138245451432
  H   0.11198559456751      1.07326434908426      1.08167471896595
  N   1.35035255932028     -0.24148491423238      0.04133850415064
  O   1.44861834889529     -0.99916871069817     -0.91929241106873
  O   2.17119278543448     -0.10709836132309      0.94286365838995
