10
Coordinates from ORCA-job run
  C   -1.10068228420601     -0.20303587021018      0.23454595730357
  C   0.12930961862423      0.63386532409510     -0.00842417653988
  Cl  -1.46852603734411     -1.20583545710269     -1.18873106659810
  H   0.06915095359681      1.21174249592235     -0.92781501389243
  H   -0.94885362253128     -0.86542320998520      1.08359698683519
  H   -1.95575293349577      0.44783021768478      0.41577608130009
  H   0.31466639518886      1.29127466336275      0.84502899300197
  N   1.34698922743398     -0.22868174067416     -0.12994180287554
  O   2.13089424876243      0.03205834339093     -1.03673031707515
  O   1.48280443397087     -1.11179476648369      0.71169435854026
