13

C	-0.289692	-0.076765	-1.509322
C	0.0	0.0	0.0
F	-0.077347	1.222112	-2.02646
H	1.097624	0.0	0.0
H	-1.334966	-0.298801	-1.747998
N	0.582678	-1.043605	-2.043141
H	0.556875	-1.046041	-3.053539
H	1.530147	-0.861175	-1.699074
C	-0.473729	-1.195588	0.676594
N	-0.843885	-2.162888	1.232884
C	-0.534496	1.197347	0.62175
N	-0.947951	2.166988	1.141886
H	2.612111	0.0	0.0
