13

C	-0.369735	-0.065168	-1.476925
C	0.0	0.0	0.0
F	-1.696516	-0.554827	-1.628408
H	1.095498	0.0	0.0
H	0.274567	-0.809256	-1.951053
N	-0.19939	1.186585	-2.104325
H	-0.395284	1.118315	-3.093332
H	-0.790362	1.891792	-1.682607
C	-0.441734	-1.190371	0.707621
N	-0.767686	-2.17862	1.253947
C	-0.506366	1.202663	0.632784
N	-0.896448	2.213095	1.092887
H	2.538717	0.0	0.0
