13

C	-0.311124	-0.084898	-1.502237
C	0.0	0.0	0.0
F	-0.067053	1.19972	-2.038981
H	1.097628	0.0	0.0
H	-1.366082	-0.279564	-1.722996
N	0.52515	-1.086231	-2.038032
H	1.484236	-0.919361	-1.718215
H	0.476527	-1.098626	-3.048317
C	-0.469691	-1.187949	0.69279
N	-0.827244	-2.149506	1.267053
C	-0.52499	1.203597	0.618636
N	-0.922136	2.18117	1.136708
H	2.607768	0.0	0.0
