13

C	-0.347135	-0.081689	-1.482823
C	0.0	0.0	0.0
F	-1.636405	-0.654422	-1.658673
H	1.095403	0.0	0.0
H	0.352904	-0.780332	-1.947584
N	-0.246235	1.18143	-2.102566
H	-0.395354	1.103586	-3.098902
H	-0.908038	1.83619	-1.704814
C	-0.435248	-1.188538	0.714434
N	-0.753253	-2.174202	1.270018
C	-0.517327	1.2019	0.623163
N	-0.917474	2.207426	1.085456
H	2.533885	0.0	0.0
