13

C	-0.298078	0.130808	-1.52017
C	0.0	0.0	0.0
F	-0.176162	1.477965	-1.829894
H	1.095713	0.0	0.0
H	-1.326598	-0.159063	-1.762679
N	0.629001	-0.61403	-2.300929
H	1.54612	-0.554199	-1.851194
H	0.346738	-1.582044	-2.361549
C	-0.433796	-1.313309	0.443146
N	-0.735193	-2.412342	0.734441
C	-0.561208	1.054119	0.81936
N	-0.995884	1.909761	1.49822
H	2.599142	0.0	0.0
