13

C	-0.427637	0.000169	-1.465566
C	0.0	0.0	0.0
F	0.104506	-1.161565	-2.046227
H	1.095314	0.0	0.0
H	0.047187	0.845638	-1.973145
N	-1.842368	0.057569	-1.625641
H	-2.26884	-0.732013	-1.150542
H	-2.079769	0.006426	-2.609592
C	-0.486021	-1.192457	0.673593
N	-0.882995	-2.169751	1.194258
C	-0.468706	1.200734	0.672879
N	-0.807364	2.197576	1.195838
H	2.564854	0.0	0.0
