13

C	-0.377324	0.061168	-1.478352
C	0.0	0.0	0.0
F	0.038584	-1.152271	-2.047817
H	1.095251	0.0	0.0
H	0.220235	0.842451	-1.955327
N	-1.763048	0.291113	-1.701062
H	-1.962663	0.271934	-2.693069
H	-2.307191	-0.432682	-1.247992
C	-0.52705	-1.199173	0.625965
N	-0.949646	-2.174146	1.130818
C	-0.444374	1.192684	0.702192
N	-0.765673	2.182063	1.249954
H	2.551208	0.0	0.0
