13

C	-0.29597	-0.012898	-1.525028
C	0.0	0.0	0.0
F	-0.155683	1.292802	-1.966084
H	1.095732	0.0	0.0
H	-1.327474	-0.312642	-1.737481
N	0.615517	-0.847241	-2.228724
H	1.534691	-0.758819	-1.787073
H	0.317485	-1.811075	-2.181335
C	-0.442539	-1.259969	0.570415
N	-0.759513	-2.316843	0.97924
C	-0.558253	1.132651	0.710804
N	-0.992748	2.062725	1.284398
H	2.597979	0.0	0.0
