15
Coordinates from ORCA-job run
  C   -0.67790934545053     -0.59500315786576     -0.07568805438336
  C   0.49798827525276      0.42014807792568     -0.05211377054220
  Br  -0.06880822225410     -2.41587006478718     -0.11706106993882
  H   0.00304503003770      1.39827303814842      0.01818295458076
  N   -1.48921303098790     -0.31209686075874      1.20627591622173
  O   -1.51402133318097     -1.14122368839806      2.09339489032327
  O   -2.01532977753117      0.79504341288903      1.20213373153456
  C   -1.54703905920422     -0.34843733783769     -1.21600399844713
  N   -2.19565462357975     -0.11548981263935     -2.16907217810373
  N   1.29416417074010      0.23697629048735     -1.25205729582876
  H   2.09283750315327      0.85864725126805     -1.20871664680025
  H   0.76604864015458      0.46754516620733     -2.08760392552097
  N   1.23572024665455      0.21847098853217      1.16130743741313
  H   1.70730589760457      1.06332491061795      1.45209908303049
  H   1.90986562859111     -0.52830821378920      1.04392292646127
