15
Coordinates from ORCA-job run
  C   -0.68887455244192     -0.58174482779351      0.19346825487571
  C   0.67113405367114      0.14657435647907      0.25414430634247
  Br  -0.64984388629533     -2.26588991122894      1.16117850209763
  H   0.87079287831004      0.31609820314930      1.31904458521919
  N   -1.71083122868276      0.32082060463233      0.89265397925242
  O   -2.71637730356865      0.61715306253337      0.26612979781544
  O   -1.41272274618167      0.67028720034378      2.02448515332753
  C   -1.09858655895272     -0.81550137403152     -1.17970181827389
  N   -1.38500532215404     -1.00253976504826     -2.30424422857777
  N   0.45472558145596      1.42102069689542     -0.38005484698495
  H   0.62397811044023      1.35319377909207     -1.37679615430444
  H   1.02595547325682      2.15006985283765      0.02219326714337
  N   1.65693550847610     -0.65744881015968     -0.44430413382631
  H   2.52773578198015     -0.14140592974626     -0.48636685923921
  H   1.83198421068669     -1.53068713795480      0.03917019513284
