15
Coordinates from ORCA-job run
  C   -0.72961362533265     -0.34379111897643     -0.01783178954132
  C   0.68158605754527      0.32706134717675     -0.05425164715164
  Br  -0.61973546535695     -2.27560349097006     -0.01384938128893
  H   0.46396879122312      1.40325023809609      0.03871401558544
  N   -1.54040326434501      0.06883275849127      1.22503525964906
  O   -0.93301926361714      0.66546537533784      2.10771292107335
  O   -2.72518687644266     -0.22637239343161      1.22501185164830
  C   -1.50529222620826      0.08815050177913     -1.17211557609140
  N   -2.06000652889101      0.48808458844911     -2.12894131312063
  N   1.36228911370273      0.12146287228548     -1.30417760874142
  H   1.48702907334368     -0.86824428450100     -1.48085654746780
  H   0.88559423117956      0.55599220663541     -2.08294159776513
  N   1.52135741822455     -0.21401727622679      0.98166334470576
  H   1.24001181650871      0.12718192991355      1.89010505790993
  H   2.46942074846610      0.08154674594122      0.78572301059644
