19

C	-0.518433	-0.047008	-1.445676
C	0.0	0.0	0.0
Cl	0.120267	1.412499	-2.293478
H	1.099698	0.0	0.0
C	0.04355	-1.257543	-2.178053
H	-0.413945	-2.176143	-1.797305
H	-0.177193	-1.192231	-3.246052
H	1.127413	-1.301033	-2.041791
C	-2.033535	0.017399	-1.506198
H	-2.452494	-0.833124	-0.963566
H	-2.378526	0.942925	-1.042775
H	-2.376677	-0.004125	-2.543984
N	-0.478697	-1.218951	0.702044
H	0.004588	-2.016892	0.298722
H	-0.093915	-1.143949	1.64023
N	-0.487843	1.174117	0.698537
H	-1.267034	0.911227	1.290032
H	0.255305	1.557176	1.267095
Cl	3.516803	0.0	0.0
