19

C	-0.505668	0.029742	-1.450076
C	0.0	0.0	0.0
Cl	0.084203	-1.461538	-2.284033
H	1.094376	0.0	0.0
C	-2.021058	-0.005919	-1.525945
H	-2.350826	-0.012045	-2.567484
H	-2.437271	0.881004	-1.040515
H	-2.402301	-0.906811	-1.041428
C	0.090289	1.218892	-2.185286
H	-0.167394	1.175124	-3.247034
H	-0.292105	2.142713	-1.750329
H	1.177051	1.205279	-2.077077
N	-0.440503	-1.212736	0.686971
H	0.282613	-1.493882	1.338867
H	-1.288552	-1.031657	1.212924
N	-0.39418	1.268378	0.632176
H	-1.311883	1.173165	1.052175
H	0.266052	1.46388	1.37516
Cl	3.55295	0.0	0.0
