19

C	-0.498703	0.013086	-1.453226
C	0.0	0.0	0.0
Cl	-0.047727	-1.570601	-2.235643
H	1.101141	0.0	0.0
C	-2.008784	0.138311	-1.546261
H	-2.494771	-0.665448	-0.991399
H	-2.307694	1.098451	-1.119016
H	-2.329045	0.100345	-2.590233
C	0.230389	1.097115	-2.225884
H	-0.029405	2.063796	-1.790178
H	1.309611	0.951388	-2.137782
H	-0.059021	1.078612	-3.280328
N	-0.55504	-1.136772	0.750279
H	-0.043867	-1.162564	1.628341
H	-0.295979	-1.988995	0.26307
N	-0.423847	1.249612	0.629107
H	0.310588	1.564571	1.249697
H	-1.253026	1.056721	1.179251
Cl	3.531409	0.0	0.0
