19

C	-0.324338	-0.010052	-1.498821
C	0.0	0.0	0.0
Cl	-2.150104	-0.066367	-1.719237
H	1.098977	0.0	0.0
C	0.191424	1.251124	-2.163744
H	1.270406	1.299827	-1.984781
H	-0.270445	2.130782	-1.721651
H	-0.000539	1.225351	-3.240129
C	0.256733	-1.24701	-2.160703
H	-0.176755	-2.161107	-1.752833
H	0.071249	-1.227171	-3.2374
H	1.33661	-1.249786	-1.975963
N	-0.423479	-1.191772	0.732582
H	-1.319219	-1.524711	0.383273
H	0.26675	-1.925965	0.615415
N	-0.476716	1.229546	0.609247
H	-1.469328	1.120368	0.799586
H	-0.012266	1.298385	1.508495
Cl	3.500746	0.0	0.0
