19

C	0.0	0.0	0.0
C	-0.379812	0.191671	-1.472686
F	1.44179	0.0	0.0
H	0.304451	0.980857	-1.81741
N	-0.412039	1.127335	0.778148
H	-0.039482	1.978777	0.374177
H	-0.057878	1.036228	1.723496
N	-0.448455	-1.24669	0.533059
H	-0.197494	-1.292914	1.517439
H	-1.469034	-1.220346	0.490955
C	-1.816938	0.662109	-1.678582
H	-2.059613	0.63074	-2.747447
H	-1.954332	1.688544	-1.32998
H	-2.584955	0.093165	-1.132978
C	-0.060456	-1.070289	-2.269887
H	-0.75353	-1.872446	-2.012031
H	-0.154669	-0.864161	-3.341053
H	0.954785	-1.417179	-2.065162
H	-4.376898	0.0	0.0
