19

C	0.0	0.0	0.0
C	-0.318019	-0.006707	-1.51054
F	1.418421	0.0	0.0
H	0.395292	-0.733397	-1.926109
N	-0.486148	1.158417	0.654569
H	-0.005792	1.984122	0.328914
H	-0.359681	1.052297	1.652876
N	-0.458988	-1.131889	0.74896
H	-0.261732	-1.978229	0.228126
H	-1.474739	-1.040413	0.814863
C	-0.009612	1.351668	-2.139638
H	-0.763589	2.08396	-1.839472
H	0.98379	1.711564	-1.854741
H	-0.038169	1.276271	-3.230562
C	-1.739227	-0.454271	-1.829704
H	-1.97367	-0.230141	-2.87706
H	-1.853202	-1.534647	-1.699691
H	-2.512253	0.000466	-1.189988
H	-4.216327	0.0	0.0
