19

C	0.0	0.0	0.0
C	-0.351593	-0.13523	-1.494997
F	1.41599	0.0	0.0
H	0.358156	-0.880246	-1.877574
N	-0.45907	1.156043	0.708433
H	-1.473278	1.070213	0.787877
H	-0.241384	1.995628	0.186632
N	-0.458943	-1.129855	0.729032
H	-0.135235	-1.986531	0.302038
H	-0.116502	-1.058264	1.677362
C	-0.068267	1.173049	-2.227542
H	-0.117604	1.014096	-3.310317
H	-0.821317	1.925984	-1.977559
H	0.925904	1.563245	-1.987404
C	-1.774543	-0.622837	-1.740718
H	-1.880785	-1.678259	-1.483245
H	-2.03125	-0.503946	-2.801408
H	-2.54505	-0.117676	-1.139354
H	-4.292833	0.0	0.0
