15

C	-0.558984	0.048625	-1.399573
C	0.0	0.0	0.0
F	-1.97047	0.229336	-1.299562
H	1.089513	0.0	0.0
H	-0.351991	0.882617	0.538121
N	-0.178085	1.317651	-2.147236
O	0.10602	2.306844	-1.482007
O	-0.271882	1.279081	-3.371101
N	-0.209036	-1.052446	-2.157513
H	-0.290395	-1.878437	-1.578694
H	-0.711442	-1.106909	-3.02994
N	-0.431005	-1.273271	0.594654
H	-1.265712	-1.147315	1.150269
H	0.31215	-1.602586	1.196231
Br	3.610007	0.0	0.0
