15

C	-0.415239	-0.138264	-1.455718
C	0.0	0.0	0.0
F	-1.6702	-0.680916	-1.548968
H	1.091192	0.0	0.0
H	-0.310625	-0.940027	0.480064
N	-0.500513	1.251969	-2.064728
O	0.578743	1.798137	-2.250281
O	-1.606093	1.722334	-2.296903
N	0.465748	-0.901504	-2.28094
H	1.409016	-0.547216	-2.131919
H	0.459169	-1.853561	-1.93011
N	-0.530159	1.197349	0.63137
H	-1.358033	0.992795	1.170243
H	0.172412	1.581257	1.246303
Br	3.577257	0.0	0.0
