15

C	-0.543056	-0.015593	-1.407914
C	0.0	0.0	0.0
F	0.061831	0.992823	-2.138966
H	1.094072	0.0	0.0
H	-0.369379	-0.882672	0.51937
N	-0.192112	-1.294061	-2.156183
O	0.123695	-2.278679	-1.499479
O	-0.33185	-1.251938	-3.375605
N	-1.949222	0.076738	-1.439569
H	-2.258353	0.329412	-2.36996
H	-2.201876	0.788966	-0.761793
N	-0.539344	1.216566	0.643482
H	0.101494	1.972391	0.423058
H	-0.477092	1.086052	1.645461
Br	3.640891	0.0	0.0
