15

C	-0.525677	-0.085369	-1.412209
C	0.0	0.0	0.0
F	-0.342665	-1.335357	-1.930149
H	1.097868	0.0	0.0
H	-0.351816	0.945126	0.417618
N	-2.077616	0.04806	-1.326595
O	-2.784747	-0.881654	-1.692576
O	-2.477898	1.130975	-0.905153
N	0.009888	0.881541	-2.268994
H	-0.572219	1.117171	-3.058369
H	0.343505	1.695095	-1.782823
N	-0.584349	-1.096597	0.780063
H	-0.147071	-1.954256	0.461858
H	-0.282087	-0.970369	1.740739
Br	3.654978	0.0	0.0
