15

C	-0.501776	0.006137	-1.428742
C	0.0	0.0	0.0
F	-1.916971	0.132751	-1.400416
H	1.089793	0.0	0.0
H	-0.323795	-0.96921	0.401981
N	-0.119866	1.244754	-2.236701
O	-0.444515	1.218217	-3.422646
O	0.443334	2.172931	-1.67391
N	-0.073803	-1.086525	-2.171082
H	-0.082084	-1.946383	-1.648747
H	-0.526015	-1.153204	-3.070936
N	-0.509073	1.055141	0.857976
H	-1.475845	1.244535	0.635035
H	0.02669	1.890443	0.681044
Br	3.679419	0.0	0.0
