15

C	-0.522034	0.050003	-1.418713
C	0.0	0.0	0.0
F	-0.120698	1.151279	-2.081927
H	1.093557	0.0	0.0
H	-0.326788	-0.952578	0.437599
N	0.081836	-1.149807	-2.192112
O	0.800335	-0.945008	-3.158302
O	-0.271774	-2.252802	-1.771758
N	-1.946519	-0.015651	-1.489157
H	-2.242911	0.124874	-2.44895
H	-2.248831	-0.929355	-1.177623
N	-0.455593	1.186642	0.707928
H	-1.336729	1.0252	1.172079
H	0.24303	1.44444	1.389032
Br	3.603749	0.0	0.0
