15

C	-0.30142	-0.159637	-1.482672
C	0.0	0.0	0.0
F	-1.616736	-0.559058	-1.711838
H	1.093362	0.0	0.0
H	-0.408411	0.937177	0.372008
N	-0.322516	1.236806	-2.186989
O	-0.981338	2.123398	-1.653562
O	0.267689	1.338773	-3.260312
N	0.574867	-1.053984	-2.088874
H	0.551041	-0.98129	-3.09747
H	1.525863	-0.913248	-1.747285
N	-0.466738	-1.127865	0.795699
H	-1.373155	-1.428943	0.459896
H	0.177588	-1.895735	0.665192
Br	3.56519	0.0	0.0
