16
Coordinates from ORCA-job run
  C   -0.49869244905910     -0.12466262331064      0.35464670748515
  C   0.84584023072477      0.17114628296154     -0.32635374749728
  Cl  -0.22172713822310     -0.75220963494394      1.97891728680294
  H   0.59776306660997      0.58418958521265     -1.30832484487855
  C   -1.38632470667930     -1.06673787672567     -0.43097230354016
  H   -1.55449449890971     -0.66688030177318     -1.43175244850995
  H   -0.91346856808557     -2.04677319090858     -0.50084006403876
  H   -2.34549670292552     -1.17899306501149      0.07719530600632
  N   -1.20436940578568      1.23616149619898      0.43244794762029
  O   -1.55829235510019      1.67664401759517      1.51160362867056
  O   -1.37169044065650      1.76062642850664     -0.66428988208736
  C   1.57904441191393     -1.09104823187970     -0.53332410588852
  N   2.20407224700252     -2.07334559756426     -0.69180010585996
  N   1.55988267770162      1.18942119714283      0.41455800715659
  H   2.30764374281317      1.57595087978579     -0.14697583039936
  H   1.95830988865871      0.80651063471388      1.26326444895807
