16
Coordinates from ORCA-job run
  C   -0.48030361688214     -0.14710093325374      0.37101178722362
  C   0.82731083420661      0.19885864503139     -0.35648995714141
  Cl  -0.11998891813590     -0.83435084488334      1.95454231281626
  H   0.52961527038381      0.64603363848186     -1.30930646396053
  C   -1.38746725955584     -1.07288389572521     -0.41172254982777
  H   -0.90509671263533     -2.04294743982975     -0.53650918775569
  H   -2.32341981528972     -1.21709380230163      0.13087716740620
  H   -1.60204452671689     -0.63966316275584     -1.38970661084956
  N   -1.20292850226342      1.19636023583305      0.53580893863954
  O   -1.42656134408107      1.76160778360635     -0.53013186374839
  O   -1.51497840611557      1.58689244706274      1.64664599892154
  C   1.56999406522998     -1.04171615118325     -0.64561609133650
  N   2.20306478319128     -2.00589331143558     -0.86949159837989
  N   1.55808694375381      1.19912260376597      0.39250644156960
  H   2.00275426872737      0.78916126399116      1.20484646868223
  H   2.27196293618302      1.62261292359583     -0.18626479225923
