16
Coordinates from ORCA-job run
  C   -0.54873354403438     -0.30760923611949      0.37329841432000
  C   0.93906904619865     -0.32467080235911     -0.01393002011520
  Cl  -0.78418352744359     -1.36368821245757      1.77981505977469
  H   1.13086133798082     -1.36782546052892     -0.28871843115439
  C   -1.44808769734044     -0.73601371919046     -0.76384321489004
  H   -1.17298308201434     -1.74417719485115     -1.07821974843590
  H   -1.31921745670557     -0.05360790034425     -1.60357079389779
  H   -2.48455285576136     -0.73545222392222     -0.43100091716128
  N   -0.96717946372079      1.09833734495498      0.80006752370710
  O   -2.15252720301880      1.26145616328255      1.05117048460831
  O   -0.09314179263796      1.96155095462685      0.84334597537188
  C   1.82411455824347     -0.02459675847161      1.12798901706849
  N   2.60348939069389      0.19592670270066      1.97850892208106
  N   1.17061898313820      0.49634274480900     -1.18900773957435
  H   2.00326017086660      0.18346143182181     -1.67130127293630
  H   1.29919313555560      1.46156616604893     -0.91360325876628
