16
Coordinates from ORCA-job run
  C   -0.50881214292439     -0.34499338681180      0.33951325554949
  C   0.99685528349906     -0.07349908353589      0.14341894620089
  Cl  -0.69418481501453     -2.04858759850948      0.82703563143124
  H   1.49544372429698     -0.29110457358466      1.09401950405679
  C   -1.34715711696040     -0.04429957715123     -0.87354328504106
  H   -1.30531061826130      1.02445259043223     -1.09471798397648
  H   -0.94122093088839     -0.60241462904724     -1.71546965695280
  H   -2.38301825015088     -0.32507691673929     -0.69675174804576
  N   -0.98903667196570      0.47650448895075      1.53710420085626
  O   -2.16328121523529      0.82355695533843      1.53760164405998
  O   -0.16861542325733      0.69578631387715      2.42316059978843
  C   1.17921680501128      1.35379235021080     -0.13965508236080
  N   1.32991725904061      2.49180043499188     -0.38560452087757
  N   1.48362553565303     -0.85819488387422     -0.98742628198390
  H   2.35517624495236     -0.46988884697837     -1.32579508807983
  H   1.66040233220490     -1.80783363756906     -0.68289013462489
