16
Coordinates from ORCA-job run
  C   -0.53491710615330     -0.36250917133560      0.37719028409689
  C   0.98588057172145     -0.18121247237924      0.18989948233809
  Cl  -0.84501935951319     -2.01286431917052      0.94015718130175
  H   1.46181610408198     -0.49515921980471      1.12032159071139
  C   -1.33454869975564     -0.06642464806078     -0.86384363288280
  H   -2.39658034732655     -0.20177332244184     -0.67088354444112
  H   -1.02458434058078     -0.76038826787417     -1.64544211763642
  H   -1.16735763560173      0.96398862498635     -1.18602801377503
  N   -0.95799402015820      0.55794278210504      1.52316077458046
  O   -0.18720810468078      0.62250468972472      2.47563899820262
  O   -2.03214035268598      1.13766958193200      1.42013354457520
  C   1.26961252502777      1.25287772673562     -0.00801435927426
  N   1.49597683167138      2.38146847770459     -0.24448437926388
  N   1.45282281932739     -1.01681751993300     -0.89991795382689
  H   1.40327919515440     -0.52691672325832     -1.78393682223856
  H   2.41296191947178     -1.29238621893013     -0.74495103246742
