16
Coordinates from ORCA-job run
  C   -0.59299542124671     -0.18487508779981      0.60351210188286
  C   0.51695324997896      0.41406754750174     -0.29309858447921
  Cl  0.09480012133448     -1.27229636306812      1.79727647169968
  H   -0.00947171469346      1.06633000670441     -1.00016975789391
  N   -1.49502788479539     -0.96465032901075     -0.37268517025320
  O   -1.52874132791818     -2.18298400318257     -0.34416001585492
  O   -2.09889650466091     -0.23029649659866     -1.15059952731670
  N   -1.45420281036879      0.74380075079937      1.25920942844162
  H   -1.79613835457839      1.43699263701829      0.60474764208493
  H   -0.97923211896201      1.18920799981747      2.03365256663669
  C   1.33210950961476     -0.61665972508788     -1.07485350462652
  H   0.68153001125750     -1.20019823838202     -1.72841050115684
  H   1.85502954000454     -1.29448997806616     -0.40110687562582
  H   2.06814790227765     -0.10626456046074     -1.69766503537942
  C   1.36430958179553      1.26108235348548      0.54405102809452
  N   2.04082622096041      1.94123348632995      1.22129973374624
