16
Coordinates from ORCA-job run
  C   -0.63128067186242      0.07941165018505      0.49756654878047
  C   0.82694480206486     -0.14812645052452      0.07784819055813
  Cl  -0.70740241502021      0.97710968624812      2.02780084233630
  H   1.31607953013968     -0.68644315153936      0.89273747658602
  N   -1.22841198459862     -1.32867082531807      0.86186708617860
  O   -2.37751524348708     -1.53681656199565      0.49382166059454
  O   -0.50956887957871     -2.09312306379222      1.49091563335407
  N   -1.37624862772828      0.74571491755703     -0.48518164689228
  H   -1.35557943913496      0.23725880049676     -1.36274229565889
  H   -2.33793590686440      0.87272121081861     -0.19636129437958
  C   1.56210966074960      1.15818784522759     -0.22852970801796
  H   1.59558399728850      1.78594841295224      0.66145685483983
  H   2.58511547916730      0.93658413076597     -0.53662782169071
  H   1.05857585368385      1.70433981605890     -1.02505718886327
  C   0.81335964502093     -1.02134242739029     -1.09909500704860
  N   0.76417420015996     -1.68175398975017     -2.06941933067666
