16
Coordinates from ORCA-job run
  C   -0.73082103045063      0.00273497667508      0.50863732345551
  C   0.76555035425389     -0.17801640893180      0.14708369966436
  Cl  -0.83560776610293      0.81833551820896      2.07964292416449
  H   1.23401238865134     -0.73081549626255      0.96686322661932
  N   -1.26965312071014     -1.43458719748579      0.69238360077766
  O   -2.11164873184566     -1.81707747410675     -0.10864331381952
  O   -0.74986851752925     -2.09089130311443      1.58439913038386
  N   -1.57234742231371      0.66342143839462     -0.41348972132513
  H   -1.32183946214248      1.63555977003141     -0.52264621319937
  H   -1.62392673171101      0.18103119362311     -1.30129793613606
  C   1.48979064042493      1.14945452361107     -0.08189590337153
  H   2.53749072305903      0.95750445722220     -0.31746366981502
  H   1.05306816268367      1.69281469843649     -0.92155229247437
  H   1.44551285681696      1.76953421108879      0.81300701515489
  C   0.83189602998965     -0.99862226381875     -1.06393486918925
  N   0.85739162692634     -1.61938064357166     -2.06109300088984
