19

C	-0.318738	-0.038934	-1.488883
C	0.0	0.0	0.0
F	-1.710274	-0.246209	-1.666715
H	1.097414	0.0	0.0
C	0.057338	1.252569	-2.174522
H	-0.135903	1.149574	-3.243768
H	-0.511994	2.076313	-1.749313
H	1.121511	1.438988	-2.004619
N	0.34519	-1.140459	-2.168316
H	0.038069	-2.003954	-1.732386
H	1.336963	-1.042806	-1.937764
C	-0.478376	-1.23857	0.752082
H	-0.029958	-2.158693	0.368921
H	-0.176171	-1.153543	1.799875
H	-1.569338	-1.333386	0.70524
N	-0.460485	1.245289	0.620884
H	-1.366027	1.09773	1.055159
H	0.201248	1.483407	1.351934
H	2.982237	0.0	0.0
