19

C	-0.483765	0.04497	-1.440519
C	0.0	0.0	0.0
F	-1.89259	0.388322	-1.406667
H	1.095409	0.0	0.0
C	0.2143	1.129572	-2.221041
H	0.013843	2.085771	-1.742108
H	1.288763	0.934292	-2.193077
H	-0.14843	1.151927	-3.25506
N	-0.347871	-1.214468	-2.094015
H	-0.663865	-1.126017	-3.052566
H	-0.926777	-1.903678	-1.6316
C	-0.473044	-1.239717	0.753001
H	-1.566928	-1.332616	0.735172
H	-0.019961	-2.147261	0.345139
H	-0.149747	-1.161821	1.794394
N	-0.384912	1.257304	0.65093
H	0.303557	1.445037	1.371073
H	-1.296925	1.165979	1.083803
H	3.032134	0.0	0.0
