16

C	0.0	0.0	0.0
C	-0.391679	0.14577	-1.491726
Cl	1.762901	0.0	0.0
H	0.428883	-0.244043	-2.101262
H	-0.372257	0.829815	0.579792
N	-0.375445	-1.21971	0.788104
O	-0.251488	-2.316154	0.25886
O	-0.619185	-1.019149	1.972631
C	-0.595995	1.631331	-1.722652
H	0.253535	2.191572	-1.321527
H	-0.704777	1.857816	-2.781433
H	-1.511434	1.88407	-1.19297
N	-1.574152	-0.610124	-2.061632
O	-2.393648	0.030701	-2.711099
O	-1.517848	-1.832569	-2.034607
F	-2.300128	0.0	0.0
