16

C	0.0	0.0	0.0
C	-0.482085	0.403285	-1.421993
Br	1.963323	0.0	0.0
H	0.369452	0.316457	-2.109699
C	-0.41972	0.96267	1.016195
N	-0.544816	1.72502	1.90362
C	-0.324055	-1.429175	0.484961
H	-1.405956	-1.514834	0.486978
H	0.151052	-2.165321	-0.159105
H	0.084022	-1.522316	1.494394
C	-0.95249	1.782021	-1.468391
N	-1.197416	2.926696	-1.564483
N	-1.504789	-0.497243	-2.087538
O	-2.377461	0.037725	-2.751734
O	-1.241683	-1.693952	-2.085462
F	-2.410994	0.0	0.0
