17

C	-0.35309	-0.107203	-1.511924
C	0.0	0.0	0.0
Br	-0.190715	1.704606	-2.282382
H	1.09411	0.0	0.0
C	0.657474	-0.982476	-2.259968
H	0.460691	-2.03167	-2.046887
H	0.592846	-0.805546	-3.334873
H	1.64138	-0.713254	-1.857992
C	-1.744166	-0.499058	-1.730295
N	-2.863356	-0.833011	-1.868608
N	-0.433453	-1.281941	0.680647
O	-0.2508	-2.352557	0.100847
O	-0.917337	-1.196693	1.812079
N	-0.5223	1.137931	0.666919
H	-1.403462	0.935478	1.120345
H	0.143608	1.42392	1.371808
F	2.571411	0.0	0.0
