17

C	-0.266017	-0.006173	-1.502138
C	0.0	0.0	0.0
Br	-2.223884	0.239976	-1.891601
H	1.100613	0.0	0.0
C	0.522216	1.158227	-2.103917
H	0.47873	1.134994	-3.193193
H	1.548157	1.015489	-1.736096
H	0.130542	2.110942	-1.744885
C	0.129812	-1.212294	-2.224025
N	0.48325	-2.065445	-2.951719
N	-0.553724	-1.219364	0.67372
O	-0.560463	-2.26574	0.021596
O	-0.922601	-1.132989	1.840811
N	-0.397116	1.178952	0.680794
H	-1.21844	1.62815	0.301302
H	0.386527	1.809519	0.763237
F	2.546242	0.0	0.0
