17

C	-0.554187	-0.160484	-1.429965
C	0.0	0.0	0.0
Br	-0.048205	-1.882535	-2.245583
H	1.107675	0.0	0.0
C	-2.0706	-0.020961	-1.527791
H	-2.353472	0.952009	-1.120945
H	-2.392438	-0.081622	-2.56875
H	-2.558872	-0.811215	-0.955442
C	0.080891	0.871184	-2.251777
N	0.497724	1.701227	-2.971583
N	-0.533384	-1.113082	0.857645
O	-1.555848	-0.894734	1.528277
O	0.063312	-2.185993	0.854339
N	-0.423567	1.286202	0.483403
H	-1.249945	1.208487	1.062638
H	0.344734	1.667029	1.022124
F	2.530591	0.0	0.0
