12
Coordinates from ORCA-job run
  C   -0.65883660183968      0.37460705961570      0.36862737960426
  C   0.74460998093173      0.53983936379507     -0.17691484007814
  Br  -1.54183272307400      2.17461489875259      0.10213510512477
  H   0.74773032857988      0.70758784087785     -1.25287984200074
  H   -0.63931305242458      0.25967614196425      1.45002268943750
  H   1.27694291834837      1.33573256893313      0.34148231014106
  N   -1.31246472532783     -0.71354419907834     -0.23007408866253
  H   -2.20647107878053     -0.92087111125595      0.19185522709506
  H   -1.41451767127865     -0.61536754352646     -1.23172204058945
  N   1.48882064133482     -0.73120864965675      0.07724646992394
  O   1.87207127463897     -1.37277571420311     -0.89581225409331
  O   1.64426070889150     -1.03829065621799      1.25603388409757
