12
Coordinates from ORCA-job run
  C   -0.79297774949324      0.33222700819178      0.37430276085800
  C   0.71987253558491      0.51292197050048      0.32146328529997
  Br  -1.50996711202108      2.12272346333620      0.82181994342717
  H   1.12493948135966      0.81629067833292      1.28646502161746
  H   -1.05852769659776     -0.29749405026743      1.22185587562000
  H   1.01630689141865      1.20595518655983     -0.46415151721477
  N   -1.38685989286243     -0.18403866887884     -0.80367888621131
  H   -0.95647865346090      0.13771341361267     -1.65870482617204
  H   -1.48278388480045     -1.18798083149318     -0.79037511258160
  N   1.31134200604427     -0.81428384637777     -0.01582562245083
  O   1.87436308486638     -0.93330658261755     -1.10159119610863
  O   1.13977098996199     -1.71072774089911      0.80842027391658
