12
Coordinates from ORCA-job run
  C   -0.77653521633828      0.33378952413626      0.24047151271977
  C   0.71481135575010      0.33671483599613      0.50080885634647
  Br  -1.44581846444584      2.04489054399707      0.90052673839767
  H   0.95150858420649      0.46863616513247      1.55755195851323
  H   -1.27391985813045     -0.41846528193456      0.85929795074095
  H   1.20533254300614      1.10964342394893     -0.08933074128812
  N   -1.03890223477068      0.24695313045313     -1.17760093578224
  H   -0.85927992553399     -0.70770991559927     -1.47044121212058
  H   -2.01209318737256      0.45332941728623     -1.36563681540619
  N   1.34929143873468     -0.96435373960519      0.10260333322391
  O   0.61260280479538     -1.92442663211613     -0.12508253842598
  O   2.57300216009901     -0.98000147169507      0.06683189308112
