12
Coordinates from ORCA-job run
  C   -0.76999777037606      0.37789683383208      0.31892572317412
  C   0.68082949934916      0.11345554889725      0.67285357434336
  Br  -0.77459143699798      1.92457576197752     -0.99703920556219
  H   1.14075077415964      0.98181960318819      1.13746683549982
  H   -1.25113213642792      0.82634975301927      1.18776672063672
  H   0.73194505445678     -0.75641109312796      1.33291203920287
  N   -1.47561140252431     -0.76518069609599     -0.08789915292716
  H   -1.05335156513342     -1.20454430234113     -0.89443704457043
  H   -2.45334460743609     -0.57314694759711     -0.25470539469109
  N   1.52599336443746     -0.21592764021005     -0.51390595677635
  O   2.61486007736430      0.33959148224264     -0.59882738732765
  O   1.08365014912845     -1.04947830378471     -1.30311075100202
