12
Coordinates from ORCA-job run
  C   -0.70625737353529      0.50733030236012      0.35371904882943
  C   0.73044255089385      0.57174984582176     -0.15216022774611
  Br  -1.44224439265339      2.31814263450016      0.05022595233345
  H   0.77420032695271      0.78449430251827     -1.21900776559066
  H   -0.70929720429784      0.37753619895187      1.43471685822927
  H   1.32813871771380      1.28473847215086      0.41525570907101
  N   -1.52065055995906     -0.48762181156250     -0.24360152540536
  H   -1.50977363317158     -1.35941956753834      0.26404567647682
  H   -1.34006527845524     -0.62973907176214     -1.22717773507556
  N   1.33166700119427     -0.77828394062148      0.05190698624678
  O   1.42656623237329     -1.16003170640394      1.21712997774707
  O   1.63827361294448     -1.42789565841464     -0.94505295511616
