12
Coordinates from ORCA-job run
  C   -0.75925083809249      0.34323290246581      0.29181173246440
  C   0.74867069997167      0.41063501480813      0.43763381240423
  Br  -1.47602280601557      2.04527607527841      0.93583357469758
  H   1.03644871086475      0.58731644401296      1.47323418660190
  H   -1.16285129616354     -0.40174291996829      0.98324154370812
  H   1.17221202859255      1.15371804487241     -0.23438896366146
  N   -1.11642004145293      0.18140144789432     -1.09202408660109
  H   -2.11959980867359      0.09127364375175     -1.19343448750823
  H   -0.68267438211799     -0.65176104048821     -1.47515632221311
  N   1.31994189172911     -0.91836552886946      0.05414484542370
  O   0.93419498514769     -1.88548887557769      0.70938653387740
  O   2.10635085621034     -0.95649520818013     -0.88928236919343
