12
Coordinates from ORCA-job run
  C   -0.77502758118680      0.44078975853907      0.20593895935497
  C   0.62251216936864      0.15368223694115      0.72053776858753
  Br  -0.58256457280623      1.84169255897215     -1.25153923755090
  H   1.08281114651967      1.04470074379011      1.13955267830782
  H   -1.30920809250371      0.99680738011556      0.97597729869270
  H   0.56829670435941     -0.64624993065145      1.46350910681560
  N   -1.49802481987009     -0.70819418973484     -0.15017679528083
  H   -1.02695405749230     -1.24724948803303     -0.86379241024448
  H   -2.44539004570447     -0.49395526030506     -0.42788930681065
  N   1.55238685770782     -0.32991964674458     -0.34387295162816
  O   2.66771209281727      0.17573195017128     -0.38736142716534
  O   1.14345019879081     -1.22683611306035     -1.07988368307826
