16

C	0.0	0.0	0.0
C	-0.549847	-0.082477	-1.421963
F	1.395884	0.0	0.0
H	-1.497558	-0.627304	-1.350161
H	-0.314137	0.944065	0.450129
C	-0.465914	-1.169662	0.832159
H	-0.015442	-1.133174	1.828676
H	-0.168156	-2.098993	0.339188
H	-1.557183	-1.111012	0.901099
N	0.37087	-0.835638	-2.256185
H	1.210123	-0.278672	-2.374618
H	-0.050241	-0.968028	-3.168921
N	-0.798144	1.286909	-1.911526
H	-1.619203	1.589185	-1.376331
H	-1.140252	1.192178	-2.866995
H	-3.365422	0.0	0.0
