16

C	0.0	0.0	0.0
C	-0.408247	0.023677	-1.472877
F	1.406761	0.0	0.0
H	0.329839	0.693901	-1.951039
H	-0.304873	0.95638	0.433393
C	-0.542349	-1.147055	0.807807
H	-0.243602	-2.10132	0.375291
H	-1.636102	-1.078023	0.797947
H	-0.183106	-1.077778	1.839265
N	-1.704112	0.612364	-1.626709
H	-2.447932	0.27094	-0.971938
H	-2.05076	0.482943	-2.570665
N	-0.261371	-1.34583	-2.024905
H	0.730713	-1.573987	-2.017013
H	-0.545596	-1.315382	-2.998881
H	-3.796481	0.0	0.0
