16

C	0.0	0.0	0.0
C	-0.490455	0.026698	-1.428172
F	1.411637	0.0	0.0
H	-1.587884	0.05359	-1.338449
H	-0.306288	0.9396	0.464785
C	-0.517137	-1.172533	0.785838
H	-0.206379	-2.108654	0.320588
H	-0.150636	-1.127853	1.816325
H	-1.613208	-1.092575	0.773059
N	-0.095788	-1.209999	-2.107626
H	0.910153	-1.198219	-2.243193
H	-0.535527	-1.243112	-3.019794
N	-0.033436	1.27511	-2.048619
H	0.978358	1.242662	-2.126759
H	-0.41616	1.33994	-2.984972
H	-3.455889	0.0	0.0
