16

C	0.0	0.0	0.0
C	-0.493882	-0.073365	-1.43304
F	1.409145	0.0	0.0
H	-1.580739	-0.207601	-1.348692
H	-0.313125	0.958554	0.423625
C	-0.498294	-1.135802	0.852748
H	-0.097518	-1.055253	1.868286
H	-0.199442	-2.087838	0.411601
H	-1.593197	-1.056177	0.868463
N	0.109513	-1.226761	-2.086823
H	1.114486	-1.085078	-2.102082
H	-0.205154	-1.212993	-3.050072
N	-0.260511	1.169807	-2.186366
H	0.639698	1.553355	-1.905814
H	-0.97469	1.834701	-1.899465
H	-3.37763	0.0	0.0
