16

C	0.0	0.0	0.0
C	-0.555987	0.074849	-1.407382
F	1.396642	0.0	0.0
H	-1.596078	0.40279	-1.264679
H	-0.297752	0.930597	0.492364
C	-0.50593	-1.181063	0.788013
H	-0.152443	-1.124164	1.821276
H	-1.602537	-1.135849	0.770495
H	-0.141976	-2.10956	0.3433
N	-0.506386	-1.247408	-2.069478
H	-0.833122	-1.098026	-3.021288
H	-1.237338	-1.805845	-1.632862
N	0.179119	1.082576	-2.149412
H	1.108844	0.718856	-2.331115
H	-0.279321	1.245296	-3.038578
H	-3.46207	0.0	0.0
