16

C	0.0	0.0	0.0
C	-0.358883	0.062723	-1.486832
F	1.406694	0.0	0.0
H	0.361217	0.792752	-1.903079
H	-0.312434	0.941568	0.459824
C	-0.55399	-1.174748	0.756625
H	-1.646893	-1.084125	0.751233
H	-0.271325	-2.112642	0.279765
H	-0.192477	-1.158174	1.789393
N	-1.681905	0.566586	-1.701069
H	-2.010305	0.324609	-2.628937
H	-2.411387	0.251513	-1.019012
N	-0.087995	-1.272877	-2.076148
H	0.902024	-1.463459	-1.933417
H	-0.218167	-1.193357	-3.080419
H	-3.717383	0.0	0.0
