16

C	0.0	0.0	0.0
C	-0.399525	-0.243242	-1.453176
F	1.404301	0.0	0.0
H	0.332674	-0.985887	-1.822787
H	-0.320789	1.001642	0.29636
C	-0.496187	-1.045494	0.965064
H	-0.216579	-2.043915	0.620947
H	-0.057703	-0.868574	1.952193
H	-1.585483	-0.98153	1.02536
N	-0.206737	1.043103	-2.172462
H	0.784906	1.268933	-2.129969
H	-0.424952	0.884474	-3.15188
N	-1.707579	-0.811417	-1.563071
H	-2.024816	-0.798266	-2.525415
H	-2.452931	-0.366037	-0.974084
H	-3.775127	0.0	0.0
