16

C	0.0	0.0	0.0
C	-0.522284	-0.00908	-1.431364
F	1.394969	0.0	0.0
H	-1.595223	-0.233429	-1.34483
H	-0.318651	0.928045	0.484927
C	-0.503981	-1.178015	0.794345
H	-1.599582	-1.103609	0.815316
H	-0.101357	-1.155116	1.811173
H	-0.196334	-2.118049	0.32455
N	0.122857	-0.998697	-2.287435
H	1.116445	-0.983703	-2.081974
H	-0.230633	-1.917897	-2.051414
N	-0.279376	1.30533	-2.039827
H	-0.568878	1.213845	-3.00835
H	-0.93509	1.94972	-1.604388
H	-3.38023	0.0	0.0
