16

C	0.0	0.0	0.0
C	-0.438634	0.021647	-1.479171
F	1.403559	0.0	0.0
H	-0.406215	-1.027537	-1.832334
H	-0.30485	0.951167	0.448704
C	-0.540565	-1.16573	0.781239
H	-0.220159	-2.107327	0.325811
H	-1.635601	-1.10527	0.769865
H	-0.188553	-1.137263	1.81637
N	0.47637	0.770494	-2.350444
H	1.432073	0.592937	-2.063223
H	0.266614	1.747226	-2.165969
N	-1.720491	0.666772	-1.590194
H	-2.108807	0.458235	-2.50388
H	-2.44588	0.357513	-0.897348
H	-3.780525	0.0	0.0
