16

C	0.0	0.0	0.0
C	-0.378735	0.053909	-1.487007
F	1.406299	0.0	0.0
H	0.235139	0.880925	-1.888986
H	-0.307341	0.940996	0.469144
C	-0.537385	-1.175278	0.768481
H	-1.629881	-1.094435	0.788769
H	-0.25103	-2.106605	0.281303
H	-0.15484	-1.158124	1.793898
N	-1.753035	0.337902	-1.819332
H	-2.449577	-0.041842	-1.143069
H	-1.906243	1.337782	-1.75258
N	-0.009102	-1.226762	-2.100273
H	-0.379944	-1.201942	-3.042123
H	1.00138	-1.29822	-2.141323
H	-3.765448	0.0	0.0
