17

C	-0.165577	0.045754	-1.53614
C	0.0	0.0	0.0
Cl	-0.013591	-1.715018	-2.189209
H	1.096899	0.0	0.0
N	-1.49073	0.434105	-1.974596
H	-1.594284	1.41238	-1.720542
H	-1.528874	0.370506	-2.985771
N	0.900464	0.848234	-2.002347
H	1.03391	0.764627	-3.001489
H	1.765355	0.613903	-1.472248
C	-0.63951	-1.170269	0.726528
H	-0.604463	-0.997282	1.805206
H	-1.681395	-1.304938	0.421543
H	-0.083567	-2.082988	0.50964
C	-0.482558	1.268905	0.523077
N	-0.904004	2.273712	0.968786
F	2.65363	0.0	0.0
