17

C	-0.168166	-0.183057	-1.533523
C	0.0	0.0	0.0
Cl	0.044679	-1.953045	-1.904944
H	1.094054	0.0	0.0
N	-1.482327	0.171625	-2.011073
H	-1.446016	0.172381	-3.025555
H	-1.691625	1.114349	-1.698165
N	0.909906	0.489994	-2.232651
H	1.763429	0.309667	-1.670197
H	0.727038	1.487058	-2.144838
C	-0.639993	-1.0303	0.917536
H	-0.577484	-0.69376	1.956032
H	-1.689923	-1.201669	0.661854
H	-0.096136	-1.97057	0.836012
C	-0.443497	1.347775	0.31185
N	-0.815481	2.445016	0.522487
F	2.63405	0.0	0.0
