17

C	-0.15643	-0.050438	-1.537498
C	0.0	0.0	0.0
Cl	0.074008	1.706277	-2.137386
H	1.097635	0.0	0.0
N	0.915691	-0.792986	-2.140704
H	1.76459	-0.557549	-1.593917
H	0.708436	-1.773835	-1.985937
N	-1.4091	-0.568643	-1.976377
H	-2.160021	0.004072	-1.608989
H	-1.436108	-0.530373	-2.988602
C	-0.415009	-1.321779	0.651182
H	-0.129738	-1.300433	1.70589
H	-1.485681	-1.527039	0.571037
H	0.137599	-2.137621	0.18148
C	-0.648986	1.112648	0.655557
N	-1.221141	1.955471	1.246139
F	2.627564	0.0	0.0
