14

C	0.0	0.0	0.0
C	-0.36366	0.00019	-1.511156
Cl	1.766034	0.0	0.0
H	-1.443349	0.063448	-1.578912
H	0.145392	0.856574	-1.966667
C	-0.526294	1.225218	0.595612
N	-0.6792	2.293336	1.086301
N	-0.569001	-1.164888	0.74422
O	-0.589453	-1.058022	1.978866
O	-0.569761	-2.240978	0.11067
N	0.030781	-1.200617	-2.321563
O	-0.89457	-1.824685	-2.839401
O	1.222032	-1.436893	-2.508048
H	-2.204386	0.0	0.0
