14

C	0.0	0.0	0.0
C	-0.201994	-0.053771	-1.524145
Cl	1.794824	0.0	0.0
H	0.389403	0.750961	-1.961046
H	0.141991	-1.02705	-1.864801
C	-0.591125	1.151721	0.640874
N	-0.660937	2.214076	1.163357
N	-0.399575	-1.262286	0.708677
O	-0.497521	-1.196206	1.933574
O	-0.376038	-2.30337	0.047949
N	-1.567832	0.137771	-2.093927
O	-2.157912	-0.859411	-2.508327
O	-1.928895	1.301662	-2.267752
H	-1.923983	0.0	0.0
