14

C	0.0	0.0	0.0
C	-0.310541	0.104395	-1.500139
Cl	1.79754	0.0	0.0
H	-1.387112	0.240467	-1.610324
H	0.041717	-0.789288	-2.002807
C	-0.639425	0.988608	0.855756
N	-0.661977	1.883441	1.635843
N	-0.38106	-1.386756	0.504948
O	-0.411435	-2.300035	-0.318181
O	-0.438584	-1.520613	1.722042
N	0.363633	1.258008	-2.146914
O	0.910591	1.048846	-3.231781
O	0.261313	2.357854	-1.608487
H	-2.142512	0.0	0.0
