14

C	0.0	0.0	0.0
C	-0.436496	-0.235845	-1.476583
Cl	1.781178	0.0	0.0
H	-1.332227	-0.836281	-1.504933
H	-0.598766	0.740913	-1.928368
C	-0.625021	1.203009	0.522894
N	-0.648824	2.311657	0.94776
N	-0.38614	-1.180976	0.876101
O	-0.452101	-2.277156	0.329315
O	-0.418967	-0.97044	2.082349
N	0.566481	-0.929462	-2.36284
O	1.328511	-0.223264	-3.026528
O	0.506446	-2.157405	-2.434962
H	-2.149393	0.0	0.0
