13
Coordinates from ORCA-job run
  C   -0.46635851022270     -0.85663084388486     -0.15163673996271
  C   0.30828666801526      0.25946049938650      0.55394006808563
  Br  -2.28479401562594     -0.37441757010292     -0.51283270696953
  H   1.31166381567187     -0.14273628026951      0.72514088910951
  H   -0.46703519439046     -1.77447166523359      0.43617894769723
  N   0.31006000376776     -1.17722845615184     -1.41861265069174
  O   1.42946495492508     -1.62274991304763     -1.18294887128799
  O   -0.18498458956122     -0.97681710818246     -2.51262860784263
  C   -0.30043155173543      0.53212941278506      1.86986388333542
  N   -0.76563512110789      0.79880889101441      2.91523997891398
  N   0.42941867812359      1.39906580868396     -0.32965200526240
  H   -0.45081018248460      1.89443780304017     -0.40538945327624
  H   1.13215504462468      2.04114942196272      0.01333726815147
