13
Coordinates from ORCA-job run
  C   0.33353549197094     -0.84539633902702     -0.23244807203120
  C   -0.11415292358814      0.40341896447888      0.53165856451098
  Br  0.65840131282902     -2.32263406026699      0.94918392606035
  H   -0.99292302639831      0.12758259881631      1.11900429352206
  H   1.23430896590677     -0.67081294777238     -0.81980040617563
  N   -0.73716986037564     -1.24293579841643     -1.21192868737062
  O   -0.36192536379507     -1.54567340290557     -2.33951887332901
  O   -1.89129602102058     -1.23209199356057     -0.79688020767424
  C   -0.52112512295686      1.42700878817524     -0.45424477007507
  N   -0.77769041065838      2.27433220383126     -1.22729723443753
  N   0.94347715236483      0.83705919029326      1.42159339917628
  H   0.57157631755606      1.43803594529387      2.14500502808645
  H   1.65297988606436      1.35310672572752      0.91567191414718
