13
Coordinates from ORCA-job run
  C   -0.36012623613954     -0.91762433354938      0.04245354908513
  C   0.27205875124889      0.40606783918475      0.48005400903888
  Br  -2.22073667098365     -0.74072770218242     -0.37760622393804
  H   1.31528969527775      0.17011434041083      0.71202895188614
  H   -0.25501911380736     -1.68275253847396      0.81152860887154
  N   0.45692162224963     -1.40768059951138     -1.14238438791879
  O   1.61950593229587     -1.65940020076831     -0.83901513431770
  O   -0.05159671473484     -1.50467639856623     -2.24428782993336
  C   -0.37203369562295      0.87925077335226      1.71994803435153
  N   -0.87153834751051      1.30651008716594      2.69374216973464
  N   0.26151248052892      1.33811472350241     -0.62717200221958
  H   0.87769464068037      2.11853371029776     -0.43945519312709
  H   -0.67193234348259      1.69627029913773     -0.78983455151333
