13
Coordinates from ORCA-job run
  C   0.34821791176798     -0.72800658955115     -0.24361039055710
  C   -0.18181461101134      0.50548229250748      0.51404566668670
  Br  0.86622619963628     -2.12247666434083      0.97953044711811
  H   -1.05766803249936      0.18052060348724      1.08269299760811
  H   1.20404281235309     -0.49230466054491     -0.87495001064898
  N   -0.72139681572453     -1.25938650061174     -1.15844778259071
  O   -0.39386111694087     -1.45764741664008     -2.32384232581352
  O   -1.83040174158686     -1.42869284680388     -0.66344317492794
  C   -0.62715281221763      1.47585318747821     -0.49754856155466
  N   -0.94403575731272      2.23376936783782     -1.33640163322164
  N   0.75180236664013      1.14374932965051      1.41303793627450
  H   1.59770395352598      1.42488019535395      0.93281737390958
  H   0.99033764336986      0.52525970217739      2.17711945771756
