13
Coordinates from ORCA-job run
  C   -0.29859467129915     -0.85025407608565      0.08527752859091
  C   0.34239113048630      0.48493736105733      0.52012208087658
  Br  -2.20601770698604     -0.71838027290422     -0.06764639687590
  H   1.41625257595401      0.29356168406029      0.59720867601470
  H   -0.07618847315774     -1.65195249146336      0.79405391384921
  N   0.32681312221285     -1.29916274735459     -1.23140923877183
  O   1.51279955296693     -1.00319283268166     -1.36320212446145
  O   -0.34376771527579     -1.95423670034438     -2.01277187569448
  C   -0.14705892415037      0.80121686741489      1.86853031715018
  N   -0.53568909543086      1.03350331984703      2.95121171203551
  N   0.16051651508445      1.61070901244975     -0.36141039270729
  H   -0.81835533693231      1.77844882688607     -0.55621326514700
  H   0.66889902652771      1.47380204911850     -1.22475093485915
