13
Coordinates from ORCA-job run
  C   0.19257857501371     -0.91080667917810     -0.12756143607003
  C   -0.08669102378443      0.46418149249893      0.48502427202623
  Br  0.13292432742351     -2.30238171400903      1.19201357784256
  H   -1.05015872896677      0.40259250223075      0.99625352340751
  H   1.15920472791338     -0.95228920072714     -0.62809999460618
  N   -0.83973053123628     -1.20285477059331     -1.18240044676128
  O   -0.42274318762727     -1.64203627095220     -2.24881287106395
  O   -2.00749062362686     -0.97441167916972     -0.88536127080758
  C   -0.20965775405596      1.44379856655578     -0.61521642439129
  N   -0.23716972754628      2.24692014479353     -1.47282217361405
  N   0.94739391382772      0.79055627720466      1.44599722268488
  H   1.78709722484404      1.10905069313469      0.97727614402181
  H   0.63344280782149      1.52768063821117      2.06370987733138
