13
Coordinates from ORCA-job run
  C   0.32922366402835     -0.73626223649480     -0.24523162135549
  C   -0.16173764953431      0.51302517062020      0.51313869455804
  Br  0.84627136294652     -2.13093980885949      0.97801744363988
  H   -1.03372243258943      0.20944371814559      1.09933388857989
  H   1.17565739066477     -0.52214468803107     -0.89655092596135
  N   -0.76918847926174     -1.25423654564052     -1.13320319336174
  O   -0.46962403364697     -1.46795888164210     -2.30342522723558
  O   -1.87093262755885     -1.39746809798385     -0.61424318724386
  C   -0.60620162569844      1.48474550618391     -0.49766075873324
  N   -0.92460552952659      2.24219450266021     -1.33645246449159
  N   0.80059463810741      1.13863929177710      1.39035353703963
  H   1.04191402934180      0.52020730573959      2.15353932938383
  H   1.64235129272750      1.39975476352524      0.89238448518158
