13
Coordinates from ORCA-job run
  C   -0.54263797115570     -0.71592348823579     -0.28641836252477
  C   0.10442238074132      0.37046255752724      0.58260251959529
  Br  -1.83661273350260     -0.03065536731264     -1.52721623615402
  H   0.90409820557553     -0.14391151637751      1.14195305757208
  H   -1.04447114538208     -1.46184291378508      0.33012529885989
  N   0.50821591659742     -1.48415752903904     -1.05212003680110
  O   1.58522465656333     -0.92809397625313     -1.25905267143260
  O   0.19874329262010     -2.61425141092195     -1.40531925882341
  C   -0.89921353028068      0.79933376854893      1.56418020750573
  N   -1.68494562846582      1.14572660896670      2.36411988500146
  N   0.55407925522691      1.51621872878107     -0.18204925486691
  H   0.77426498569921      2.28575120060960      0.43681665980772
  H   1.37983231576305      1.26234333749159     -0.70762180773936
