13
Coordinates from ORCA-job run
  C   0.32941424346199     -0.85209884481765     -0.21175215231552
  C   -0.07094369013477      0.43328770362821      0.51759677772788
  Br  0.79986849032560     -2.24878837164501      1.01740553207608
  H   -0.88213957738674      0.17755951835285      1.20315067163494
  H   1.16413376299915     -0.69842268855263     -0.89473931171230
  N   -0.82328140236295     -1.32336865015117     -1.05629011855245
  O   -1.92767845992682     -1.32778204206606     -0.52309680737378
  O   -0.55795451186090     -1.65951382893840     -2.20548172950766
  C   -0.59444087220963      1.38652263344534     -0.48352122949597
  N   -0.94449146430146      2.16412505188601     -1.29224612406219
  N   1.05679833949092      0.93822239801769      1.27415708312113
  H   0.74236406592058      1.58454828929623      1.98576185872982
  H   1.70735107598503      1.42570883154457      0.67005554973002
