13
Coordinates from ORCA-job run
  C   0.28846453102200     -0.87096292261480     -0.20700580983400
  C   -0.11619147992842      0.41278047560239      0.52328924076350
  Br  0.44299899220263     -2.35560830715346      0.99960991036805
  H   -1.04148218622208      0.20097959410023      1.06422004822869
  H   1.23262471173125     -0.76333636504509     -0.73969212892322
  N   -0.74868378385328     -1.19886481864941     -1.24559541569201
  O   -0.33233298183156     -1.50004739964618     -2.35920422356395
  O   -1.92042820718715     -1.13280035024220     -0.88951829617893
  C   -0.40122205472045      1.45133435004702     -0.48908026677706
  N   -0.56080984087512      2.30708627272416     -1.27865248189636
  N   0.91881090246229      0.78430384909837      1.46690087329749
  H   0.54980241970044      1.42049396590112      2.16109489144816
  H   1.68744897749946      1.24564165587785      0.99563365875965
