13
Coordinates from ORCA-job run
  C   -0.48510144980446     -0.66169920757392     -0.33948715340494
  C   0.03189967260079      0.41053494040791      0.65449081023462
  Br  -1.26115411630523      0.11015491652222     -1.91958275366659
  H   0.62158878419177     -0.14264374106014      1.39809026895660
  H   -1.23397904935270     -1.30845632489095      0.11556327161459
  N   0.64279454974441     -1.57363773275677     -0.73668742601843
  O   1.70097081706461     -1.04970143987734     -1.07439153484597
  O   0.41790266663222     -2.77760944482730     -0.66902237793239
  C   -1.14705172653194      0.94977635233951      1.34477417313625
  N   -2.10823581002092      1.36587031183734      1.87440889761202
  N   0.84621500337853      1.49198945468779      0.15995307256533
  H   0.32005441499406      2.06879526893145     -0.48456089805474
  H   1.65309624340885      1.11662664626020     -0.32154835019635
