13
Coordinates from ORCA-job run
  C   0.31121396569205     -0.83117387540795     -0.19871340204956
  C   -0.10427112370599      0.50063277140940      0.42785417755073
  Br  0.50271590268840     -2.19674102647226      1.14783476780665
  H   -1.06579597424149      0.35017897161769      0.93507965669639
  H   1.25530519540668     -0.74064484122214     -0.73169635414514
  N   -0.72376073715943     -1.28322315622479     -1.18877345284787
  O   -0.30349262097523     -1.69687236678975     -2.26410237281548
  O   -1.89668689689667     -1.19519360198182     -0.84024235944451
  C   -0.31687400236913      1.46155835745617     -0.66206859304834
  N   -0.47810060279947      2.23443242804192     -1.53091829931511
  N   0.98449399127528      0.96986187975742      1.27695250445326
  H   0.87276428591663      1.95737998053925      1.47021045061866
  H   0.96248861716837      0.47180447927686      2.15858327654032
