13
Coordinates from ORCA-job run
  C   -0.49667478871840     -0.84130158498300     -0.14326618761497
  C   0.17099644211159      0.33638721020715      0.57111495855015
  Br  -2.08472310757830     -0.32627946185149     -1.08286137528389
  H   1.04065260125380     -0.08623305097055      1.08394643242858
  H   -0.75620518546966     -1.63664417520582      0.55537666951054
  N   0.55766188890022     -1.43019664373599     -1.06712564955852
  O   0.40454039213581     -1.40184348363514     -2.27452907518398
  O   1.51496505705587     -1.89166991439412     -0.45258762136622
  C   -0.73973053384383      0.87846363845879      1.59710560768934
  N   -1.43921856284329      1.35780569043683      2.41028483519775
  N   0.65055228358672      1.28854799999092     -0.40775957062908
  H   1.29572728054002      1.94072018424226      0.01924588732978
  H   -0.11754376713054      1.81224359144016     -0.80994491106947
