13
Coordinates from ORCA-job run
  C   0.02802698514022     -0.98346605082408      0.16428980564687
  C   -0.09614240937199      0.42524855854440      0.76813677480600
  Br  -1.45782076974123     -2.12580030476682      0.59125738054708
  H   -0.02757374034821      0.28343142686722      1.85342427067456
  H   0.93498527768229     -1.46822091027487      0.52342190393822
  N   0.19234812796565     -0.89361004466983     -1.32654072435793
  O   1.16353024089902     -1.47792329408927     -1.79988755943070
  O   -0.62860262174684     -0.22110348340706     -1.93980271889354
  C   -1.40222363153840      1.04312586286238      0.50684871121844
  N   -2.43759506708032      1.57218632068304      0.34954940875917
  N   0.95908982079433      1.32979879394047      0.36071602980123
  H   0.89821691281601      1.55718947195828     -0.62350873535581
  H   1.87576087452948      0.95814365317613      0.57409545264640
