13
Coordinates from ORCA-job run
  C   0.26312478743285     -0.87926303676749     -0.20604359079300
  C   -0.08736349711724      0.42115331319110      0.52222827603167
  Br  0.42932514797326     -2.35224770538952      1.01320359789937
  H   -0.99495697740969      0.23439155231048      1.10076940379418
  H   1.18839108722383     -0.79858312787983     -0.77556710825852
  N   -0.81856502142012     -1.19770073297561     -1.20185719124479
  O   -0.45008470550707     -1.52345634002115     -2.32522986590639
  O   -1.97504790304130     -1.10060113533998     -0.80444779846696
  C   -0.39150234284767      1.45309668256070     -0.49131086915284
  N   -0.56611619810171      2.30300504692154     -1.28401452166816
  N   0.98991734689710      0.78297566485245      1.42072624407828
  H   0.66168170293446      1.43673075026290      2.11925005329322
  H   1.75119657298329      1.21849906827441      0.91429337039393
