13
Coordinates from ORCA-job run
  C   -0.48250295610695     -0.68950768259397     -0.27324340923179
  C   0.07075524968320      0.43542037590005      0.63786023213684
  Br  -1.41448292514036     -0.00367690980686     -1.80915614656846
  H   0.74022899294620     -0.06749990445593      1.34873920005028
  H   -1.16822404721294     -1.34494374856216      0.26224509172160
  N   0.63815720884064     -1.57858128263461     -0.73882796795351
  O   1.67361504655387     -1.03452520128456     -1.11415672001910
  O   0.42751044093160     -2.78591513082597     -0.69569765420205
  C   -1.06894823586721      0.95634481411399      1.40463359440100
  N   -1.99868065334041      1.35843957920313      1.99746651117918
  N   0.79863261269022      1.52835384134448      0.04334252874795
  H   1.58161168339421      1.16616472743414     -0.48482288234257
  H   0.20132758262793      2.05992652216827     -0.57738237791937
