13
Coordinates from ORCA-job run
  C   0.10401261144817     -1.03890115058811      0.12657795953228
  C   0.02614287957249      0.35925376688231      0.72994365203627
  Br  -1.30386703982714     -2.19158713376889      0.75131422779439
  H   0.20668067525089      0.21293439801448      1.80060272162336
  H   1.06029345001911     -1.49158158356646      0.38220610966129
  N   0.06906823831496     -0.99708025426339     -1.37920971016268
  O   -0.44965854140530     -0.01543807464419     -1.90453428115037
  O   0.56587767287722     -1.95596704586302     -1.95466543009415
  C   -1.30542568421119      0.97976276659558      0.60120122835801
  N   -2.32541917502497      1.55742153547831      0.52908524502709
  N   1.12519350976717      1.14185357170515      0.19004000949350
  H   1.36885231607330      1.89119403370617      0.82464801621160
  H   0.85824908714528      1.54813517031206     -0.69820974833059
