13
Coordinates from ORCA-job run
  C   0.03361666648490     -1.06727643082449      0.11152960455623
  C   0.02600054436084      0.32612741869459      0.75819714619053
  Br  -1.30667344802472     -2.20616147128357      0.86672458412589
  H   -0.07770747202998      0.15798826278415      1.83371798186899
  H   1.01552392610395     -1.51654650366224      0.25461002805757
  N   -0.14256492467622     -0.91482552692667     -1.38907750502048
  O   0.82316810475318     -0.38175196033621     -1.93476638295601
  O   -1.17813016731152     -1.26744594338821     -1.92764916834409
  C   -1.16673201555487      1.07669735777017      0.31000250818879
  N   -2.06948548639471      1.73145163558682     -0.06026310170498
  N   1.29559642734391      0.99448817266532      0.54163779259486
  H   1.42422668961860      1.21048627459004     -0.43900267536755
  H   1.32316115532663      1.85676871433028      1.07233918781026
