17

C	0.0	0.0	0.0
C	-0.319102	-0.014443	-1.510655
F	1.359213	0.0	0.0
H	0.226413	0.852257	-1.894211
N	-0.296821	1.421686	0.587175
O	-0.280388	2.381664	-0.17629
O	-0.436173	1.472987	1.805364
N	-0.578812	-1.019991	0.738705
H	-1.587828	-1.024051	0.569303
H	-0.418868	-0.877963	1.72968
C	-1.762878	0.069463	-1.986565
H	-1.749586	0.230359	-3.068569
H	-2.331883	-0.828058	-1.763052
H	-2.291429	0.890237	-1.51136
C	0.332914	-1.203538	-2.072753
N	0.824144	-2.133012	-2.595853
Cl	-4.232278	0.0	0.0
