17

C	0.0	0.0	0.0
C	-0.285783	0.254073	-1.501609
F	1.359109	0.0	0.0
H	0.352257	1.113835	-1.724495
N	-0.290176	1.308655	0.812429
O	-0.477095	1.159064	2.015469
O	-0.218681	2.382691	0.224041
N	-0.600027	-1.118687	0.547853
H	-1.609644	-1.065341	0.37004
H	-0.455592	-1.142758	1.550775
C	-1.683811	0.557983	-2.023433
H	-1.58487	0.836232	-3.077267
H	-2.358187	-0.286613	-1.932806
H	-2.135761	1.377557	-1.472512
C	0.287759	-0.884649	-2.230994
N	0.726854	-1.761785	-2.876297
Cl	-4.001563	0.0	0.0
