17

C	-0.39029	0.057467	-1.479231
C	0.0	0.0	0.0
Cl	-0.112868	-1.613338	-2.15654
H	1.093555	0.0	0.0
H	-0.427025	-0.8911	0.474834
C	-1.848263	0.392777	-1.728158
H	-2.071583	0.422858	-2.798748
H	-2.498002	-0.353723	-1.261861
H	-2.054136	1.368054	-1.282302
C	0.582223	0.997988	-2.175581
H	0.492965	0.949531	-3.265737
H	0.361406	2.01695	-1.84056
H	1.590704	0.735685	-1.833583
N	-0.415445	1.257468	0.660233
H	-1.09803	1.073925	1.381804
H	0.415095	1.620207	1.110699
F	2.747864	0.0	0.0
