17

C	-0.202842	0.007715	-1.500314
C	0.0	0.0	0.0
Cl	-1.992774	-0.052738	-1.947076
H	1.096182	0.0	0.0
H	-0.380806	-0.943689	0.416707
C	0.402888	1.271322	-2.075986
H	1.444106	1.267935	-1.733568
H	-0.102873	2.14824	-1.6731
H	0.352723	1.276988	-3.168715
C	0.483961	-1.222995	-2.064249
H	0.461051	-1.232449	-3.157036
H	1.513917	-1.171391	-1.692371
H	0.012873	-2.13813	-1.695226
N	-0.510401	1.192902	0.669488
H	-1.397715	1.001852	1.116207
H	0.156698	1.453112	1.38477
F	2.748229	0.0	0.0
