17

C	-0.312114	-0.049804	-1.503402
C	0.0	0.0	0.0
Cl	0.046352	1.617943	-2.149107
H	1.094076	0.0	0.0
H	-0.4537	0.887347	0.45255
C	0.673864	-1.003285	-2.165755
H	1.668213	-0.764014	-1.764716
H	0.422101	-2.031167	-1.881534
H	0.644401	-0.927742	-3.256847
C	-1.765882	-0.322196	-1.860913
H	-2.059801	-1.324993	-1.531469
H	-1.92051	-0.267575	-2.941973
H	-2.420679	0.410638	-1.37891
N	-0.378949	-1.215301	0.733514
H	0.414965	-1.839416	0.70402
H	-1.180461	-1.690077	0.33939
F	2.747649	0.0	0.0
