13

C	0.0	0.0	0.0
C	-0.23635	-0.108996	-1.548604
Br	1.966972	0.0	0.0
H	0.254722	-1.04429	-1.853079
H	-1.307302	-0.201351	-1.697437
C	-0.475469	1.262396	0.557846
N	-0.543159	2.33337	1.05246
C	-0.587492	-1.147151	0.688402
N	-0.612806	-2.190942	1.253461
N	0.233484	1.078475	-2.243324
H	-0.287929	1.193282	-3.101792
H	1.21763	1.007798	-2.460548
H	-2.070271	0.0	0.0
