13

C	0.0	0.0	0.0
C	-0.381383	0.066456	-1.520948
Br	1.954751	0.0	0.0
H	-1.16312	0.821431	-1.626146
H	0.507828	0.381739	-2.074861
C	-0.491815	1.188696	0.701612
N	-0.53519	2.227662	1.264736
C	-0.438379	-1.210366	0.686627
N	-0.513837	-2.221188	1.292574
N	-0.762819	-1.258446	-1.991417
H	-1.663203	-1.450163	-1.552976
H	-0.90588	-1.212213	-2.995351
H	-2.13422	0.0	0.0
