13

C	0.0	0.0	0.0
C	-0.243023	0.083409	-1.548754
Br	1.965143	0.0	0.0
H	-1.314555	0.000594	-1.700481
H	0.253047	-0.803291	-1.9696
C	-0.487268	1.171145	0.722159
N	-0.554232	2.17002	1.350208
C	-0.571771	-1.234656	0.533758
N	-0.585002	-2.347291	0.94619
N	0.214648	1.350667	-2.093678
H	-0.317957	1.569904	-2.924088
H	1.196326	1.313623	-2.32915
H	-2.079494	0.0	0.0
