13

C	0.0	0.0	0.0
C	-0.250846	-0.335282	-1.512482
Br	1.949673	0.0	0.0
H	-1.325348	-0.292056	-1.663635
H	0.22979	0.478831	-2.074434
C	-0.627802	1.281422	0.334266
N	-0.638855	2.443108	0.58563
C	-0.469612	-1.053896	0.899353
N	-0.535454	-1.92402	1.695857
N	0.218911	-1.668506	-1.852686
H	1.203782	-1.66026	-2.078245
H	-0.297824	-2.009737	-2.651449
H	-2.095109	0.0	0.0
