16

C	0.0	0.0	0.0
C	-0.393629	0.083291	-1.504894
Cl	1.800745	0.0	0.0
H	0.414735	0.581365	-2.048115
H	-0.437369	-0.952378	-1.886613
N	-0.471373	1.115369	0.780395
H	-0.463267	1.933499	0.179513
H	-1.465042	0.932662	0.944668
C	-0.488611	-1.281999	0.646148
H	-0.200508	-1.28836	1.699901
H	-1.582195	-1.292221	0.563751
H	-0.063662	-2.15543	0.14805
N	-1.60361	0.872518	-1.679808
H	-2.376894	0.50153	-1.083173
H	-1.911818	0.771037	-2.640214
H	-3.532337	0.0	0.0
