16

C	0.0	0.0	0.0
C	-0.489417	-0.005318	-1.444252
Cl	1.868035	0.0	0.0
H	-0.093549	0.885343	-1.947472
H	-1.582286	0.095674	-1.336642
N	-0.426704	1.200428	0.610347
H	-0.090265	2.017883	0.12112
H	-0.181641	1.24694	1.588807
C	-0.506572	-1.183411	0.782402
H	-1.606384	-1.109787	0.72644
H	-0.151053	-2.123083	0.35756
H	-0.177441	-1.130126	1.824476
N	-0.1779	-1.181303	-2.241514
H	0.786221	-1.455261	-2.086172
H	-0.775582	-1.941863	-1.94258
H	-3.533571	0.0	0.0
