16

C	0.0	0.0	0.0
C	-0.334033	-0.027687	-1.52165
Cl	1.799122	0.0	0.0
H	0.35823	0.671588	-1.999466
H	-0.067606	-1.030388	-1.88097
N	-0.502332	1.232105	0.563595
H	-1.524528	1.145407	0.490359
H	-0.288278	1.242313	1.556994
C	-0.484242	-1.243332	0.725164
H	-0.179017	-1.213933	1.776548
H	-1.580026	-1.236801	0.671743
H	-0.086935	-2.154984	0.270222
N	-1.676012	0.311958	-1.937438
H	-2.396786	-0.067269	-1.297973
H	-1.792882	1.314686	-1.832322
H	-3.517783	0.0	0.0
