14

C	-0.435009	0.001437	-1.438374
C	0.0	0.0	0.0
Br	-2.404743	-0.156193	-1.64838
H	1.099671	0.0	0.0
H	-0.02894	-0.867492	-1.954639
C	-0.027989	1.230606	-2.103623
N	0.282675	2.208633	-2.675809
N	-0.34357	-1.276946	0.618785
O	-0.593303	-1.290992	1.833772
O	-0.23879	-2.296123	-0.079895
N	-0.393073	1.151828	0.738214
H	-1.14972	0.929703	1.373073
H	0.410065	1.443686	1.288946
H	2.463319	0.0	0.0
