14

C	-0.548187	-0.132982	-1.40437
C	0.0	0.0	0.0
Br	0.317487	-1.4918	-2.530643
H	1.098174	0.0	0.0
H	-0.302596	0.810324	-1.891145
C	-1.993724	-0.315826	-1.449809
N	-3.162879	-0.428274	-1.4992
N	-0.428266	-1.072944	0.879563
O	-0.702015	-2.173033	0.377725
O	-0.387446	-0.857399	2.10245
N	-0.294662	1.31268	0.518272
H	0.581737	1.667118	0.901105
H	-0.955577	1.24515	1.28011
H	2.454177	0.0	0.0
