15

C	-0.5622	0.013285	-1.413218
C	0.0	0.0	0.0
Cl	0.148658	1.284075	-2.412217
H	1.095069	0.0	0.0
H	-1.64418	0.139214	-1.438698
N	-0.345047	-1.337116	-2.060907
O	-1.313202	-2.097667	-1.987177
O	0.740831	-1.600523	-2.552047
C	-0.38704	-1.259863	0.777874
H	-1.463101	-1.454204	0.791103
H	0.133989	-2.118193	0.348341
H	-0.024553	-1.146905	1.801523
C	-0.488566	1.19189	0.671565
N	-0.890916	2.14813	1.226694
H	2.673841	0.0	0.0
