15

C	-0.340388	-0.033224	-1.457587
C	0.0	0.0	0.0
Cl	-2.093732	-0.083131	-1.827065
H	1.095183	0.0	0.0
H	0.10938	-0.909043	-1.920396
N	0.22208	1.128318	-2.237357
O	0.520015	0.889651	-3.405875
O	0.303756	2.211976	-1.677715
C	-0.368223	-1.324623	0.671096
H	-1.445865	-1.504607	0.694723
H	0.130835	-2.142739	0.143572
H	0.019395	-1.31461	1.692043
C	-0.560202	1.116384	0.734548
N	-1.017736	1.95499	1.420684
H	2.642016	0.0	0.0
