15

C	-0.369728	0.017188	-1.468487
C	0.0	0.0	0.0
Cl	0.123702	-1.456727	-2.308818
H	1.095958	0.0	0.0
H	0.107359	0.860114	-1.966925
N	-1.851876	0.217289	-1.667483
O	-2.606369	-0.724413	-1.437067
O	-2.201096	1.354316	-1.98895
C	-0.471341	-1.202644	0.808168
H	-1.559026	-1.275602	0.872733
H	-0.052633	-1.115137	1.813614
H	-0.074184	-2.116689	0.365216
C	-0.435505	1.248688	0.603654
N	-0.774115	2.246985	1.126597
H	2.634595	0.0	0.0
