19

C	0.0	0.0	0.0
C	-0.490449	-0.019642	-1.461742
Br	2.049948	0.0	0.0
H	-1.552965	0.26396	-1.387291
N	-0.487416	1.113283	0.667677
H	-0.25823	1.164352	1.646977
H	-0.41889	1.988304	0.176037
C	-0.419104	-1.260247	0.730017
H	-1.512313	-1.312774	0.665716
H	-0.126661	-1.17826	1.779718
H	0.051784	-2.151238	0.317396
C	-0.343055	-1.346584	-2.171321
H	0.682605	-1.717497	-2.128104
H	-1.025251	-2.060579	-1.708624
H	-0.627553	-1.240416	-3.217959
N	0.172499	1.07983	-2.247083
O	0.877165	0.782604	-3.20727
O	-0.034566	2.238455	-1.8786
Br	-3.954691	0.0	0.0
