19

C	0.0	0.0	0.0
C	-0.514378	-0.020921	-1.448083
Br	2.04974	0.0	0.0
H	-1.570407	0.27874	-1.344596
N	-0.464902	1.130583	0.672554
H	-0.178804	1.172121	1.638341
H	-0.327724	1.999511	0.179869
C	-0.418971	-1.248419	0.752367
H	-0.113716	-1.153574	1.797589
H	-1.512345	-1.297283	0.702607
H	0.040311	-2.147171	0.343581
C	-0.409942	-1.352066	-2.154994
H	0.607941	-1.745307	-2.132798
H	-0.715839	-1.241278	-3.195151
H	-1.098245	-2.047849	-1.676026
N	0.153111	1.058034	-2.25363
O	-0.0036	2.221627	-1.87715
O	0.81386	0.73943	-3.239532
Br	-3.913193	0.0	0.0
