13

C	-0.50786	0.028391	-1.44169
C	0.0	0.0	0.0
Br	-0.056842	-1.586142	-2.430149
H	1.095428	0.0	0.0
H	-0.047213	0.850881	-1.987683
H	-1.59442	0.110566	-1.482804
C	-0.495225	-1.193322	0.816187
H	-0.151204	-1.099297	1.84746
H	-0.077846	-2.112068	0.404545
H	-1.588031	-1.260018	0.810331
C	-0.461599	1.249685	0.60879
N	-0.88188	2.245339	1.070543
Br	3.528024	0.0	0.0
