13

C	-0.333095	-0.01533	-1.47976
C	0.0	0.0	0.0
Br	-2.253733	-0.102796	-1.869499
H	1.098636	0.0	0.0
H	0.033438	0.882973	-1.972813
H	0.116223	-0.89229	-1.942648
C	-0.463208	-1.246303	0.7508
H	-0.059084	-2.132286	0.254677
H	-0.071479	-1.225839	1.769315
H	-1.552338	-1.319835	0.785421
C	-0.489385	1.216495	0.640868
N	-0.900755	2.183594	1.165923
Br	3.479324	0.0	0.0
