16

C	-0.335471	0.149704	-1.489155
C	0.0	0.0	0.0
Br	-0.121975	-1.576751	-2.420554
H	1.096448	0.0	0.0
H	-1.388556	0.401895	-1.660049
C	0.627083	1.154528	-2.111114
H	0.604011	1.113801	-3.19944
H	0.350185	2.168997	-1.801605
H	1.62523	0.921623	-1.717828
C	-0.623039	-1.149029	0.623303
N	-1.162437	-2.039819	1.171066
C	-0.384319	1.280501	0.757868
H	-1.412046	1.608662	0.555532
H	-0.280297	1.113364	1.833126
H	0.315716	2.072329	0.486722
F	2.61919	0.0	0.0
