16

C	-0.463177	0.004756	-1.457401
C	0.0	0.0	0.0
Br	0.271867	1.569443	-2.401853
H	1.095536	0.0	0.0
H	0.018915	-0.837389	-1.95919
C	-1.966707	-0.015849	-1.678764
H	-2.393318	-0.891393	-1.179308
H	-2.431863	0.882621	-1.268136
H	-2.207807	-0.066349	-2.743162
C	-0.465644	-1.245969	0.585247
N	-0.86203	-2.253623	1.04833
C	-0.451518	1.189692	0.844209
H	-0.063494	2.10721	0.397922
H	-1.538506	1.273124	0.957268
H	-0.003624	1.0953	1.836104
F	2.56352	0.0	0.0
