16

C	-0.463658	0.00193	-1.457028
C	0.0	0.0	0.0
Br	0.289603	1.552155	-2.411889
H	1.0956	0.0	0.0
H	0.007225	-0.848925	-1.954337
C	-1.967242	-0.000448	-1.676381
H	-2.404887	-0.865268	-1.167517
H	-2.210544	-0.058136	-2.739932
H	-2.419841	0.908288	-1.274363
C	-0.464481	-1.24468	0.589642
N	-0.856453	-2.247283	1.067325
C	-0.456387	1.191229	0.839503
H	-0.093513	2.110678	0.376687
H	-1.542394	1.256883	0.971439
H	0.011025	1.115378	1.823638
F	2.564728	0.0	0.0
