12
Coordinates from ORCA-job run
  C   0.69013238590424     -0.33773815729068     -0.35447631721134
  C   -0.82255877160514      0.03958632884772     -0.24456086585830
  Cl  1.12929609447888     -0.35526837572120     -2.08384597766548
  H   -1.37733561341993     -0.70407212410512     -0.83024847549759
  C   0.88817026343560     -1.67342355926521      0.21049173905664
  N   1.01626481054790     -2.75313147735989      0.65816881236925
  C   1.50668061936549      0.64724094498877      0.35440170403630
  N   2.14402552087060      1.45072301675883      0.92960517019412
  C   -1.06242838024492      1.36987426204372     -0.80810335273204
  N   -1.26160327301644      2.43439380055244     -1.26262984435995
  C   -1.25448788539413     -0.02524014774752      1.15396505667891
  N   -1.59515577092216     -0.09294451170185      2.27623235098948
