12
Coordinates from ORCA-job run
  C   0.64279077298844     -0.41597517600796     -0.36073394422698
  C   -0.74158812876705      0.30757153093609     -0.30610855895403
  Cl  0.55540846904531     -1.67948929069920     -1.61732907245087
  H   -0.93136857179149      0.70429186557731     -1.31132536194442
  C   0.94195635890179     -1.02487022670048      0.93515845730675
  N   1.16048539277618     -1.50572961006552      1.98565072889865
  C   1.67345366548062      0.55853753199941     -0.72213484866083
  N   2.47741900907683      1.36080683861006     -1.02643619508733
  C   -0.68811341208280      1.41639556035843      0.65020553702064
  N   -0.62752403077110      2.31152605898491      1.40870041783969
  C   -1.80260016400078     -0.63922623931311      0.04433239727736
  N   -2.65931936085593     -1.39383884367995      0.32002044298137
