12
Coordinates from ORCA-job run
  C   0.66572193648365     -0.34981667134219     -0.21830030621958
  C   -0.64144332849229      0.36140585357865      0.26232882594001
  Cl  0.40249283058004     -1.06171613617544     -1.82903674610377
  H   -0.43287739797253      0.78145693955387      1.25564660466058
  C   1.00757488767872     -1.40303555683272      0.73960370336502
  N   1.26550852159695     -2.23488493650200      1.52958918105403
  C   1.74259538433776      0.64003153426983     -0.28387003368769
  N   2.59026817289875      1.45409572846109     -0.31884651007967
  C   -1.73412198299842     -0.60629743966074      0.38065976007131
  N   -2.60880117533714     -1.38247381548631      0.48892013870087
  C   -0.99042935018318      1.45568998599964     -0.64613481491382
  N   -1.26548849859230      2.34554451413632     -1.36155980278729
