14

C	0.0	0.0	0.0
C	-0.5131	0.147411	-1.43253
F	1.378618	0.0	0.0
H	-1.604865	0.015735	-1.353025
H	-0.359786	-0.935294	0.432777
C	-0.412242	1.125517	0.856818
N	-0.578468	2.02182	1.596322
C	0.05436	-0.930754	-2.24103
N	0.516832	-1.775176	-2.913871
C	-0.186043	1.513926	-2.034969
H	0.88609	1.719086	-1.991857
H	-0.508811	1.551241	-3.076943
H	-0.724819	2.285963	-1.483021
Cl	-3.399614	0.0	0.0
