14

C	0.0	0.0	0.0
C	-0.36381	-0.437406	-1.449017
F	1.381244	0.0	0.0
H	0.608475	-0.384817	-1.955662
H	-0.374019	-0.704391	0.74048
C	-0.397778	1.373672	0.341801
N	-0.470936	2.508671	0.634648
C	-1.20901	0.473137	-2.227196
N	-1.684984	1.174661	-3.040807
C	-0.841086	-1.888629	-1.522392
H	-1.814269	-1.97003	-1.041333
H	-0.915915	-2.206863	-2.565674
H	-0.115959	-2.534844	-1.019197
Cl	-3.086158	0.0	0.0
