14

C	0.0	0.0	0.0
C	-0.50913	0.126774	-1.435979
F	1.378847	0.0	0.0
H	-1.597551	-0.027059	-1.360475
H	-0.3624	-0.928808	0.444429
C	-0.410646	1.136494	0.843236
N	-0.56846	2.037449	1.578819
C	0.085967	-0.94486	-2.233374
N	0.563373	-1.78825	-2.897386
C	-0.211529	1.497213	-2.044467
H	-0.505892	1.51489	-3.095135
H	-0.791696	2.25339	-1.514044
H	0.851198	1.739241	-1.974313
Cl	-3.386358	0.0	0.0
