14

C	0.0	0.0	0.0
C	-0.50686	0.082207	-1.440827
F	1.378948	0.0	0.0
H	-1.600005	-0.036393	-1.359634
H	-0.363294	-0.913152	0.474775
C	-0.409003	1.165671	0.804645
N	-0.567398	2.092818	1.506618
C	0.054262	-1.039275	-2.192311
N	0.506657	-1.926092	-2.816178
C	-0.161119	1.414829	-2.105128
H	-0.693702	2.21858	-1.594006
H	0.913065	1.609693	-2.064434
H	-0.47638	1.406835	-3.150114
Cl	-3.391837	0.0	0.0
