14

C	0.0	0.0	0.0
C	-0.431384	0.087217	-1.470357
F	1.377935	0.0	0.0
H	0.25209	-0.600198	-1.983821
H	-0.348499	-0.944178	0.426878
C	-0.466716	1.118871	0.82676
N	-0.754397	2.027234	1.512111
C	-0.13183	1.424295	-1.994086
N	0.117429	2.477816	-2.449105
C	-1.874284	-0.342331	-1.73476
H	-2.616224	0.158095	-1.108655
H	-1.973781	-1.413272	-1.54372
H	-2.121309	-0.151671	-2.780489
Cl	-4.769425	0.0	0.0
