18

C	-0.457528	-0.077619	-1.456856
C	0.0	0.0	0.0
F	-1.80707	-0.322156	-1.517519
H	1.094341	0.0	0.0
N	-0.261423	1.304299	-2.067193
O	-1.25681	2.002761	-2.235889
O	0.897112	1.618927	-2.311361
C	0.296569	-1.091404	-2.272985
H	1.367552	-0.905648	-2.180835
H	-0.017942	-1.039341	-3.31784
H	0.068352	-2.083812	-1.880561
C	-0.451352	-1.221869	0.66295
N	-0.835901	-2.185814	1.213869
C	-0.512229	1.238071	0.737813
H	-0.026915	2.129008	0.335495
H	-0.24223	1.164144	1.79198
H	-1.59586	1.340618	0.649103
Br	3.469479	0.0	0.0
