18

C	-0.510946	0.1921	-1.428243
C	0.0	0.0	0.0
F	0.027859	1.343244	-1.920316
H	1.095488	0.0	0.0
N	0.008043	-0.938307	-2.312196
O	0.887133	-0.684677	-3.121848
O	-0.535863	-2.027025	-2.13581
C	-2.013283	0.2537	-1.589478
H	-2.484189	-0.634462	-1.172744
H	-2.259951	0.331753	-2.651327
H	-2.384643	1.144871	-1.081598
C	-0.500232	-1.233432	0.595196
N	-0.956169	-2.188176	1.106734
C	-0.392782	1.190801	0.888451
H	-1.466517	1.238315	1.082312
H	-0.056619	2.115718	0.419286
H	0.132198	1.089524	1.83953
Br	3.441434	0.0	0.0
