18

C	-0.452321	-0.131219	-1.455575
C	0.0	0.0	0.0
F	-1.792526	-0.426418	-1.513304
H	1.094451	0.0	0.0
N	-0.314505	1.243585	-2.101539
O	0.819028	1.576038	-2.425062
O	-1.330094	1.923359	-2.214701
C	0.343156	-1.137865	-2.241009
H	0.03579	-1.125215	-3.288959
H	1.406912	-0.914453	-2.146995
H	0.146342	-2.127141	-1.822576
C	-0.446086	-1.20267	0.701313
N	-0.839567	-2.146457	1.278944
C	-0.514402	1.256398	0.703543
H	-0.038317	2.138256	0.271973
H	-1.599093	1.349817	0.619352
H	-0.235648	1.214703	1.757199
Br	3.47004	0.0	0.0
