18

C	-0.46495	-0.058502	-1.454476
C	0.0	0.0	0.0
F	-1.824482	-0.258744	-1.509017
H	1.094247	0.0	0.0
N	-0.236315	1.320414	-2.066182
O	0.902364	1.564069	-2.445746
O	-1.19252	2.089225	-2.102964
C	0.250143	-1.098645	-2.27439
H	1.32821	-0.96009	-2.177939
H	-0.054542	-1.025998	-3.320772
H	-0.025236	-2.0829	-1.889719
C	-0.454282	-1.22831	0.648482
N	-0.842438	-2.200525	1.180879
C	-0.497425	1.229834	0.762666
H	-0.21918	1.13286	1.813037
H	-0.00826	2.124261	0.374201
H	-1.58013	1.344412	0.683295
Br	3.457338	0.0	0.0
