18

C	-0.377621	-0.054691	-1.485743
C	0.0	0.0	0.0
Cl	-2.176094	-0.326811	-1.673996
H	1.09789	0.0	0.0
C	-0.112011	1.240483	-2.117594
N	0.118112	2.241763	-2.685537
C	0.367615	-1.149452	-2.237345
H	1.438757	-1.010212	-2.05944
H	0.068136	-2.130831	-1.868878
H	0.153868	-1.096566	-3.306034
C	-0.428416	-1.237245	0.781797
H	-1.516126	-1.289101	0.886771
H	0.019637	-1.175237	1.775862
H	-0.076236	-2.16367	0.325075
N	-0.473038	1.246096	0.586591
H	-1.307701	1.089876	1.1376
H	0.249814	1.624289	1.184867
Br	3.553266	0.0	0.0
