18

C	-0.321489	-0.033008	-1.513639
C	0.0	0.0	0.0
Cl	-2.111154	-0.292284	-1.785163
H	1.098223	0.0	0.0
C	-0.036052	1.280822	-2.097425
N	0.17515	2.3355	-2.570963
C	0.455976	-1.110495	-2.255844
H	0.287538	-1.036921	-3.331911
H	1.518268	-0.975342	-2.027306
H	0.139905	-2.097117	-1.917969
C	-0.47602	-1.241147	0.738454
H	-1.565661	-1.256059	0.830878
H	-0.147475	-2.164677	0.258364
H	-0.04304	-1.205443	1.738662
N	-0.471242	1.188128	0.689662
H	-1.426712	1.401346	0.424094
H	0.115181	1.977203	0.44696
Br	3.573401	0.0	0.0
