18

C	-0.46155	-0.020352	-1.48614
C	0.0	0.0	0.0
Cl	0.228266	1.414897	-2.333593
H	1.095657	0.0	0.0
C	0.03875	-1.212185	-2.174219
N	0.333889	-2.20293	-2.734697
C	-1.977221	0.02835	-1.666154
H	-2.438906	-0.852834	-1.216279
H	-2.22895	0.053822	-2.727249
H	-2.380254	0.928819	-1.199894
C	-0.490254	-1.240497	0.736036
H	-0.243123	-2.161272	0.20244
H	-1.571357	-1.208117	0.91453
H	0.011726	-1.261454	1.70402
N	-0.401262	1.18766	0.732687
H	0.169031	1.973012	0.445436
H	-1.377916	1.417376	0.592911
Br	3.588088	0.0	0.0
