18

C	-0.463927	-0.002385	-1.485331
C	0.0	0.0	0.0
Cl	0.222775	1.444628	-2.31703
H	1.095669	0.0	0.0
C	0.039848	-1.18548	-2.185205
N	0.358506	-2.185451	-2.714407
C	-1.979786	0.045896	-1.664143
H	-2.385037	0.939665	-1.18701
H	-2.439488	-0.841859	-1.224806
H	-2.232268	0.083965	-2.724831
C	-0.491803	-1.247797	0.72271
H	-1.571877	-1.214055	0.903886
H	0.0118	-1.280794	1.689008
H	-0.248343	-2.163065	0.178674
N	-0.399248	1.180289	0.746757
H	0.178058	1.965281	0.473954
H	-1.372815	1.41879	0.602973
Br	3.584888	0.0	0.0
