12

C	0.0	0.0	0.0
C	-0.507806	0.346562	-1.384573
Br	1.925983	0.0	0.0
H	-1.631445	0.258656	-1.166683
H	-0.383452	0.664794	0.763406
H	-0.143905	-0.386736	-2.10631
N	-0.44061	-1.38054	0.396414
O	-0.573516	-1.583042	1.596056
O	-0.538923	-2.220518	-0.489555
C	-0.113564	1.683773	-1.7768
N	0.176215	2.772712	-2.113685
F	-2.565731	0.0	0.0
