12

C	0.0	0.0	0.0
C	-0.52362	-0.105913	-1.416649
Br	1.923942	0.0	0.0
H	-0.162511	-1.024582	-1.883026
H	-0.380548	0.873987	0.513377
H	-1.64955	-0.124445	-1.158441
N	-0.439769	-1.179672	0.820064
O	-0.551776	-2.257271	0.249237
O	-0.559884	-0.988522	2.022881
C	-0.148888	1.048532	-2.205368
N	0.126661	1.984104	-2.862743
F	-2.583267	0.0	0.0
