12

C	0.0	0.0	0.0
C	-0.496015	0.035059	-1.435933
Br	1.92576	0.0	0.0
H	-0.090189	-0.811054	-1.993072
H	-0.407068	0.80524	0.598167
H	-1.61278	-0.040054	-1.243405
N	-0.43258	-1.273193	0.675694
O	-0.542627	-1.227706	1.893995
O	-0.542854	-2.276598	-0.017812
C	-0.131866	1.277439	-2.089106
N	0.160844	2.272486	-2.640325
F	-2.555921	0.0	0.0
