12

C	0.0	0.0	0.0
C	-0.58331	-0.297966	-1.357792
Br	1.927375	0.0	0.0
H	-1.714756	-0.335951	-1.016784
H	-0.363929	0.951658	0.369283
H	-0.452936	0.593629	-1.979748
N	-0.430945	-1.004672	1.038806
O	-0.485636	-0.593197	2.192087
O	-0.627784	-2.154108	0.673914
C	-0.045261	-1.449168	-2.045331
N	0.364661	-2.356691	-2.672252
F	-2.650908	0.0	0.0
