12

C	0.0	0.0	0.0
C	-0.362814	-0.056628	-1.482056
Br	1.940297	0.0	0.0
H	0.26541	-0.810931	-1.960952
H	-0.371338	0.856668	0.541568
H	-0.060955	0.908857	-1.905817
N	-0.414999	-1.222073	0.754053
O	-0.538439	-1.096958	1.965098
O	-0.495835	-2.267694	0.125207
C	-1.758121	-0.321222	-1.8796
N	-2.542396	-0.573071	-2.728563
F	-2.347204	0.0	0.0
