17

C	-0.421142	0.01938	-1.466128
C	0.0	0.0	0.0
Cl	0.130141	-1.479074	-2.315061
H	1.088812	0.0	0.0
H	-0.379749	0.92332	0.443559
C	-1.924449	0.109608	-1.667512
H	-2.423394	-0.768727	-1.252404
H	-2.169352	0.176264	-2.730848
H	-2.309373	0.995886	-1.15386
C	0.359051	1.178733	-2.075858
H	1.404902	1.055822	-1.777616
H	0.255166	1.191581	-3.163288
H	-0.018476	2.124364	-1.67089
N	-0.638821	-1.077528	0.769626
O	-1.596897	-0.770373	1.498737
O	-0.212979	-2.225497	0.653002
F	2.606137	0.0	0.0
