17

C	-0.363252	-0.082248	-1.491317
C	0.0	0.0	0.0
Cl	-0.242791	1.645971	-2.061956
H	1.089058	0.0	0.0
H	-0.431127	0.869919	0.489933
C	0.700088	-0.868698	-2.244626
H	0.581572	-1.927813	-2.008755
H	1.676711	-0.548005	-1.864727
H	0.606556	-0.720592	-3.324133
C	-1.785046	-0.529434	-1.788358
H	-1.907904	-1.570059	-1.48328
H	-1.991949	-0.450784	-2.859065
H	-2.507817	0.090364	-1.250657
N	-0.453775	-1.16611	0.768386
O	-0.373194	-2.289017	0.258572
O	-0.849698	-0.973397	1.922292
F	2.602572	0.0	0.0
