17

C	-0.36637	0.076767	-1.489655
C	0.0	0.0	0.0
Cl	-0.242681	-1.653305	-2.055766
H	1.089057	0.0	0.0
H	-0.430448	-0.86763	0.493906
C	-1.789883	0.518888	-1.780523
H	-2.507239	-0.101959	-1.236887
H	-2.000688	0.43626	-2.849776
H	-1.915494	1.560513	-1.476714
C	0.690861	0.8629	-2.250168
H	0.567981	1.92321	-2.020108
H	0.596022	0.707618	-3.328938
H	1.669402	0.547316	-1.872857
N	-0.4518	1.168596	0.766097
O	-0.84257	0.977596	1.921391
O	-0.371301	2.290718	0.254018
F	2.602357	0.0	0.0
