11
Coordinates from ORCA-job run
  C   1.03943258183884      0.64233437303971     -0.24022063389435
  C   -0.21454427847186     -0.22810850968249     -0.29348533316750
  Cl  2.48978104104845     -0.31032897353598     -0.60826633161688
  H   -0.22231098175882     -0.75396640252441     -1.25278549560120
  H   1.15738260295757      1.06901627752103      0.75733810103271
  H   0.97111367690463      1.44797638246634     -0.97077933783634
  C   -1.39251415651081      0.66777175860943     -0.25876689962215
  N   -2.32910496390950      1.37250303040776     -0.17911606775204
  N   -0.20320563318578     -1.22331675354923      0.76271849968095
  H   -0.94222686898079     -1.90010530225785      0.62011075358951
  H   -0.35380301993195     -0.78377588049432      1.66325274518728
