11
Coordinates from ORCA-job run
  C   1.12332070434684      0.46201014515501     -0.19340206084578
  C   -0.27941769737675     -0.13885752246620     -0.21762516287921
  Cl  1.32387527206026      1.66545663664523     -1.48517005881975
  H   -0.49586261922300     -0.47088026032460     -1.24325274499167
  H   1.30258304304502      0.93980388388843      0.76786473139571
  H   1.85701491534140     -0.32856955856469     -0.35352412578998
  C   -1.27886008992296      0.88038325323330      0.12161762952594
  N   -2.09259808449394      1.67661775411612      0.40532368144660
  N   -0.32186036192577     -1.20357205916700      0.78456732878387
  H   0.14041366197648     -2.02753082244803      0.41847136936183
  H   -1.27960874382758     -1.45486145006759      0.99612941281243
