11
Coordinates from ORCA-job run
  C   1.04040521178068      0.67676821100868     -0.11019392913392
  C   -0.19530437343349     -0.19408884913660     -0.32774062884800
  Cl  2.52219212955577     -0.21292559567836     -0.50921812161161
  H   -0.14647307371025     -0.60571573867442     -1.34025010773395
  H   1.10101737782763      0.98693079509172      0.93433992499528
  H   0.99672695431686      1.56032884337620     -0.74648465448476
  C   -1.38842739570207      0.67889372111834     -0.25176060135075
  N   -2.34040483866077      1.35842174374234     -0.14077155381610
  N   -0.22152860844530     -1.30442105563501      0.60652391265420
  H   -0.42939229000574     -0.97403379481873      1.54157812943088
  H   -0.93781109352332     -1.97015828039416      0.34597762989873
