11
Coordinates from ORCA-job run
  C   0.97136186373908      0.57138839772791     -0.24338330307195
  C   -0.35937347226185     -0.19201777100578     -0.29897758488294
  Cl  2.32992854359628     -0.55417745058275     -0.48449636191433
  H   -0.42537881151213     -0.68086636961758     -1.27680506952005
  H   1.09564482744021      1.04445423895565      0.73161786191810
  H   1.02141644570338      1.32628990056939     -1.02834882175142
  C   -1.43913602119226      0.80419776382092     -0.22476122370519
  N   -2.26076636213759      1.63846955434238     -0.14594670437259
  N   -0.57187541742558     -1.20875251783206      0.71431509476864
  H   -0.48418388985298     -0.80917006981338      1.64160640427401
  H   0.12236229390344     -1.93881567656470      0.61417970825772
