11
Coordinates from ORCA-job run
  C   1.03843178604319      0.60099476483424     -0.20705682420182
  C   -0.30683319103414     -0.11675807316214     -0.23617448067886
  Cl  2.35041909390435     -0.54708556824631     -0.58362640377708
  H   -0.42667698468114     -0.57305456833860     -1.23091322099578
  H   1.07268023228841      1.39467604315405     -0.95196243988570
  H   1.21355565694275      0.99778734890184      0.79201599157189
  C   -1.36448500960454      0.89269141621968     -0.08855734239345
  N   -2.20436522659117      1.70586001638214      0.01433641072234
  N   -0.39049113752490     -1.06169892565104      0.87061005310126
  H   -1.29670494033518     -1.51391900965542      0.87404204008616
  H   0.31446972059238     -1.77849344443842      0.74528621645104
