11
Coordinates from ORCA-job run
  C   1.09025039801851      0.44881092371527     -0.40893622505621
  C   -0.29833206631678     -0.16248484837915     -0.24098873222551
  Cl  1.59226907034072      1.39759272370059      0.99975888607513
  H   -0.53082877876620     -0.63687338150627     -1.21021514201333
  H   1.10086387638930      1.10264811445990     -1.28126352489429
  H   1.81737612805230     -0.35280404690144     -0.55384117118878
  C   -1.30760574525565      0.88507640949776     -0.03988185457001
  N   -2.13872544233057      1.69869950103322      0.11398154488244
  N   -0.32978450484693     -1.08077366836985      0.88790158441971
  H   0.27289382919800     -1.87310958168260      0.69876376993543
  H   -1.26937676448269     -1.42778214556741      1.03472086463541
