15

C	0.0	0.0	0.0
C	-0.371306	-0.441453	-1.476108
Br	1.948096	0.0	0.0
H	0.496872	-0.183518	-2.092664
H	-0.223768	1.071131	0.062839
N	-0.657066	-0.785711	0.990692
H	-0.471521	-0.388848	1.906119
H	-1.673271	-0.588248	0.758733
N	-1.505638	0.241162	-2.070224
H	-1.253991	1.214019	-2.219105
H	-2.275355	0.20426	-1.367817
N	-0.549892	-1.887173	-1.501057
H	-0.917223	-2.171292	-0.599565
H	-1.267462	-2.055758	-2.196235
F	-3.010998	0.0	0.0
