15

C	0.0	0.0	0.0
C	-0.515904	0.132345	-1.463408
Br	1.958625	0.0	0.0
H	0.342522	0.207738	-2.135812
H	-0.193334	0.969102	0.465513
N	-0.544088	-1.108123	0.724559
H	-0.346202	-0.948672	1.708327
H	-1.56226	-0.955418	0.600937
N	-1.236059	1.414434	-1.50374
H	-1.567062	1.536953	-2.457865
H	-2.067897	1.208193	-0.926792
N	-1.279998	-1.045807	-1.861212
H	-1.509961	-0.924654	-2.843459
H	-2.155232	-0.953261	-1.329626
F	-2.973934	0.0	0.0
