15

C	0.0	0.0	0.0
C	-0.604624	-0.112902	-1.431056
Br	2.042756	0.0	0.0
H	0.22133	-0.17036	-2.148571
H	-0.164558	0.997333	0.40221
N	-0.469213	-0.971577	0.864466
H	-0.585744	-1.865559	0.411549
H	-0.056867	-0.989808	1.781843
N	-1.447745	1.035831	-1.746533
H	-2.2499	0.920912	-1.087385
H	-0.949332	1.895554	-1.534852
N	-1.389363	-1.33769	-1.481222
H	-2.231485	-1.077383	-0.91238
H	-1.699456	-1.433847	-2.441653
F	-3.177798	0.0	0.0
