15

C	0.0	0.0	0.0
C	-0.656319	-0.080289	-1.347004
Br	2.03376	0.0	0.0
H	-1.745131	-0.140689	-0.975649
H	-0.214564	0.956283	0.473712
N	-0.396706	-1.083344	0.806063
H	-0.468235	-1.911072	0.229711
H	0.192788	-1.226598	1.61177
N	-0.266558	-1.314987	-2.013735
H	0.626177	-1.173726	-2.478819
H	-0.953133	-1.489226	-2.73711
N	-0.492233	1.118354	-2.16214
H	0.422275	1.529038	-2.008434
H	-1.190982	1.786125	-1.857257
F	-2.972027	0.0	0.0
