15

C	0.0	0.0	0.0
C	-0.592139	0.018431	-1.385728
Cl	1.783635	0.0	0.0
H	-1.7653	0.128842	-0.974473
H	-0.351671	-0.921757	0.475678
C	-0.414461	1.112624	0.874431
N	-0.678746	1.962285	1.64075
C	-0.418341	-1.28015	-2.119787
H	-0.816773	-1.196015	-3.129312
H	0.631844	-1.579449	-2.197722
H	-0.982014	-2.049759	-1.585789
N	-0.138218	1.166371	-2.143597
O	-0.251042	2.285622	-1.610723
O	0.292859	1.009019	-3.285589
H	-2.723869	0.0	0.0
