16
Coordinates from ORCA-job run
  C   0.77474109398238     -0.32007727747948      0.07728299548409
  C   -0.71949197515366     -0.23572279515486      0.36668281423798
  H   1.05413746775637     -1.37382038741404      0.10313796339141
  H   -0.88761140293627     -0.57633926438606      1.38774329556442
  N   1.57880817722865      0.35025064403190      1.17104310890427
  O   1.05286387597344      0.35776571933443      2.27872633351919
  O   2.71437274678277      0.69542893688292      0.88658530916789
  N   1.14933624968433      0.23935098522495     -1.25808178916015
  O   1.31571227191319      1.45105552136093     -1.32152472832232
  O   1.22010415350970     -0.57994323536435     -2.16878520683385
  N   -1.46857119065706     -1.21276956308684     -0.52257937122541
  O   -0.95812693832672     -2.32493314450571     -0.57820902845455
  O   -2.54364774846746     -0.86451672266327     -0.98237838697763
  N   -1.28042887304187      1.13779913273612      0.22333379793334
  O   -1.65708705141796      1.67803028207612      1.25912497799417
  O   -1.34611085682983      1.57744116840720     -0.92010208522286
