16
Coordinates from ORCA-job run
  C   -0.72207770117553     -0.22948040390359     -0.36004604978002
  C   0.77699153796467     -0.30185407349284     -0.11639667581057
  H   -0.91636153798664     -0.48762106789247     -1.40061521275035
  H   1.08396351128672     -1.34412669400862     -0.20508380657956
  N   -1.29400029689355      1.12933036572729     -0.10999204786780
  O   -1.40421336192132      1.46950516326333      1.06225911035415
  O   -1.63205316323842      1.75444891293779     -1.11106569304550
  N   -1.44144147939167     -1.27278897961490      0.47371593205359
  O   -0.88336901126679     -2.36299947059392      0.50607548005857
  O   -2.53974012246472     -0.98548254633651      0.92123120744479
  N   1.17131861064576      0.17906244118952      1.24721136558812
  O   1.28624077465693      1.38830208068548      1.39918329884610
  O   1.33778786439301     -0.70588229164757      2.08134493032274
  N   1.53286272250185      0.45159122040622     -1.19179183161840
  O   2.62987451419846      0.89721214558833     -0.89579890515117
  O   1.01421713869123      0.42278319769247     -2.30223110206470
