16
Coordinates from ORCA-job run
  C   -0.71937926326817     -0.18995416785692      0.39462014135842
  C   0.75750011489117     -0.37046360103032      0.13091900787540
  H   -0.95032863731741     -0.44027798709604      1.43011074334439
  H   1.00986555292547     -1.43027477222199      0.17718400903190
  N   -1.51653983898653     -1.16095466987923     -0.45847691497898
  O   -2.36854882951617     -0.70351066800313     -1.20066471517513
  O   -1.22144789622690     -2.33293001725438     -0.27431290022108
  N   -1.24296199480370      1.19041189445824      0.15955933528245
  O   -2.22199798737883      1.48945382087850      0.83062982917274
  O   -0.67777228654358      1.86920279142027     -0.68824438441727
  N   1.57669772751174      0.33405872602676      1.16212550005038
  O   2.71676975503342     -0.08951672956586      1.30689314016411
  O   1.04271587809305      1.26676014952775      1.75681491892899
  N   1.17826075292042      0.10020885002074     -1.24728447249815
  O   2.08617335231352      0.90646979741135     -1.33151338510114
  O   0.54999360035249     -0.43768341683572     -2.14735985281703
