16
Coordinates from ORCA-job run
  C   -0.69191520594938      0.22382725898591      0.19035219750100
  C   0.69209892989220     -0.21817439079610     -0.19540391797868
  H   -0.71328532365389      1.01082790818323      0.93641498701995
  H   0.71319398668100     -0.99898947140435     -0.94795331461279
  N   -1.47595890669722     -0.94604903792443      0.72232922292134
  O   -1.12697102868081     -2.05965971026821      0.33808692172915
  O   -2.40781108834125     -0.66950635674311      1.46559326503499
  N   -1.43789036798686      0.70957284809602     -1.02384601578558
  O   -2.40001381164975      1.43166201208151     -0.79987344427010
  O   -1.03262728004605      0.31592064354594     -2.11436089195375
  N   1.42954089588249     -0.71796346912538      1.01784882873036
  O   1.06008065694087     -0.27774149823957      2.10379111354133
  O   2.34880869084885     -1.49565388932533      0.79989213044658
  N   1.48395937129777      0.95265569561580     -0.71381493164548
  O   1.09994132882959      2.07006319523877     -0.37856721815983
  O   2.45684915263245      0.67120826207930     -1.40048893251846
