16
Coordinates from ORCA-job run
  C   -0.67287298022700      0.24645195469120      0.22642989724264
  C   0.67347478198502     -0.25089922389281     -0.22040325369358
  H   -0.62927837374125      1.08362658553479      0.91467002483881
  H   0.62966563795484     -1.09370428551908     -0.90173011699592
  N   -1.44178582100857     -0.86512975122514      0.88966209353820
  O   -2.36027015738247     -0.51234391421328      1.61711205396904
  O   -1.09731338014699     -2.01240040346251      0.61847858459388
  N   -1.48894294059740      0.66475627476619     -0.96745063172400
  O   -2.37788413142435      1.47636844454830     -0.74759889329786
  O   -1.20658631502954      0.13198736108011     -2.03796258168357
  N   1.49784771072108     -0.65607690085893      0.97245149186117
  O   1.17914729712049     -0.16937579711501      2.05412666885530
  O   2.42927876174594     -1.41453496810810      0.73917617282702
  N   1.43327320963816      0.85839342722884     -0.89697410915375
  O   1.12611128087428      2.00529531672385     -0.58101319521967
  O   2.30713541951775      0.50658587982157     -1.67797420595772
