16
Coordinates from ORCA-job run
  C   0.79396137791002     -0.30430102932565      0.07099330816160
  C   -0.67935301005331     -0.28767846026727      0.40609353368588
  H   1.14619861498283     -1.33520485205621      0.02302790549295
  H   -0.83736144664825     -0.63599721488502      1.42680635586170
  N   1.59109016793892      0.39579247187822      1.12257616874046
  O   2.77216984287282      0.07802043380507      1.18543918441165
  O   0.99928208145803      1.22078187443495      1.81397307124369
  N   1.10441061442250      0.30744992137599     -1.28059455181888
  O   1.93072930195171      1.19926411933956     -1.33682053382850
  O   0.48476588407648     -0.21668522542315     -2.19468941506384
  N   -1.42148438812546     -1.26444834366180     -0.48888566806266
  O   -1.01180337288253     -2.41341612719545     -0.40742240714217
  O   -2.34343148476391     -0.83669133967884     -1.16190271044309
  N   -1.33985291808473      1.04927744399717      0.30190484377613
  O   -0.87525695498504      1.84521607531434     -0.50408701856909
  O   -2.31506431007009      1.19762025234809      1.02658793355417
