12

C	0.0	0.0	0.0
C	-0.389616	-0.355155	-1.403284
F	1.411807	0.0	0.0
H	-1.48557	-0.340067	-1.388769
H	0.018475	0.385987	-2.115101
H	-0.016133	-1.347459	-1.58582
C	-0.352463	1.411091	0.309988
N	-0.481774	2.536771	0.637089
N	-0.40811	-0.870754	1.062053
H	-1.382471	-1.141798	0.916635
H	0.259619	-1.636804	1.186983
F	-2.553855	0.0	0.0
