16

C	-0.457019	-0.006265	-1.441011
C	0.0	0.0	0.0
F	-1.878226	-0.059545	-1.445601
H	1.095428	0.0	0.0
H	-0.192076	0.953261	-1.890849
C	0.081002	-1.16572	-2.237154
H	-0.249262	-2.10141	-1.787765
H	-0.258044	-1.110156	-3.274976
H	1.172954	-1.133177	-2.206615
N	-0.424477	-1.245874	0.641529
H	-1.416592	-1.19603	0.84911
H	0.083598	-1.355659	1.511715
N	-0.442473	1.248983	0.62069
H	-1.445114	1.207529	0.773378
H	0.014406	1.347466	1.519865
Br	3.682287	0.0	0.0
