16

C	-0.407319	-0.019896	-1.459981
C	0.0	0.0	0.0
F	-1.825682	0.057208	-1.53215
H	1.096512	0.0	0.0
H	-0.039471	0.896232	-1.934207
C	0.058857	-1.240903	-2.207552
H	-0.23259	-1.186381	-3.25982
H	-0.36545	-2.131943	-1.747442
H	1.147614	-1.297331	-2.132465
N	-0.48049	-1.208296	0.654212
H	-0.019553	-1.255562	1.555337
H	-1.470457	-1.084445	0.839794
N	-0.438846	1.227591	0.679788
H	0.299678	1.918486	0.616954
H	-1.263091	1.595277	0.218208
Br	3.647517	0.0	0.0
