16

C	-0.429269	-0.024383	-1.450739
C	0.0	0.0	0.0
F	-1.824629	0.144691	-1.543168
H	1.102486	0.0	0.0
H	0.018245	0.849961	-1.930045
C	-0.052773	-1.296514	-2.17268
H	-0.290073	-1.219462	-3.23637
H	1.019568	-1.475667	-2.058101
H	-0.615174	-2.134434	-1.75624
N	-0.515559	-1.19346	0.712905
H	-0.266337	-1.058473	1.689307
H	0.04134	-1.990358	0.41602
N	-0.469831	1.226878	0.605856
H	-1.454154	1.116975	0.826738
H	0.047363	1.401958	1.459389
Br	3.684002	0.0	0.0
