16

C	-0.519012	0.045139	-1.424927
C	0.0	0.0	0.0
F	-0.026051	-1.055335	-2.127678
H	1.100835	0.0	0.0
H	-1.614349	-0.059417	-1.404783
C	-0.100542	1.296706	-2.171833
H	-0.351618	1.191922	-3.229952
H	-0.621774	2.174799	-1.780135
H	0.981547	1.433908	-2.078824
N	-0.467798	-1.20261	0.658432
H	0.182012	-1.459137	1.390902
H	-1.377541	-1.019101	1.069645
N	-0.506573	1.207995	0.700747
H	0.034655	2.004002	0.372854
H	-0.227842	1.094574	1.671674
Br	3.717225	0.0	0.0
