16

C	-0.527469	-0.014244	-1.426721
C	0.0	0.0	0.0
F	0.013634	1.063743	-2.121148
H	1.099808	0.0	0.0
H	-0.163448	-0.919142	-1.93142
C	-2.03409	0.087867	-1.511473
H	-2.356789	0.079687	-2.555402
H	-2.341356	1.029823	-1.054607
H	-2.503636	-0.74049	-0.978409
N	-0.495957	-1.222086	0.674735
H	-0.199006	-2.024582	0.124058
H	0.035183	-1.293851	1.538544
N	-0.464778	1.181245	0.710246
H	0.293508	1.549748	1.268966
H	-1.228479	0.914374	1.319812
Br	3.688301	0.0	0.0
