16

C	-0.407776	-0.012999	-1.460885
C	0.0	0.0	0.0
F	-1.823501	-0.141393	-1.526336
H	1.096479	0.0	0.0
H	-0.172787	0.960188	-1.89803
C	0.212381	-1.137365	-2.251821
H	-0.107678	-2.102514	-1.853256
H	-0.084579	-1.08049	-3.301529
H	1.300628	-1.067606	-2.173495
N	-0.427391	-1.200725	0.729177
H	-1.312426	-1.533486	0.354208
H	0.268492	-1.931242	0.617911
N	-0.494818	1.226876	0.604291
H	-1.50427	1.156602	0.664387
H	-0.147106	1.247048	1.554254
Br	3.6986	0.0	0.0
