17

C	-0.369128	-0.072233	-1.464054
C	0.0	0.0	0.0
Cl	-2.16382	-0.121885	-1.709762
H	1.096988	0.0	0.0
H	-0.363523	0.939664	0.415016
N	0.041908	1.248264	-2.135966
O	0.516767	1.188263	-3.264964
O	-0.175755	2.280946	-1.51357
C	0.272749	-1.227011	-2.189745
H	1.353463	-1.168892	-2.031242
H	-0.103052	-2.160509	-1.770538
H	0.048176	-1.197406	-3.25393
C	-0.475803	-1.189494	0.824782
H	-1.560529	-1.317734	0.787675
H	-0.183768	-1.030365	1.865078
H	0.00274	-2.115533	0.501568
Br	3.597912	0.0	0.0
