17

C	-0.398739	0.056288	-1.466075
C	0.0	0.0	0.0
Cl	0.000924	-1.455487	-2.305829
H	1.093751	0.0	0.0
H	-0.316609	0.955413	0.432951
N	-1.920081	0.249525	-1.520985
O	-2.304766	1.375039	-1.201732
O	-2.656704	-0.69001	-1.798702
C	0.279965	1.205419	-2.182917
H	1.357756	1.050231	-2.098491
H	-0.011838	1.237181	-3.234815
H	0.015985	2.145973	-1.700721
C	-0.571651	-1.159782	0.798002
H	-0.212315	-1.09391	1.827462
H	-0.23913	-2.115835	0.392577
H	-1.666254	-1.152798	0.816804
Br	3.628273	0.0	0.0
