17

C	-0.432655	-0.056401	-1.457721
C	0.0	0.0	0.0
Cl	-2.14975	-0.564727	-1.598005
H	1.093586	0.0	0.0
H	-0.311502	-0.951314	0.443447
N	-0.332976	1.360642	-2.028294
O	0.790594	1.691795	-2.394231
O	-1.322263	2.08614	-2.017461
C	0.439448	-0.98421	-2.274669
H	0.301904	-2.000183	-1.901179
H	1.484775	-0.701408	-2.139659
H	0.162321	-0.953392	-3.330876
C	-0.55295	1.17024	0.798155
H	-1.64251	1.232131	0.740124
H	-0.132086	2.114366	0.446733
H	-0.261978	1.057802	1.844645
Br	3.678185	0.0	0.0
