17

C	-0.432819	0.014795	-1.452362
C	0.0	0.0	0.0
Cl	-0.034981	-1.551165	-2.21426
H	1.093903	0.0	0.0
H	-0.350263	-0.929027	0.45443
N	-1.961835	0.108345	-1.488616
O	-2.468594	1.070002	-2.065722
O	-2.587742	-0.758463	-0.886733
C	0.19202	1.123365	-2.263806
H	-0.108921	1.061463	-3.309513
H	-0.10488	2.096107	-1.872951
H	1.275249	1.013665	-2.173442
C	-0.507183	1.200184	0.794328
H	-0.13277	1.119797	1.817063
H	-1.599875	1.245083	0.838225
H	-0.130814	2.142116	0.391572
Br	3.614572	0.0	0.0
