15

C	0.0	0.0	0.0
C	-0.326641	0.083694	-1.521831
Br	1.906954	0.0	0.0
H	-1.416128	0.042839	-1.59131
H	0.00135	1.073351	-1.83718
N	-0.402132	1.294299	0.699946
O	-0.568956	2.27896	-0.021758
O	-0.399942	1.3215	1.923615
N	-0.66824	-1.178086	0.62064
O	-0.735201	-2.171425	-0.15304
O	-0.651842	-1.297015	1.856216
N	0.366687	-0.913473	-2.334725
H	-0.058033	-1.80819	-2.123035
H	0.183387	-0.682063	-3.304082
H	-2.102344	0.0	0.0
