15

C	0.0	0.0	0.0
C	-0.374906	0.113138	-1.520012
Br	1.934034	0.0	0.0
H	-1.329724	0.620438	-1.548998
H	-0.52418	-0.917287	-1.840997
N	-0.426709	1.229213	0.743748
O	-0.380788	1.240008	1.97178
O	-0.561296	2.239201	0.042191
N	-0.399215	-1.300014	0.631714
O	-0.327693	-2.27974	-0.125027
O	-0.560407	-1.379257	1.845922
N	0.58274	0.841073	-2.341681
H	0.093301	1.529656	-2.891354
H	1.112528	0.228489	-2.945958
H	-2.029211	0.0	0.0
