12
Coordinates from ORCA-job run
  C   -0.59203683484410     -0.60168795675743     -0.06372000778512
  C   0.87945720585463     -0.25143100914645      0.03540436201817
  Cl  -0.87594716326984     -2.13066881506438      0.91895578744028
  H   1.10413893357806     -0.00782569556419      1.08700725445423
  H   -0.83652720493737     -0.87569790620827     -1.08866228319063
  H   1.47183046972331     -1.12878513960530     -0.22988226058537
  N   -1.39748336559821      0.49353864647714      0.34657407026600
  H   -1.28031832745553      0.67629191741001      1.33603146529232
  H   -2.37806291253501      0.33253994499163      0.15980344616637
  N   1.15180919064072      0.81147126857948     -0.92186779431420
  H   2.13531717062598      1.04866188176645     -0.91269763707293
  H   0.61882283821735      1.63259286312130     -0.66694640268912
