12
Coordinates from ORCA-job run
  C   -0.50914372847891     -0.58023785112142      0.29928768382078
  C   0.41205831598112      0.45240544029039     -0.33264904637698
  Cl  0.13665284711226     -0.96985672178551      1.93835448713411
  H   -0.03239504728172      0.71710199188076     -1.29808403678500
  H   -0.44799248518731     -1.50724768586077     -0.27221298265993
  H   0.39660369398945      1.35384933828083      0.30120721984949
  N   -1.88667139739674     -0.19237553613593      0.43140028356742
  H   -2.34257366942825     -0.21806820802726     -0.47194239930167
  H   -1.96266927780778      0.74039559138368      0.81850863264123
  N   1.73516424650777     -0.10265138487979     -0.57826421518889
  H   2.28286430228611      0.53835280959788     -1.13751665123359
  H   2.21810219970402     -0.23166778362287      0.30191102453302
