12
Coordinates from ORCA-job run
  C   -0.59050895015412     -0.75761451864989      0.00986204768676
  C   0.80095327048243     -0.14089492895969      0.13500222702883
  Cl  -0.65027838917192     -2.21950342504189      1.03888591916823
  H   1.56494727371614     -0.89780885235130     -0.08446724894247
  H   -0.74502341839021     -1.10106498600807     -1.01677285770219
  H   0.93640203804112      0.17411596995427      1.17362272380233
  N   -1.68298461807139      0.11519942579849      0.36236046742047
  H   -1.54878621705109      0.96937629854522     -0.17072520121383
  H   -1.61058203151839      0.35431392450727      1.34607739049392
  N   0.85523970242523      1.03602435105860     -0.73207427411917
  H   1.54107607794781      1.69719242734997     -0.39407998927336
  H   1.12754526174439      0.76966431379701     -1.66969120434952
