16

C	0.0	0.0	0.0
C	-0.444479	0.041209	-1.48089
Cl	1.847229	0.0	0.0
H	-1.536186	0.101007	-1.352791
N	-0.545768	1.058138	0.775971
H	-1.577	0.813847	0.68566
H	-0.392887	1.894627	0.2158
C	-0.3657	-1.298116	0.592735
N	-0.564581	-2.365966	1.037734
N	0.014515	-1.141292	-2.223629
H	-0.452025	-1.12067	-3.125635
H	-0.330003	-1.973537	-1.750678
N	0.046128	1.265367	-2.08064
H	-0.54086	1.510182	-2.868124
H	0.991341	1.100935	-2.416403
F	-2.786669	0.0	0.0
