16

C	0.0	0.0	0.0
C	-0.46699	-0.132185	-1.516178
Cl	1.822776	0.0	0.0
H	0.450899	-0.172991	-2.109256
N	-0.522128	1.185496	0.603988
H	-1.547871	0.991163	0.540869
H	-0.259161	1.186127	1.584093
C	-0.311907	-1.211698	0.792521
N	-0.498675	-2.092554	1.548661
N	-1.264557	0.982371	-1.991013
H	-2.119055	0.913166	-1.427177
H	-0.804931	1.852685	-1.743543
N	-1.174926	-1.389431	-1.654687
H	-2.01598	-1.245287	-1.078939
H	-1.480532	-1.4296	-2.621269
F	-2.823563	0.0	0.0
