16

C	0.0	0.0	0.0
C	-0.543295	-0.000543	-1.41942
Cl	1.855226	0.0	0.0
H	-1.636502	-0.137306	-1.162819
N	-0.395105	1.174664	0.673622
H	-0.084503	1.181333	1.633554
H	-0.038903	1.963934	0.148818
C	-0.39745	-1.212707	0.720868
N	-0.607601	-2.231617	1.263729
N	0.028297	-1.105357	-2.153017
H	-0.465018	-1.235894	-3.025869
H	1.012175	-0.94066	-2.343217
N	-0.304023	1.338622	-1.986846
H	0.216532	1.253631	-2.849862
H	-1.2017	1.762813	-2.182422
F	-2.8019	0.0	0.0
