16

C	0.0	0.0	0.0
C	-0.482668	0.181155	-1.546253
Cl	1.792445	0.0	0.0
H	0.445886	0.197171	-2.124645
N	-0.534913	1.024454	0.844002
H	-0.26835	0.824877	1.804481
H	-1.560829	0.836423	0.735756
C	-0.329218	-1.364873	0.465772
N	-0.514052	-2.46977	0.824498
N	-1.192199	1.422833	-1.740982
H	-2.084059	1.263636	-1.262888
H	-0.712898	2.139598	-1.20576
N	-1.31582	-0.896699	-2.023998
H	-0.824782	-1.776659	-1.926099
H	-2.118065	-0.889608	-1.380399
F	-2.812886	0.0	0.0
