16

C	0.0	0.0	0.0
C	-0.466765	0.053496	-1.466786
Cl	1.804996	0.0	0.0
H	-1.556786	0.015169	-1.31064
N	-0.531243	1.052524	0.803041
H	-0.385282	1.896911	0.253305
H	-1.559787	0.816944	0.718956
C	-0.380568	-1.296682	0.590125
N	-0.547107	-2.33885	1.103111
N	-0.024144	-1.121527	-2.194262
H	0.966075	-1.060618	-2.399497
H	-0.532908	-1.190224	-3.066641
N	-0.106235	1.359662	-2.018205
H	0.80476	1.308781	-2.461448
H	-0.787573	1.618862	-2.718727
F	-2.781837	0.0	0.0
