15

C	0.0	0.0	0.0
C	-0.263907	-0.463736	-1.479106
Cl	1.825728	0.0	0.0
H	0.013558	-1.519172	-1.51258
H	0.484308	0.081474	-2.05764
N	-0.624465	1.190035	0.325861
H	-1.656618	0.924753	0.216173
H	-0.449037	1.410253	1.299982
N	-0.319122	-1.130707	1.034895
O	-0.360771	-2.294326	0.655817
O	-0.476433	-0.760583	2.194312
N	-1.545087	-0.253557	-2.102908
H	-1.633828	0.741931	-2.275851
H	-2.277228	-0.427132	-1.392359
F	-2.933584	0.0	0.0
