15

C	0.0	0.0	0.0
C	-0.306622	-0.296718	-1.49944
Cl	1.819564	0.0	0.0
H	-0.258859	-1.389598	-1.58881
H	0.549317	0.103776	-2.045211
N	-0.593479	1.141218	0.498713
H	-0.429589	1.190386	1.498232
H	-1.622973	0.951852	0.333504
N	-0.306776	-1.258758	0.909556
O	-0.323105	-2.378956	0.416231
O	-0.46467	-1.01607	2.101494
N	-1.497267	0.327427	-2.056582
H	-1.663316	-0.119881	-2.951536
H	-2.285474	0.118438	-1.412259
F	-2.923604	0.0	0.0
