15

C	0.0	0.0	0.0
C	-0.456576	-0.063398	-1.446905
Cl	1.869492	0.0	0.0
H	-0.050836	-0.97216	-1.898201
H	-1.546787	-0.140537	-1.338904
N	-0.596755	0.983108	0.735175
H	-0.40329	0.840599	1.71892
H	-1.646617	0.783675	0.52358
N	-0.230001	-1.437706	0.63919
O	-0.170421	-2.42936	-0.078956
O	-0.423982	-1.460396	1.850244
N	-0.096217	1.163601	-2.154176
H	0.835747	1.076091	-2.540494
H	-0.744801	1.290835	-2.919419
F	-2.828087	0.0	0.0
