15

C	0.0	0.0	0.0
C	-0.506258	0.233754	-1.422893
Cl	1.765353	0.0	0.0
H	-0.306668	1.295227	-1.592728
H	-1.589471	0.083425	-1.326816
N	-0.604364	0.90525	0.868697
H	-0.386648	0.639802	1.822543
H	-1.645245	0.715335	0.667923
N	-0.332906	-1.479604	0.432772
O	-0.342653	-1.695629	1.640084
O	-0.528868	-2.331898	-0.427277
N	0.176488	-0.536239	-2.466604
H	-0.210013	-1.470925	-2.457887
H	-0.066462	-0.114881	-3.355467
F	-2.85545	0.0	0.0
