15

C	0.0	0.0	0.0
C	-0.442674	-0.046206	-1.453498
Cl	1.872698	0.0	0.0
H	-0.043344	-0.957612	-1.904009
H	-1.533826	-0.109061	-1.363221
N	-0.593782	0.982408	0.740187
H	-1.644091	0.779331	0.52067
H	-0.413143	0.822234	1.72514
N	-0.234848	-1.435747	0.627817
O	-0.400345	-1.469583	1.842119
O	-0.210038	-2.421691	-0.100944
N	-0.055065	1.179472	-2.146963
H	-0.663239	1.297235	-2.947306
H	0.897072	1.095235	-2.484749
F	-2.814946	0.0	0.0
