15

C	0.0	0.0	0.0
C	-0.495822	-0.079313	-1.429929
Cl	1.847233	0.0	0.0
H	-0.141609	-1.015815	-1.850749
H	-1.59479	-0.09652	-1.282155
N	-0.567423	1.044596	0.71144
H	-0.321602	0.976429	1.696343
H	-1.604694	0.835554	0.575848
N	-0.285498	-1.380582	0.664679
O	-0.40576	-1.380873	1.88735
O	-0.352965	-2.384681	-0.041999
N	0.003126	1.068365	-2.18495
H	0.435135	0.745056	-3.037828
H	-0.765327	1.681784	-2.410835
F	-2.823855	0.0	0.0
