15

C	0.0	0.0	0.0
C	-0.503518	0.149189	-1.435775
Cl	1.765273	0.0	0.0
H	-0.292149	1.195595	-1.671477
H	-1.588134	0.015195	-1.332488
N	-0.604186	0.957336	0.811564
H	-0.383754	0.754224	1.780291
H	-1.644255	0.754082	0.62331
N	-0.338118	-1.44951	0.519493
O	-0.556434	-2.345698	-0.288402
O	-0.335632	-1.596371	1.737288
N	0.172152	-0.69332	-2.425761
H	-0.247794	-1.612084	-2.383294
H	-0.028294	-0.307095	-3.340173
F	-2.854172	0.0	0.0
