15

C	0.0	0.0	0.0
C	-0.457956	-0.170634	-1.439593
Cl	1.860491	0.0	0.0
H	-1.548888	-0.202852	-1.325678
H	-0.089039	-1.129232	-1.806298
N	-0.590045	1.04881	0.655439
H	-0.393073	0.978126	1.646879
H	-1.636659	0.828741	0.469041
N	-0.246512	-1.37297	0.752849
O	-0.43202	-1.298598	1.962833
O	-0.207338	-2.420747	0.116494
N	-0.042427	0.969249	-2.251109
H	0.808324	0.749671	-2.752055
H	-0.767837	1.174098	-2.924305
F	-2.819922	0.0	0.0
