15

C	0.0	0.0	0.0
C	-0.467326	0.040156	-1.446659
Cl	1.847262	0.0	0.0
H	-0.066391	-0.833874	-1.963138
H	-1.556415	-0.045363	-1.337428
N	-0.589731	0.944142	0.80233
H	-1.634175	0.759113	0.589027
H	-0.39349	0.729187	1.773338
N	-0.251767	-1.468209	0.545399
O	-0.403479	-1.572546	1.75804
O	-0.247055	-2.408567	-0.241262
N	-0.096769	1.308278	-2.068138
H	-0.846596	1.607024	-2.675899
H	0.743472	1.200108	-2.620869
F	-2.828029	0.0	0.0
