15

C	0.0	0.0	0.0
C	-0.467467	-0.18095	-1.435737
Cl	1.846951	0.0	0.0
H	0.130416	-0.954052	-1.914862
H	-1.512591	-0.485358	-1.329045
N	-0.621004	1.054988	0.622852
H	-1.678709	0.770882	0.461303
H	-0.39792	1.053164	1.610841
N	-0.253849	-1.366622	0.749474
O	-0.214253	-2.405875	0.102641
O	-0.437064	-1.295653	1.959494
N	-0.293608	1.089299	-2.150065
H	-0.749803	0.983606	-3.051418
H	-0.839548	1.775195	-1.637157
F	-2.827476	0.0	0.0
