15

C	0.0	0.0	0.0
C	-0.464598	-0.121575	-1.443151
Cl	1.848105	0.0	0.0
H	-0.081056	-1.059137	-1.849683
H	-1.555097	-0.173079	-1.326488
N	-0.589157	1.027322	0.691486
H	-1.633832	0.817843	0.502451
H	-0.3901	0.92541	1.679943
N	-0.251719	-1.399735	0.706426
O	-0.235719	-2.423067	0.031428
O	-0.414517	-1.365886	1.921285
N	-0.071028	1.056971	-2.209477
H	-0.790312	1.257048	-2.890516
H	0.796934	0.884212	-2.699727
F	-2.825118	0.0	0.0
