15

C	0.0	0.0	0.0
C	-0.469397	-0.155039	-1.436658
Cl	1.847133	0.0	0.0
H	0.119634	-0.928269	-1.927872
H	-1.517257	-0.449892	-1.332307
N	-0.620555	1.045787	0.642212
H	-0.398411	1.024979	1.630753
H	-1.677877	0.767634	0.474641
N	-0.252035	-1.373835	0.729078
O	-0.239333	-2.402311	0.063075
O	-0.409547	-1.321971	1.944075
N	-0.284935	1.124965	-2.133596
H	-0.784963	1.815231	-1.581923
H	-0.781067	1.050333	-3.015802
F	-2.827218	0.0	0.0
