15

C	0.0	0.0	0.0
C	-0.29268	-0.478342	-1.471384
Cl	1.825634	0.0	0.0
H	0.518459	-0.045194	-2.060187
H	-0.146217	-1.560452	-1.470278
N	-0.617788	1.195162	0.31783
H	-1.650634	0.933043	0.224356
H	-0.427273	1.433227	1.284828
N	-0.311454	-1.120168	1.054869
O	-0.492343	-0.730966	2.204426
O	-0.3183	-2.292281	0.700106
N	-1.535578	-0.133467	-2.113884
H	-1.531723	0.872552	-2.246513
H	-2.292124	-0.28658	-1.422632
F	-2.931292	0.0	0.0
