11

C	-0.534823	0.031589	-1.428547
C	0.0	0.0	0.0
Cl	0.060145	-1.364569	-2.384071
H	1.092782	0.0	0.0
H	-1.623469	-0.052427	-1.450333
H	-0.297014	0.92718	0.50359
C	-0.17227	1.278747	-2.104146
N	0.116623	2.27894	-2.647757
C	-0.542415	-1.129982	0.730653
N	-0.970777	-2.045797	1.330362
H	2.699479	0.0	0.0
