11

C	-0.53805	-0.00978	-1.428231
C	0.0	0.0	0.0
Cl	0.048447	-1.438006	-2.339777
H	1.092769	0.0	0.0
H	-1.628327	-0.088193	-1.446619
H	-0.297802	0.943156	0.472534
C	-0.177725	1.21604	-2.143111
N	0.110329	2.198729	-2.717697
C	-0.55044	-1.103916	0.766745
N	-0.986285	-1.997486	1.394202
H	2.707925	0.0	0.0
