14

C	0.0	0.0	0.0
C	-0.469095	-0.038902	-1.46704
Cl	1.801238	0.0	0.0
H	-0.169848	0.856415	-2.006587
H	-1.561169	-0.153365	-1.438366
C	-0.381774	1.323709	0.523307
N	-0.577389	2.396023	0.959995
N	-0.485836	-1.01524	0.882878
H	-0.321477	-1.914094	0.444026
H	-1.502944	-0.873539	0.92686
N	0.113259	-1.180527	-2.213832
O	0.025596	-2.302411	-1.714012
O	0.635203	-0.938793	-3.302033
Cl	-3.45306	0.0	0.0
