14

C	0.0	0.0	0.0
C	-0.468489	-0.045161	-1.466647
Cl	1.802046	0.0	0.0
H	-1.561585	-0.155571	-1.433225
H	-0.169534	0.847608	-2.011817
C	-0.37463	1.329632	0.516414
N	-0.590389	2.397505	0.954198
N	-0.487663	-1.006825	0.888468
H	-0.326859	-1.908914	0.454351
H	-1.503544	-0.86166	0.935125
N	0.107333	-1.191621	-2.209204
O	0.037431	-2.30832	-1.694628
O	0.60388	-0.961069	-3.31132
Cl	-3.4647	0.0	0.0
