14

C	0.0	0.0	0.0
C	-0.487459	0.219622	-1.435257
Cl	1.776707	0.0	0.0
H	-0.24182	-0.655954	-2.034017
H	-1.573374	0.373831	-1.37946
C	-0.38869	1.097525	0.905426
N	-0.590705	1.95042	1.686729
N	-0.501037	-1.231013	0.551478
H	-1.522129	-1.115427	0.604916
H	-0.300761	-1.984883	-0.098707
N	0.132715	1.376733	-2.126528
O	0.605311	1.176163	-3.246741
O	0.119752	2.459701	-1.54785
Cl	-3.472685	0.0	0.0
