14

C	0.0	0.0	0.0
C	-0.174772	0.163612	-1.555531
Cl	1.786753	0.0	0.0
H	0.483673	-0.575734	-2.011236
H	0.130474	1.165864	-1.84798
C	-0.411198	1.231255	0.693358
N	-0.592785	2.269254	1.210906
N	-0.548509	-1.14897	0.618584
H	-0.415827	-1.947404	0.006969
H	-1.566961	-0.971068	0.673105
N	-1.473286	-0.103734	-2.237725
O	-1.772382	-1.288749	-2.367465
O	-2.056886	0.848734	-2.740357
Cl	-3.422428	0.0	0.0
