15

C	-0.323031	-0.088592	-1.505424
C	0.0	0.0	0.0
Cl	-2.086262	-0.433071	-1.764673
H	1.093716	0.0	0.0
C	-0.092646	1.240395	-2.103746
N	0.132833	2.266193	-2.633113
N	0.461007	-1.129385	-2.083302
H	0.49222	-1.034946	-3.090562
H	1.408625	-1.102933	-1.699255
N	-0.455694	-1.244678	0.707433
O	0.214498	-2.250524	0.513065
O	-1.455713	-1.163256	1.418202
C	-0.569548	1.174972	0.630011
N	-1.001196	2.137978	1.146246
Br	3.304798	0.0	0.0
