14

C	0.0	0.0	0.0
C	-0.490084	-0.018279	-1.441234
F	1.393466	0.0	0.0
H	-0.258399	-0.984862	-1.888118
H	-1.585589	0.129439	-1.32993
C	-0.392906	1.236626	0.720586
N	-0.557212	2.205162	1.361594
N	-0.518901	-1.109612	0.734404
H	-1.551279	-0.903527	0.664067
H	-0.331628	-1.950224	0.193694
N	0.124053	0.993862	-2.328322
O	0.412578	0.637585	-3.474022
O	0.285787	2.132061	-1.893336
F	-2.733925	0.0	0.0
