14

C	0.0	0.0	0.0
C	-0.465884	-0.138236	-1.454829
F	1.382805	0.0	0.0
H	-0.982954	-1.082504	-1.567073
H	0.423628	-0.096492	-2.092207
C	-0.357251	1.27687	0.678404
N	-0.437606	2.201431	1.399118
N	-0.460632	-1.143828	0.722806
H	-1.500147	-0.968644	0.632334
H	-0.193039	-1.02296	1.695469
N	-1.378855	0.89257	-2.014932
O	-1.191815	2.065829	-1.711433
O	-2.164398	0.503337	-2.872662
F	-2.560561	0.0	0.0
