11
Coordinates from ORCA-job run
  C   0.90686608686520     -0.30294231556687     -0.02802349381194
  C   -0.51632565181226      0.10910525622453      0.40431324114449
  F   0.81444210117876     -1.29548500695268     -0.96752000131576
  H   -0.43058883221413      0.91868250946289      1.14039910799240
  H   1.44729221282341     -0.69628349903509      0.83808139324862
  C   1.62422113498128      0.85325301280605     -0.57981067806797
  N   2.19799463592694      1.79127537159506     -0.99070348840419
  C   -1.18752117886411     -1.03203264480480      1.03609040547209
  N   -1.69476399843022     -1.94853671354270      1.56536249113714
  C   -1.28157267348705      0.59888146958560     -0.74694304219343
  N   -1.87904383696782      1.00408256022801     -1.67224593520145
