11
Coordinates from ORCA-job run
  C   0.91451683931180     -0.20627778213280      0.14632365018122
  C   -0.60883252228310     -0.22595964367145     -0.11435350245024
  F   1.36400001748369     -1.50200419329334      0.10069041740026
  H   -0.77007064388773     -0.66260933802719     -1.10729090925345
  H   1.12110266015272      0.20019012323875      1.14009295282398
  C   1.59337550457701      0.59446850210974     -0.87952173223133
  N   2.12716070302127      1.23417013521981     -1.70657053570191
  C   -1.14254266462310      1.13839253124201     -0.09348365808867
  N   -1.54365670617222      2.24156488975202     -0.07364618183027
  C   -1.27031528986898     -1.06738032142864      0.88772310465038
  N   -1.78373789771136     -1.74355490300890      1.69803639450001
