11
Coordinates from ORCA-job run
  C   0.83658760474619     -0.43188096153435     -0.15709655821106
  C   -0.46651176226311      0.11873075651239      0.46042057385205
  F   0.51939153744106     -1.21490312352820     -1.23511658760747
  H   -0.19928312776311      0.76301240641284      1.30772159870184
  H   1.35054795922753     -1.05332425289909      0.58224075164451
  C   1.70991853966698      0.67321465214386     -0.57172964553804
  N   2.41416057291850      1.56284856360012     -0.87283245787029
  C   -1.28133370778645     -0.99658092066997      0.95428107173564
  N   -1.89862326635154     -1.90611759284266      1.36519412096964
  C   -1.20540051161111      0.91699463013915     -0.52319808289296
  N   -1.78145383822496      1.56900584266592     -1.31088478478387
