11
Coordinates from ORCA-job run
  C   0.92331730559613     -0.06202417168915      0.21054637835407
  C   -0.56943903956279     -0.31680638741717     -0.09844546700091
  F   1.52817406077184     -1.28083552739997      0.38853867942690
  H   -0.62081886471263     -0.91638039199695     -1.01520577637182
  H   1.02384337744373      0.51584979703689      1.13328883863486
  C   1.55593223510001      0.65131090745192     -0.90547588690550
  N   2.05254963465126      1.21772790849366     -1.80583872542934
  C   -1.26498317568611      0.95484822257128     -0.31277474425862
  N   -1.79650395468488      1.98795873123853     -0.48152335121576
  C   -1.17924770398768     -1.07395446942228      0.99910910552878
  N   -1.65282387492888     -1.67969461886674      1.88578094923733
