11
Coordinates from ORCA-job run
  C   0.85808542777599     -0.40206157226808     -0.12999375266206
  C   -0.49166587716345      0.08483521117890      0.43850686570076
  F   0.62200007400283     -1.15183685932804     -1.25154423791249
  H   -0.28853980945807      0.70341348972712      1.32208349325492
  H   1.35324882925341     -1.03575997928449      0.61172984457403
  C   1.71459500378527      0.74490579958021     -0.45643167366347
  N   2.39888257122722      1.67074379413317     -0.68553856573128
  C   -1.29631459554930     -1.07130351578656      0.84776451410110
  N   -1.90789216500945     -2.01117019988533      1.19397031116033
  C   -1.20414598275125      0.89995605897110     -0.55086464048875
  N   -1.75825347611321      1.56827777296198     -1.34068215833309
