16

C	0.0	0.0	0.0
C	-0.376847	-0.236244	-1.514054
Cl	1.791653	0.0	0.0
H	0.574942	-0.348101	-2.042854
H	-0.356172	0.964587	0.345791
C	-0.457459	-1.043898	0.911989
N	-0.602929	-1.942836	1.654822
C	-1.08423	0.996125	-2.067861
H	-0.489009	1.903111	-1.899052
H	-1.236281	0.892428	-3.148414
H	-2.033417	1.056006	-1.531486
C	-1.183218	-1.50637	-1.767763
H	-1.33018	-1.628336	-2.847624
H	-0.660876	-2.394689	-1.398856
H	-2.132318	-1.381896	-1.243947
F	-2.550885	0.0	0.0
