16

C	0.0	0.0	0.0
C	-0.382014	-0.004469	-1.529868
Cl	1.793119	0.0	0.0
H	0.567457	-0.022171	-2.074573
H	-0.35622	0.900565	0.489939
C	-0.453468	-1.166939	0.750306
N	-0.626896	-2.135675	1.392473
C	-1.101751	1.293796	-1.882455
H	-0.487961	2.165466	-1.622235
H	-1.300334	1.334132	-2.96011
H	-2.029475	1.277083	-1.306135
C	-1.176591	-1.232715	-1.962877
H	-2.115953	-1.205557	-1.409026
H	-1.34698	-1.186572	-3.045517
H	-0.628037	-2.15564	-1.749881
F	-2.572353	0.0	0.0
