16

C	0.0	0.0	0.0
C	-0.485344	0.195464	-1.445728
Cl	1.793349	0.0	0.0
H	-1.579515	0.153046	-1.261552
H	-0.359857	0.818946	0.617072
C	-0.451273	-1.269168	0.570276
N	-0.597344	-2.345606	1.018468
C	-0.036249	-0.923789	-2.373528
H	-0.50985	-0.795007	-3.352389
H	1.04879	-0.939525	-2.526087
H	-0.343527	-1.89882	-1.985817
C	-0.093663	1.567958	-1.972553
H	-0.467844	2.353166	-1.307712
H	-0.547376	1.728145	-2.955823
H	0.99013	1.690731	-2.079956
F	-2.624237	0.0	0.0
