11

C	-0.517731	-0.048943	-1.425673
C	-0.004379	-0.004114	0.012145
Cl	-0.069051	1.460207	-2.285064
H	1.088256	-0.014321	0.012488
H	-1.609201	-0.08652	-1.458323
H	-0.333505	0.931683	0.47348
C	-0.026243	-1.205994	-2.176412
N	0.262725	-2.149336	-2.813267
C	-0.54116	-1.126456	0.763093
N	-0.968294	-2.041308	1.366033
H	2.699317	0.00694	-0.083344
