11

C	-0.518659	0.087139	-1.424961
C	-0.002006	-0.008226	0.009358
Cl	-0.066418	1.669587	-2.137778
H	1.092643	-0.018972	0.008861
H	-1.610271	0.056006	-1.459252
H	-0.326294	0.879871	0.559728
C	-0.031447	-0.994433	-2.283255
N	0.262438	-1.875247	-3.002066
C	-0.54082	-1.196408	0.649002
N	-0.966485	-2.164977	1.162639
H	2.700488	0.040879	-0.071199
