15

C	0.0	0.0	0.0
C	-0.454391	0.037763	-1.453244
Br	1.957376	0.0	0.0
H	-0.041917	0.938537	-1.913944
H	-1.548043	0.130203	-1.369227
N	-0.463552	1.219947	0.620795
H	-1.493172	1.12718	0.555961
H	-0.224903	1.187933	1.60922
N	-0.479997	-1.241653	0.573139
H	-1.509844	-1.117619	0.529265
H	-0.216913	-1.273637	1.55245
N	-0.02552	-1.157688	-2.190161
H	-0.149625	-1.934103	-1.546314
H	-0.687803	-1.300677	-2.946381
H	-3.082025	0.0	0.0
