15

C	0.0	0.0	0.0
C	-0.43615	0.014046	-1.463012
Br	1.963374	0.0	0.0
H	-0.020078	0.908194	-1.941981
H	-1.5297	0.114737	-1.384043
N	-0.452775	1.163464	0.727302
H	-1.482944	1.073008	0.680675
H	-0.18923	2.002059	0.215901
N	-0.512424	-1.199706	0.598358
H	-0.323357	-1.141705	1.595557
H	-1.541257	-1.084249	0.482494
N	-0.008411	-1.18887	-2.188293
H	-0.075916	-1.94812	-1.515934
H	-0.704243	-1.376825	-2.903725
H	-3.06608	0.0	0.0
