15

C	0.0	0.0	0.0
C	-0.437292	-0.014909	-1.462404
Br	1.96338	0.0	0.0
H	-0.022426	-0.911854	-1.939135
H	-1.531667	-0.114562	-1.384489
N	-0.511705	1.200124	0.598375
H	-1.540547	1.086098	0.488844
H	-0.320496	1.146021	1.595111
N	-0.449523	-1.164632	0.729582
H	-1.478675	-1.083923	0.677372
H	-0.177827	-2.00435	0.22518
N	-0.002591	1.182635	-2.189935
H	-0.678329	1.357461	-2.927896
H	-0.095033	1.950874	-1.52985
H	-3.0858	0.0	0.0
