15

C	0.0	0.0	0.0
C	-0.382814	0.045615	-1.466869
Br	2.095753	0.0	0.0
H	-0.045114	-0.882676	-1.95054
H	-1.48599	0.048404	-1.395257
N	-0.396065	1.172551	0.616433
H	-0.13061	1.992497	0.093516
H	-0.186194	1.202301	1.600589
N	-0.52364	-1.100327	0.716009
H	-0.335851	-1.95591	0.20273
H	-1.559252	-0.903298	0.664145
N	0.078922	1.268792	-2.117714
H	-0.521421	1.47522	-2.905227
H	1.026394	1.14341	-2.451036
H	-3.131039	0.0	0.0
