16
Coordinates from ORCA-job run
  C   0.67830124132402      0.19141053711285      0.63429026809596
  C   -0.35432158366881     -0.00804271178701     -0.49560373243573
  Br  -0.18952414438546      0.62801240282710      2.33143368822273
  H   0.25697139153739     -0.38307668697674     -1.33808495964668
  N   1.43020405200609     -1.03018715339469      0.82995732166594
  H   1.96334983849017     -1.23177200072449     -0.01102247062520
  H   2.08043947257559     -0.92362620420393      1.60032159804206
  C   1.52311291917412      1.34908799136556      0.29471992440992
  N   2.22917481094246      2.22037525729599     -0.06065610238460
  N   -1.00046271835638      1.25825073943758     -0.78832837811309
  H   -0.41130378586783      1.85357077457404     -1.35770961736135
  H   -1.86584100767749      1.10002947528841     -1.28787328475700
  C   -1.38988059045457     -1.06360254089262     -0.14804302710846
  H   -1.92188325738840     -1.36615883260515     -1.05423953417728
  H   -2.11243778862010     -0.65361172154584      0.55907712889583
  H   -0.91689884963081     -1.94065932577106      0.29176117727694
