16
Coordinates from ORCA-job run
  C   0.88362316587376      0.33731323142213      0.32426144863594
  C   -0.44312692479795      0.31602561922087     -0.46213803390079
  Br  1.29882171533176      2.34248220455240      0.65527994442044
  H   -0.31273509701603      0.98481372641799     -1.32218740509585
  N   0.77132896410085     -0.40689949661916      1.49831058762453
  H   -0.08296674516758     -0.15246855331394      1.98245584424440
  H   1.58707632233312     -0.37229345117776      2.09321326541313
  C   2.01172777398892     -0.09807192936069     -0.49311058058551
  N   2.89373897821540     -0.47902220502363     -1.17022623352731
  N   -1.49029983926140      0.74752699049447      0.45687518683389
  H   -1.50305650375585      1.75796477597722      0.52572776925399
  H   -2.39390848366605      0.43979683897435      0.12012944404314
  C   -0.74367060024516     -1.09349126731927     -0.95610434486506
  H   -0.89448184027113     -1.76603424636609     -0.11103184425731
  H   0.06834122087455     -1.48012000515356     -1.57379415003112
  H   -1.65041210653721     -1.07852223272534     -1.56766089820650
