16
Coordinates from ORCA-job run
  C   0.88426513670704      0.33483478713795      0.32549219023317
  C   -0.44360579589774      0.31962584817916     -0.45963300490815
  Br  1.30119146074834      2.33845220893309      0.66713457118973
  H   -0.31327298868517      0.99411482914031     -1.31538064808206
  N   0.77259473822359     -0.41581410803224      1.49513421538870
  H   -0.08083206751814     -0.16431930905135      1.98221119115999
  H   1.58952460341101     -0.38867235234585      2.08870241961374
  C   2.01111552858734     -0.09619629484908     -0.49595876584228
  N   2.89240732376014     -0.47334134775359     -1.17620091663610
  N   -1.48931867826186      0.74563085491983      0.46342387124221
  H   -1.50171564417889      1.75553427665567      0.53947255943283
  H   -2.39348877373211      0.44003276997023      0.12665726831956
  C   -0.74556723638857     -1.08654122038296     -0.96234352804772
  H   -1.65317348490951     -1.06733630330200     -1.57230817016948
  H   0.06518820661521     -1.46953143012735     -1.58382206991193
  H   -0.89531232848068     -1.76447320909183     -0.12158118298221
