16
Coordinates from ORCA-job run
  C   0.88219913144989      0.31892539716238      0.34611558981775
  C   -0.42828898763174      0.32905323374437     -0.46740348504999
  Br  1.32390528207190      2.31344159245378      0.70820143485816
  H   -0.26896430003494      1.00603511224312     -1.31627686721827
  N   0.73323777652044     -0.43617318114946      1.50890913180422
  H   -0.12653898549689     -0.17336637567451      1.97866624022825
  H   1.53720220389879     -0.42380887114002      2.12047488493179
  C   2.01975835135968     -0.12598451520925     -0.45301076948392
  N   2.90992592489784     -0.51409817749010     -1.11519470935263
  N   -1.48692145634985      0.76679982004710      0.43531389002870
  H   -2.38805487900591      0.47678551867861      0.07772014695021
  H   -1.48576892645042      1.77643448414047      0.51557721499807
  C   -0.74154124968168     -1.06932897368439     -0.98458854399059
  H   -1.63328858478034     -1.03166871954019     -1.61654484547144
  H   0.07768330876098     -1.46340364577800     -1.58765667324340
  H   -0.92354460952776     -1.74864269880392     -0.15130263980692
