16
Coordinates from ORCA-job run
  C   0.66157327878529      0.28392297532154      0.61665599806491
  C   -0.23837614443830     -0.08984739988105     -0.57444904932210
  Br  -0.29211778575729      1.50307392064637      1.83562274556017
  H   0.40003680768532     -0.73692782534772     -1.19416660562859
  N   1.01037353639172     -0.89369303315695      1.37861068530459
  H   1.59862775472609     -0.64139945168021      2.16518263829029
  H   1.53784967107024     -1.52454008457501      0.78106284089772
  C   1.83131926317845      1.03469342315507      0.13154851410209
  N   2.84206270463195      1.52583112563082     -0.21492856170023
  N   -0.48985309002672      1.11198510557008     -1.35272844864390
  H   -0.76419005227118      0.86724984988252     -2.29551743290597
  H   -1.24597824315283      1.64267693188267     -0.93539004883401
  C   -1.47522892598152     -0.87801252510537     -0.15716465166323
  H   -2.00108001347546     -1.21629251776149     -1.05384616808067
  H   -1.21881947190714     -1.74428475396471      0.45318091021403
  H   -2.15419928945861     -0.24343574061658      0.41632663434491
