16
Coordinates from ORCA-job run
  C   0.84382538021594      0.28707168358215      0.32160252523862
  C   -0.57242687833606      0.22956785748656     -0.27982913837438
  Br  2.06690386913047      1.20823088297906     -1.00809140333078
  H   -0.86824486488717      1.28309267697872     -0.43208827685689
  N   0.81377925909369      0.97632717741366      1.56464447475511
  H   1.70567609766791      0.93632746493281      2.04282387954061
  H   0.55725228397544      1.94694624029774      1.42214384655911
  C   1.39764800147030     -1.05395657604108      0.50016908106767
  N   1.86387790733141     -2.12359586892452      0.63639744404955
  N   -1.37636016290531     -0.48506379224746      0.69946066233062
  H   -2.31994857459077     -0.60968098062317      0.35492432634627
  H   -1.40102434684617      0.01509502667479      1.57818096472859
  C   -0.64996549103083     -0.50998154810188     -1.60442748035436
  H   -1.69135911778849     -0.54130029179357     -1.93678481598345
  H   -0.30523425268835     -1.53846585313349     -1.47764667911013
  H   -0.06439910981201     -0.02161409948033     -2.38147941060616
