16
Coordinates from ORCA-job run
  C   0.81628055199243      0.49865375848525      0.36310050302297
  C   -0.44060982442300      0.43625763971990     -0.52470706357783
  Br  1.23735522953654      2.35775672614218      0.80304756986255
  H   -0.22420935292096      1.03167261766895     -1.41863398732486
  N   0.57301884781909     -0.20776515456157      1.61218971254569
  H   0.63708922855408     -1.20769952781443      1.44709608066233
  H   1.28187643093619      0.03788271226490      2.29354927875680
  C   1.98195121606763     -0.01463233723227     -0.37361110499157
  N   2.89150671693689     -0.49541799302346     -0.94395999853108
  N   -1.53144298580975      1.07535129841354      0.18732597299611
  H   -2.37414564303972      1.03812460992446     -0.37254392431831
  H   -1.69374900480635      0.58052950226927      1.05664249256660
  C   -0.71798835255676     -1.01163359896847     -0.94836438372623
  H   -1.56530152687791     -1.02108375089045     -1.63841084091273
  H   -0.99841965541666     -1.62076585090085     -0.08482011579838
  H   0.12978812400825     -1.47623065149695     -1.45890019123205
