16
Coordinates from ORCA-job run
  C   0.88149307377682      0.30999856469780      0.35584303480485
  C   -0.42425271140559      0.33775064510222     -0.46524481265623
  Br  1.32907215419020      2.29704333155925      0.74951428499611
  H   -0.25692921233583      1.02652003210568     -1.30299200229703
  N   0.72211851147426     -0.46145710477499      1.50649514851489
  H   -0.13958240006314     -0.20191559788810      1.97449044371094
  H   1.52214700360966     -0.46212930231969      2.12327523534991
  C   2.02200638853204     -0.12818593040348     -0.44261502613815
  N   2.91508958731597     -0.51025258112506     -1.10438532851106
  N   -1.48626632005773      0.76652123528185      0.43772078584451
  H   -2.38661498827829      0.48609887752255      0.07054424257037
  H   -1.48086111267733      1.77473726434695      0.53423226797094
  C   -0.74026606146786     -1.05153270235940     -1.00482175745914
  H   0.07954049794589     -1.43861653595880     -1.61169329459741
  H   -0.92662782430699     -1.74298562578552     -0.18261276335968
  H   -1.63006658625208     -1.00159457000125     -1.63875045874384
