16
Coordinates from ORCA-job run
  C   0.79829346421945      0.22415778771141      0.48829129065613
  C   -0.29972891687091      0.07982029561790     -0.57974293841311
  Br  -0.08867732994977      0.86201373233348      2.22009981709278
  H   0.26948463612312     -0.13127723014745     -1.49348736532424
  N   1.52762141812420     -0.97325975546170      0.66806698441186
  H   2.32825820531989     -0.84232083264271      1.27354989050079
  H   0.94454549923249     -1.71212992056131      1.03916413223635
  C   1.70989348521665      1.31024416310225      0.13137233855213
  N   2.49825163042929      2.12986404265295     -0.16325778052426
  N   -0.94200831849127      1.36876954647203     -0.76458271287217
  H   -1.64956898259865      1.51989092855525     -0.05544789824866
  H   -1.38677066400114      1.40801084118008     -1.67257914530308
  C   -1.23988882232080     -1.09300933678652     -0.31192896810190
  H   -0.72156150660186     -2.05525513357329     -0.32282376950156
  H   -1.75301335024483     -0.97070338008049      0.64482325329149
  H   -1.99513044758587     -1.12481574837188     -1.10051712845255
