16
Coordinates from ORCA-job run
  C   0.85966711985013      0.13490272222382      0.53899093313423
  C   -0.32066033133937      0.16692605223779     -0.46068433427405
  Br  0.17185440378964      0.56456913042871      2.34583998989605
  H   0.16376179073117     -0.00726178637325     -1.43201156647256
  N   1.58750711201781     -1.10327655659877      0.65295981787248
  H   2.07432080838439     -1.30587362620186     -0.21352174491730
  H   0.96899561302301     -1.86761799155878      0.89185074015548
  C   1.80929573187227      1.19304276671454      0.17991145295662
  N   2.61629700376797      1.97633786359367     -0.15943753528280
  N   -0.86473946093229      1.51340651086708     -0.49774988872424
  H   -1.37238360040477      1.66601787054958     -1.35954305712010
  H   -1.50200566073873      1.65767930585432      0.27665951561296
  C   -1.34382788885812     -0.94172599197952     -0.22693124324449
  H   -0.90646399070698     -1.94153952789697     -0.28515062539480
  H   -2.11455388526021     -0.87866445444154     -0.99870163660011
  H   -1.82706476519592     -0.82592228741882      0.74551918240265
