16
Coordinates from ORCA-job run
  C   0.85195582508401      0.38991813752485      0.34957305893515
  C   -0.44900085518080      0.29001808255848     -0.47374261120125
  Br  1.13333358249837      2.41527809236448      0.69548364766760
  H   -0.33565723138156      0.96904116459227     -1.32836687861240
  N   0.75310669287685     -0.36433178796855      1.51839317521211
  H   1.54881106803890     -0.28381029874928      2.13562361016263
  H   -0.12779257676676     -0.16487582279055      1.97994641705065
  C   2.02643703899344      0.02773981943648     -0.43759273120631
  N   2.94906625864787     -0.29529608805793     -1.09020364262219
  N   -1.54588647168215      0.65261509215385      0.41663989434847
  H   -1.62226486439585      1.66005745915641      0.48810327344802
  H   -2.41904804558215      0.29243156199575      0.05325453455912
  C   -0.64828655620615     -1.13340222932957     -0.97891338970044
  H   -1.53706470384981     -1.17208104411182     -1.61512307881034
  H   -0.78016596107065     -1.81739659273628     -0.14008836813119
  H   0.20245679997643     -1.46690554603859     -1.57498691109962
