16
Coordinates from ORCA-job run
  C   0.80053597803420      0.32170544383093      0.32668234321464
  C   -0.60278260113616      0.28309726418825     -0.33723324031051
  Br  2.13487183503759      1.10019224294458     -0.98288045385375
  H   -0.85683540216479      1.33329662919296     -0.53585153923948
  N   0.74694224874319      1.07460322052512      1.53148901403450
  H   0.50392292330898      2.03898754795589      1.33362797289029
  H   1.62441890217841      1.05127982569885      2.03663539081758
  C   1.26555922755103     -1.03572103333637      0.60554250952276
  N   1.58567244356711     -2.14498661085181      0.82553957704592
  N   -1.59060797105794     -0.26351048385881      0.57435798528206
  H   -1.46197314392715      0.11758788755246      1.50373169713520
  H   -1.49458701007758     -1.27146844569079      0.63038386247004
  C   -0.64419832879882     -0.49992123023619     -1.63814039791151
  H   -0.31602458939591     -1.53160973872884     -1.47756329077284
  H   -0.01856489477848     -0.05506736130244     -2.40931696109263
  H   -1.67734961708370     -0.52246515788379     -1.98800446923227
