16
Coordinates from ORCA-job run
  C   0.85536312785714      0.29021621019895      0.48133982087029
  C   -0.29749069656970     -0.01383025643919     -0.50394667205045
  Br  0.16151486624330      1.44814439004495      1.93148228580260
  H   0.19363336264066     -0.59005206681795     -1.30101622058003
  N   1.48871925361689     -0.83794150754363      1.11536428585490
  H   1.98293588393344     -1.39554889063324      0.42716181991720
  H   0.81008089866591     -1.40853392483338      1.60289583751587
  C   1.88663595934602      1.05863357964962     -0.22291816157053
  N   2.75490356515465      1.59193587814857     -0.80728705764981
  N   -0.74226607559683      1.23367164896246     -1.10162840542550
  H   -1.37605375721577      1.71688132277491     -0.47573722879804
  H   -1.23024360426619      1.05390372244935     -1.96993982807348
  C   -1.40270854913996     -0.87545903185539      0.10191755704188
  H   -1.03849474348362     -1.84052983338863      0.46288912523392
  H   -2.15222116963355     -1.07818404150149     -0.66668987442770
  H   -1.89430832155241     -0.35430719921592      0.92611271633889
