16
Coordinates from ORCA-job run
  C   0.87970299928068      0.26393876324117      0.37640425215754
  C   -0.52147918376485      0.37292610371452     -0.26965299118861
  Br  2.14330988255843      1.33076151739525     -0.83854590718607
  H   -0.64916196111661      1.43390984634426     -0.51157605928529
  N   0.87837681715470      0.71326851304197      1.70400264320766
  H   1.80133543625206      0.84871294481307      2.09212819600696
  H   0.27185068779264      1.50788233781469      1.84918517392102
  C   1.41473873187529     -1.09885814537419      0.31340157163312
  N   1.79624642411470     -2.21047041613764      0.28302033632259
  N   -1.51952054085368      0.05371072706071      0.75163122651727
  H   -2.43863265048376      0.08421683353748      0.32385339902206
  H   -1.37724768509572     -0.89019010470613      1.09664282503210
  C   -0.63625663585755     -0.44738316689425     -1.55126746348170
  H   0.13749321438496     -0.19482689075447     -2.27795688733221
  H   -1.60828719149930     -0.25404771025642     -2.01238507188467
  H   -0.57346834474200     -1.51555115284001     -1.32888524346178
