16
Coordinates from ORCA-job run
  C   0.66301911427734      0.04553509962656      0.59916376533075
  C   -0.38655903811777      0.12529758191511     -0.54571362813778
  Br  -0.22990626449859     -0.07394776873523      2.34743447053662
  H   0.22833931892369      0.15262681583286     -1.45826034441697
  N   1.49068748151151     -1.12575426069500      0.44849577065788
  H   2.20699794508274     -1.15740505486810      1.16530766785046
  H   1.94420007736029     -1.09942942643143     -0.46014340613039
  C   1.42029129421855      1.30868027293417      0.62638433264627
  N   2.05561267947122      2.29699598639551      0.56350346944926
  N   -1.19818397340314      1.32145470625628     -0.54991046362111
  H   -1.76815261084160      1.36402740099554      0.28650443781985
  H   -0.63382960141570      2.16096171242528     -0.59947385234244
  C   -1.27509620343584     -1.10753417091421     -0.59483623709660
  H   -1.84251635401153     -1.08682759917532     -1.52610525942747
  H   -0.68893347144455     -2.02399777697367     -0.53828639894066
  H   -1.98497039367661     -1.10068351858836      0.23493567582233
