16
Coordinates from ORCA-job run
  C   0.81914081799478      0.13032963740955      0.48879410611813
  C   -0.33186289909451      0.20752945128895     -0.52985859227409
  Br  0.00947006797611      0.27284732725002      2.36441114386477
  H   0.19191702544135      0.25909864596796     -1.49242263507507
  N   1.59472656019553     -1.04007629262831      0.32726240545800
  H   2.42355063431372     -1.03000822157916      0.90828120072126
  H   1.05737338489408     -1.87430222413343      0.52401372740984
  C   1.67315157236317      1.31233882354155      0.37770966193620
  N   2.37932021512883      2.24892533642178      0.31233277724775
  N   -1.02792762584575      1.46926784111815     -0.35374409261948
  H   -1.69816652871055      1.40448488715250      0.40316523927090
  H   -1.52529540011668      1.71218580796948     -1.20074778122755
  C   -1.21424724541287     -1.03879230780223     -0.52435388919058
  H   -2.01376389289409     -0.90624309516963     -1.25680792524880
  H   -1.67338383188177     -1.18676125830472      0.45593274717460
  H   -0.66500285435135     -1.94082435850245     -0.80596809356590
