16
Coordinates from ORCA-job run
  C   0.89150548871412      0.32526122570036      0.31617293700515
  C   -0.44529050083773      0.32484438403644     -0.45414105318007
  Br  1.33200653209918      2.32317018361956      0.65794276195952
  H   -0.31771850111235      0.99979130080444     -1.30992880326687
  N   0.78504946133325     -0.42741666837589      1.48534554237368
  H   -0.06083568054756     -0.16793344517089      1.98141218510867
  H   1.60790060444962     -0.40780307511299      2.07090708650053
  C   2.00437197922261     -0.11497576716030     -0.51924020155047
  N   2.87378575952418     -0.49889023649270     -1.21077169024905
  N   -1.47633808691378      0.75948925250051      0.48138473590585
  H   -2.38691187739089      0.46251682053983      0.15467159725886
  H   -1.47887694025383      1.76940524893045      0.55830104375457
  C   -0.76685737535690     -1.07721771109381     -0.95606480215682
  H   -0.91459489122441     -1.75516272683097     -0.11493528753446
  H   0.03340154750950     -1.46733464542197     -1.58666217672363
  H   -1.68059751921501     -1.04774414047206     -1.55639387520546
