16
Coordinates from ORCA-job run
  C   0.74808789655885      0.46029484733349      0.38057362113176
  C   -0.47894442069577      0.37030839774224     -0.57148390614728
  Br  1.03795709930870      2.33521354834817      0.89029227898167
  H   -0.23977785469621      0.98511358884334     -1.44530847281718
  N   0.48325276387230     -0.28059788420789      1.59812875069114
  H   0.50332581092983     -1.27480230892389      1.39182504456850
  H   1.20167624015495     -0.09273489994121      2.28845966520225
  C   1.97356308014163      0.04256371522555     -0.31555465201850
  N   2.92740135381136     -0.36103698499405     -0.87390989859070
  N   -1.70615230260783      0.86584511831614      0.01170771929546
  H   -1.65595854696287      1.86959531807885      0.13519601096485
  H   -1.82051676027449      0.45222546129407      0.93114981856402
  C   -0.68603444811957     -1.07500870022934     -1.01886628022576
  H   0.21911140224686     -1.51979876491209     -1.43818244518914
  H   -1.03878791394551     -1.69104618903633     -0.18691744788570
  H   -1.46720339972223     -1.08713426293704     -1.77910980652540
