16
Coordinates from ORCA-job run
  C   0.87170440556462      0.42093012996068      0.25334304942883
  C   -0.56125699407602      0.26694407613931     -0.34182399166117
  Br  2.00314562508264      1.38068596689194     -1.05830097716379
  H   -0.89968188614382      1.29260640266607     -0.53859667240397
  N   0.96021262956028      1.16008273982992      1.48605960146834
  H   0.63134669198888      0.61361540550003      2.27169799496112
  H   0.45253631799522      2.03467118204898      1.41962474409658
  C   1.45173663321558     -0.90708384829302      0.46113562463400
  N   1.82929477768476     -2.00558498700694      0.64085586973640
  N   -1.48082686633562     -0.33195139947248      0.60771365787181
  H   -1.51035433621102      0.16911432257965      1.48521855046889
  H   -1.24865556820413     -1.30305724793292      0.78249919591581
  C   -0.60623470444956     -0.54059902864414     -1.62959591184753
  H   -0.24604528057840     -1.55947083012389     -1.45757205639460
  H   -1.64303436124760     -0.59992104835338     -1.96289480555850
  H   -0.00388708384582     -0.09198183578981     -2.41736387355221
