16
Coordinates from ORCA-job run
  C   0.88954116413064      0.33211274457892      0.31302777458124
  C   -0.44648698991930      0.31783512839105     -0.45817942789719
  Br  1.32358890457824      2.33505639870249      0.63158690199377
  H   -0.32092947559524      0.98304517958909     -1.32193577930817
  N   0.78506647136425     -0.40683710949819      1.49117463695928
  H   1.60774505951444     -0.37682774055374      2.07667937579373
  H   -0.06201417358082     -0.14468930471555      1.98385821545643
  C   2.00475233761861     -0.11427214229454     -0.51605304660112
  N   2.87650844030852     -0.50376835627391     -1.20150430347588
  N   -1.47975851250385      0.75959548607344      0.47148483455074
  H   -2.38951140515415      0.45737086615912      0.14722083458095
  H   -1.48419048452341      1.77021596463047      0.53855310864148
  C   -0.76200994134601     -1.09106761461954     -0.94462977592453
  H   -0.90168760132297     -1.76180041569906     -0.09660404227348
  H   0.03769976494686     -1.48192010512457     -1.57529251351409
  H   -1.67831355851580     -1.07304897934548     -1.54138679356318
