16
Coordinates from ORCA-job run
  C   0.82680710093912      0.35214208876859      0.31062826752970
  C   -0.46761920120812      0.34336647632232     -0.55220643512527
  Br  1.28310158753573      2.32469402430193      0.63972549183791
  H   -0.26978156890838      1.00536113940865     -1.40024899371583
  N   0.66307563439237     -0.37188144838041      1.50798004687178
  H   -0.08484232784389      0.02006273043538      2.06585396481311
  H   1.51121448484762     -0.41882597343328      2.05768471484355
  C   1.97371883598310     -0.15112482370410     -0.43897124652557
  N   2.87424623607915     -0.57893055943583     -1.06203569232892
  N   -1.63793282126398      0.83958701348562      0.13558989748765
  H   -1.48464553008002      1.74984336503474      0.55005473449110
  H   -1.97772457655239      0.18596523026533      0.82912204502163
  C   -0.74369832151405     -1.06517215492745     -1.06446123053566
  H   -0.89679749726540     -1.75404388872611     -0.23097122824645
  H   0.07942376900132     -1.44213223320312     -1.67287947821775
  H   -1.64754580414218     -1.03891098621225     -1.67486485820097
