16
Coordinates from ORCA-job run
  C   0.79769730938322      0.44493456049202      0.24077249586754
  C   -0.60321196439237      0.28631472923047     -0.40697039250637
  Br  1.98688497930692      1.42252787987469     -0.97397434578385
  H   -0.89664510969309      1.30622935352921     -0.67628918889361
  N   0.69179409654430      1.24154950490727      1.45140000479501
  H   1.61530401187551      1.51619796935246      1.76773826679493
  H   0.27850128808317      0.67019074363453      2.18115570437904
  C   1.40113247931647     -0.87658700206575      0.47147866931099
  N   1.80941044720415     -1.95117323712129      0.72261405996425
  N   -1.58956763552974     -0.21872683455324      0.52837139811614
  H   -1.36609126078412     -1.15037430852250      0.85772529511243
  H   -1.73761784012586      0.40817390127964      1.30697052129858
  C   -0.58870910078999     -0.60336435667455     -1.63939010993062
  H   -0.32290770523795     -1.63057258292891     -1.37319544370254
  H   0.11539036036184     -0.25060156722034     -2.39270523419611
  H   -1.59136435552246     -0.61471875321372     -2.06770170062583
