16
Coordinates from ORCA-job run
  C   0.74757825965510      0.23337442057295      0.56567383235610
  C   -0.33142746519903      0.00166204315491     -0.54007945386973
  Br  -0.13425752546801      0.90941680133512      2.20040058724624
  H   0.26283183787133     -0.35927547613965     -1.39268500960639
  N   1.54980266481569     -0.90136792247615      0.94954911257437
  H   0.96213987235409     -1.65926658325389      1.27326108113854
  H   2.10924236682620     -1.21460959549763      0.16294633115215
  C   1.64320934830055      1.29780439563144      0.10096138867343
  N   2.34073493766080      2.12309114126113     -0.36148734231643
  N   -1.03311169844681      1.18720947993676     -0.98144414395964
  H   -0.39174508492997      1.89399143352262     -1.32138322699814
  H   -1.56973043661976      1.58272677486272     -0.21828680304941
  C   -1.34008822011576     -1.07453512628886     -0.16843075834831
  H   -0.86512086320048     -2.02008818150429      0.09897284757734
  H   -1.96735239767237     -0.75223508986328      0.66507156570599
  H   -1.98270559583156     -1.24789851525390     -1.03204000827610
