16
Coordinates from ORCA-job run
  C   0.79443913666591      0.31079345436666      0.35008884066203
  C   -0.59543850992532      0.29408315414737     -0.34153244040070
  Br  2.15596270019268      1.11822606319431     -0.91515603103122
  H   -0.84122661283390      1.34976774368567     -0.52061733987403
  N   0.72088318111166      1.03351330555888      1.57202862278463
  H   1.58882473285829      0.99428298980472      2.09248214771447
  H   0.48496546924629      2.00343142397605      1.39363136155732
  C   1.25143721252719     -1.05454961055342      0.60259235005937
  N   1.56676370250896     -2.16926529733536      0.80101599053426
  N   -1.60319957374650     -0.26935370297293      0.53756258542421
  H   -1.51502255872623     -1.27920684185614      0.56872183023670
  H   -1.48949482948104      0.08649751871877      1.47884612228765
  C   -0.61436326964905     -0.45819608335718     -1.66093806816345
  H   -1.64058701281443     -0.46936818843127     -2.03083379136284
  H   0.02702773592833      0.00259344128279     -2.40941956552502
  H   -0.29197150386284     -1.49424937022893     -1.51847261490338
