16
Coordinates from ORCA-job run
  C   0.90902560747890      0.41887291745301      0.27906495032894
  C   -0.52752359911479      0.34048342314513     -0.28382743708758
  Br  2.09795122616479      1.32186309011987     -1.00378386170210
  H   -0.82977106443064      1.38514330483544     -0.40912153629226
  N   0.88665515285944      1.19396056913080      1.48552086802826
  H   1.77179555248962      1.14182982960068      1.97496790215376
  H   0.13817362903519      0.81895308602428      2.06174510128457
  C   1.43618455608573     -0.94648516690252      0.44464174117650
  N   1.79427155660067     -2.05128056915238      0.63273927856516
  N   -1.34215469451184     -0.23608728391022      0.79036010330303
  H   -1.35812402488633     -1.24726427911105      0.71002790929782
  H   -2.29614103941819      0.09440167906582      0.72088025581535
  C   -0.63890678301065     -0.41144853027936     -1.60323340669571
  H   -1.68677861983614     -0.43465465990567     -1.91194410038056
  H   -0.29713275482785     -1.44443737733855     -1.48753973063475
  H   -0.05852470067791      0.05614996722473     -2.39849803716041
