16
Coordinates from ORCA-job run
  C   0.78686008304583      0.23263731648567      0.50174787568578
  C   -0.31922750134488      0.12344659659372     -0.56220712792361
  Br  -0.11131273045671      0.57411813504109      2.31053880991911
  H   0.24525553757236      0.07668109391989     -1.50173819091840
  N   1.62013171041051     -0.90867936481180      0.52347192608882
  H   2.42082840558557     -0.78249084717224      1.12986594621774
  H   1.11163995751110     -1.73589997554236      0.80764096385694
  C   1.59306567510239      1.43037546010502      0.27085098605369
  N   2.30170922258872      2.34555482451868      0.07015360516569
  N   -1.07410304563963      1.36350503317819     -0.57813495181422
  H   -1.54521396475762      1.47160066007489     -1.46710863927375
  H   -1.77270719426609      1.36501918056415      0.15562740944084
  C   -1.14765066782357     -1.15222062139639     -0.42977702620448
  H   -0.54819776489909     -2.05548791770274     -0.56939127469030
  H   -1.64457422119435     -1.19575251482418      0.54224218772480
  H   -1.91750350143454     -1.15340705903160     -1.20478249932865
