16
Coordinates from ORCA-job run
  C   0.69060853393624      0.15919757720610      0.62836205012218
  C   -0.37925470629473      0.03256730339956     -0.47663165876453
  Br  -0.11879420282397      0.23986835905809      2.40692417901330
  H   0.21683107258927     -0.14561267088619     -1.39146383027483
  N   1.56378606703239     -0.99502070539503      0.59796027679345
  H   2.06545757008140     -1.01007070381100     -0.28534433467048
  H   2.24347463864681     -0.94169263192964      1.34816563556488
  C   1.40380662450453      1.43505580734600      0.44453486949477
  N   2.01572417354704      2.41226706039625      0.21116167007907
  N   -1.15495164420043      1.25772152801369     -0.53961214631217
  H   -0.65823019173415      1.98758940600357     -1.03572446151328
  H   -2.03142788238095      1.09153798093106     -1.01655935678782
  C   -1.29137515799093     -1.16247616345101     -0.25962802819534
  H   -1.84393068720535     -1.37249998491949     -1.17958998360913
  H   -2.00749456664643     -0.94207185763875      0.53334245672406
  H   -0.71522964106074     -2.04536030432320      0.01410266233586
