16
Coordinates from ORCA-job run
  C   0.82172299660982      0.49239912829411      0.36038073513849
  C   -0.43329732738234      0.43552334909104     -0.53069619569329
  Br  1.26432342066924      2.35101536319644      0.78061509130120
  H   -0.20668000725635      1.01851317990122     -1.43027113346944
  N   0.56568374398102     -0.19657735292617      1.61660956966079
  H   0.61640335573127     -1.19914720157324      1.46298888611949
  H   1.27562916694681      0.04739412121860      2.29750619134866
  C   1.98280535320612     -0.04363171286000     -0.36689442240546
  N   2.88621260981927     -0.54089808911515     -0.93269964119609
  N   -1.51836982023755      1.09619614632439      0.17064293244362
  H   -2.35901343711494      1.06469361784899     -0.39280921241409
  H   -1.69136794793714      0.61138909126093      1.04359637958339
  C   -0.72771035567808     -1.01340736941133     -0.93877510845626
  H   0.11527414621036     -1.49496896166279     -1.44147907466247
  H   -1.57344847214083     -1.01972558862648     -1.63082128786167
  H   -1.01816742542668     -1.60876772096058     -0.06889370943687
