16
Coordinates from ORCA-job run
  C   0.83059552723032      0.34431539115341      0.31167903725892
  C   -0.45734010771539      0.34223009209004     -0.56101247856333
  Br  1.31632822186307      2.31522674108471      0.61010916776212
  H   -0.24243020722114      0.98696050385601     -1.41816146066049
  N   0.64587223165532     -0.35631159008711      1.51912090451393
  H   1.48722451275586     -0.40549645505710      2.07893463577324
  H   -0.10445410827895      0.05171314224625      2.06166035548788
  C   1.97473801809035     -0.18938980302983     -0.42052144925040
  N   2.87205322322867     -0.64271520112858     -1.02988992432368
  N   -1.62425868173394      0.86749588606734      0.11021059558211
  H   -1.98536342294930      0.22749711749865      0.80501746370833
  H   -1.45969130724732      1.77927058956612      0.51636701030136
  C   -0.75186111005060     -1.06979019893556     -1.05326653920005
  H   -1.65212412764622     -1.03937417164575     -1.66886937512932
  H   0.06871493040012     -1.46761493206179     -1.65190208371312
  H   -0.91900359238086     -1.74401711161683     -0.21047585954750
