16
Coordinates from ORCA-job run
  C   0.90533691493467      0.42395228260798      0.28500803243194
  C   -0.52614390239482      0.33729803448643     -0.28978177064503
  Br  2.10008394504760      1.32992413321497     -0.99064066294566
  H   -0.83098032933767      1.38010062457248     -0.42418699102550
  N   0.86931140928490      1.20155176809425      1.48908468073044
  H   1.75018941784024      1.15484173405419      1.98654833323345
  H   0.11668550043885      0.82605973347468      2.05932591481224
  C   1.43793294310071     -0.93838850319731      0.45792279604204
  N   1.80081230459601     -2.04083019973060      0.65058528684775
  N   -1.34903108718962     -0.23560730754077      0.78020792737434
  H   -2.30264463715329      0.09336760572154      0.70033828914005
  H   -1.36398020497972     -1.24715820652209      0.70296203162370
  C   -0.62294363656597     -0.42263385781051     -1.60582543146085
  H   -1.66699607923472     -0.44589018434395     -1.92743451394430
  H   -0.03210355164617      0.03888809674492     -2.39696431338521
  H   -0.28452900674101     -1.45547575382620     -1.47914960882940
