16
Coordinates from ORCA-job run
  C   0.78645830320034      0.43914467204214      0.28498779413405
  C   -0.58800294843959      0.29699653880904     -0.42072108703802
  Br  2.01888234611581      1.45565666947893     -0.85242151996320
  H   -0.87489765863047      1.32415339061692     -0.66860548651428
  N   0.63073636416648      1.19822618627233      1.51425165608284
  H   1.53995838585477      1.46941033060837      1.87196480512895
  H   0.19544892743587      0.60287513114324      2.21134367909758
  C   1.38411490544447     -0.88796001389549      0.49817916741896
  N   1.78414017710840     -1.96975933675473      0.73111574987203
  N   -1.60648340095414     -0.23985439628949      0.46079997082461
  H   -1.39127208821430     -1.18022976322451      0.77016177474006
  H   -1.78682292939667      0.36264591772351      1.25171715574710
  C   -0.52380474384063     -0.55361698548482     -1.67893718902855
  H   -1.51009079446392     -0.55511060816157     -2.14397377614147
  H   0.20573899654677     -0.17476634313287     -2.39444851597713
  H   -0.26310384193318     -1.58781138975100     -1.43541417838351
