16
Coordinates from ORCA-job run
  C   0.86786853630569      0.45791097311687      0.32217895873258
  C   -0.43044175664559      0.36973959548883     -0.54473291039564
  Br  1.24471855021079      2.39260911285928      0.60630684238037
  H   -0.23577928010852      0.95428518191855     -1.45003645334827
  N   0.82581450204554     -0.16983429421866      1.60983397726917
  H   -0.03792132449006      0.04962902774740      2.09001090314946
  H   0.95654192880956     -1.17124378370486      1.54233124257691
  C   2.00524723662438     -0.06685310306239     -0.43245240280668
  N   2.87493615848318     -0.53218866960623     -1.07189671963079
  N   -1.61147047620654      0.91421989001663      0.08648890636482
  H   -1.46742203299592      1.86313848072847      0.40700990833793
  H   -1.92927668614470      0.33755953778060      0.85532710539368
  C   -0.70220653904763     -1.07849293477972     -0.93215612168112
  H   0.13357336211244     -1.52388914278503     -1.47326730414885
  H   -1.58770645224104     -1.10836908316960     -1.56794942599246
  H   -0.90647572671159     -1.68722078833013     -0.04599650620111
