16

C	-0.652883	-0.104476	-1.372137
C	0.0	0.0	0.0
F	-2.010059	0.004528	-1.225472
H	1.092945	0.0	0.0
N	-0.215418	0.982103	-2.366746
O	0.948688	0.902997	-2.72239
O	-1.064002	1.785843	-2.721473
C	-0.348928	-1.39145	-2.003973
N	-0.171468	-2.41942	-2.54304
N	-0.442893	-1.100108	0.778767
H	0.244979	-1.3059	1.491215
H	-1.340963	-0.92159	1.207475
N	-0.407571	1.353039	0.580119
O	-0.116405	2.341235	-0.085318
O	-0.971461	1.364996	1.671211
Cl	3.183218	0.0	0.0
