19

C	0.0	0.0	0.0
C	-0.254754	0.035363	-1.540616
F	1.367138	0.0	0.0
H	0.452594	0.785509	-1.890625
N	-0.394698	1.369294	0.553508
O	-0.221382	2.33261	-0.191327
O	-0.75243	1.43671	1.722104
C	-0.574376	-1.093893	0.827202
H	-1.671792	-0.939393	0.748178
H	-0.264509	-2.052261	0.416403
H	-0.209809	-0.994506	1.849592
C	-1.603316	0.253462	-2.185816
H	-1.44855	0.211335	-3.274711
H	-2.338659	-0.44967	-1.813141
H	-1.975416	1.232642	-1.905121
N	0.323804	-1.242693	-2.09421
O	-0.313981	-2.282914	-1.943136
O	1.388244	-1.162659	-2.713771
F	-2.90129	0.0	0.0
