19

C	0.0	0.0	0.0
C	-0.265751	0.082489	-1.53502
F	1.366813	0.0	0.0
H	0.460617	0.814421	-1.883036
N	-0.359163	1.361895	0.60462
O	-0.281347	2.341242	-0.135005
O	-0.57777	1.4068	1.808516
C	-0.638781	-1.088953	0.78354
H	-0.375917	-2.054241	0.353142
H	-1.731775	-0.888954	0.684995
H	-0.305718	-1.034755	1.820214
C	-1.631803	0.355183	-2.119822
H	-1.584578	0.161468	-3.197217
H	-2.416596	-0.185009	-1.576027
H	-1.858098	1.409051	-1.958189
N	0.263489	-1.205127	-2.113874
O	1.358904	-1.163085	-2.679683
O	-0.435138	-2.213107	-2.028228
F	-3.087747	0.0	0.0
