19

C	0.0	0.0	0.0
C	-0.610705	0.130333	-1.386923
F	1.361854	0.0	0.0
H	-1.596039	0.598154	-1.178623
N	-0.334469	1.267867	0.834174
O	-1.00728	2.166859	0.36002
O	0.163042	1.273908	1.958568
C	-0.510948	-1.176878	0.785965
H	-0.082919	-1.125981	1.787023
H	-0.184056	-2.099418	0.302062
H	-1.60633	-1.067838	0.780059
C	-0.891433	-1.195988	-2.062602
H	-0.012902	-1.848106	-2.11131
H	-1.698369	-1.649435	-1.489318
H	-1.245046	-1.018402	-3.076794
N	0.247992	1.011373	-2.246345
O	0.778822	1.990544	-1.723083
O	0.364075	0.730773	-3.443376
F	-2.852101	0.0	0.0
