18

C	-0.545116	0.005111	-1.421205
C	0.0	0.0	0.0
F	-1.952543	0.195487	-1.352251
H	1.091165	0.0	0.0
N	-0.129969	1.199964	-2.272977
O	-0.53508	1.171693	-3.43412
O	0.541101	2.09444	-1.77497
N	-0.196755	-1.134618	-2.129195
H	-0.715472	-1.219271	-2.990637
H	-0.278302	-1.931401	-1.510656
N	-0.377627	-1.315444	0.556449
H	0.379324	-1.623543	1.154668
H	-1.217627	-1.230266	1.116982
C	-0.513531	1.150596	0.855125
H	-0.220647	2.116687	0.448472
H	-0.072183	1.057197	1.84998
H	-1.603561	1.11366	0.944589
Cl	3.438586	0.0	0.0
