18

C	-0.335523	-0.111796	-1.494695
C	0.0	0.0	0.0
F	-1.610499	-0.598854	-1.65819
H	1.094665	0.0	0.0
N	-0.339569	1.278046	-2.114816
O	0.761594	1.746677	-2.381245
O	-1.420043	1.84422	-2.24935
N	0.552146	-0.909505	-2.27757
H	0.533771	-1.842268	-1.878079
H	1.496153	-0.552265	-2.122856
N	-0.390833	-1.229285	0.695111
H	0.368706	-1.895723	0.661994
H	-1.224041	-1.637169	0.291914
C	-0.595537	1.216034	0.683947
H	-1.68655	1.225442	0.595916
H	-0.329481	1.167482	1.739936
H	-0.199036	2.146339	0.271547
Cl	3.413828	0.0	0.0
