18

C	-0.57289	-0.027377	-1.400287
C	0.0	0.0	0.0
F	0.060801	0.918984	-2.203251
H	1.092447	0.0	0.0
N	-0.247022	-1.350652	-2.094002
O	-1.091859	-1.801086	-2.871114
O	0.86084	-1.818109	-1.897146
N	-1.979213	0.12499	-1.421744
H	-2.332544	-0.140872	-2.332495
H	-2.201627	1.093185	-1.232319
N	-0.454831	-1.221286	0.658633
H	-1.298218	-1.056141	1.192532
H	0.276921	-1.5517	1.273383
C	-0.419902	1.286946	0.710513
H	-1.496305	1.303942	0.918
H	-0.14664	2.169101	0.124775
H	0.114444	1.345874	1.660862
Cl	3.479855	0.0	0.0
