18

C	-0.263983	-0.015434	-1.497907
C	0.0	0.0	0.0
F	-0.053941	-1.286351	-2.01105
H	1.098061	0.0	0.0
N	-1.73108	0.211378	-1.881809
O	-2.591447	0.072325	-1.014948
O	-1.957735	0.464603	-3.063362
N	0.501233	0.966443	-2.144467
H	0.450341	0.852217	-3.148163
H	1.464925	0.892058	-1.820139
N	-0.48967	-1.202436	0.650151
H	-1.340098	-1.002101	1.159539
H	0.215947	-1.529841	1.296042
C	-0.429209	1.307713	0.6617
H	-1.51451	1.355338	0.781341
H	0.038034	1.359858	1.648028
H	-0.097139	2.171887	0.084648
Cl	3.408786	0.0	0.0
