18

C	-0.212929	-0.041192	-1.517938
C	0.0	0.0	0.0
F	-0.14115	-1.376843	-1.963822
H	1.09949	0.0	0.0
N	-1.638102	0.303946	-1.963168
O	-2.553889	-0.071562	-1.230733
O	-1.789737	0.867257	-3.044277
N	0.673312	0.80741	-2.162781
H	1.61473	0.685491	-1.789433
H	0.637755	0.725037	-3.169612
N	-0.488035	-1.147982	0.739344
H	-1.438173	-1.346313	0.450592
H	0.084763	-1.948703	0.505735
C	-0.501718	1.303422	0.604502
H	-1.591516	1.295004	0.699748
H	-0.198587	2.161415	-0.000381
H	-0.067799	1.403072	1.601062
Cl	3.428934	0.0	0.0
