18

C	-0.266723	-0.027451	-1.497206
C	0.0	0.0	0.0
F	-0.053052	-1.302797	-1.999775
H	1.098053	0.0	0.0
N	-1.735598	0.191169	-1.881871
O	-2.594783	0.058232	-1.013897
O	-1.962749	0.434883	-3.064735
N	0.494652	0.951217	-2.153687
H	0.442533	0.828243	-3.156333
H	1.459102	0.88359	-1.830607
N	-0.490617	-1.19742	0.66013
H	-1.315303	-0.982932	1.203865
H	0.231403	-1.545026	1.276023
C	-0.429858	1.310848	0.652926
H	0.036677	1.370838	1.639287
H	-0.098854	2.170812	0.069513
H	-1.515755	1.357787	0.771259
Cl	3.408242	0.0	0.0
