18

C	-0.418422	-0.005559	-1.461985
C	0.0	0.0	0.0
F	0.350864	-0.844119	-2.185272
H	1.09495	0.0	0.0
N	-1.848562	-0.628657	-1.562092
O	-2.714351	-0.043473	-0.907727
O	-2.048935	-1.574874	-2.309092
N	-0.415412	1.261463	-2.094143
H	-0.583417	1.15794	-3.087227
H	-1.102493	1.874068	-1.678891
N	-0.436624	-1.267588	0.58617
H	0.320531	-1.645859	1.142106
H	-1.243198	-1.124171	1.184306
C	-0.437245	1.236194	0.777776
H	-1.52575	1.314663	0.844634
H	-0.025205	2.143747	0.331601
H	-0.024669	1.160373	1.786144
Cl	3.469784	0.0	0.0
