18

C	-0.520881	0.035665	-1.436275
C	0.0	0.0	0.0
F	0.08586	1.056316	-2.115419
H	1.09382	0.0	0.0
N	-0.067187	-1.244919	-2.165766
O	1.06545	-1.256753	-2.618937
O	-0.86853	-2.186588	-2.200973
N	-1.927543	0.128508	-1.570547
H	-2.319005	-0.715359	-1.960248
H	-2.372085	0.359235	-0.694518
N	-0.425144	-1.197936	0.719329
H	-1.340061	-1.511057	0.417373
H	0.236057	-1.941715	0.544535
C	-0.453195	1.255062	0.7408
H	-0.234648	2.156917	0.166547
H	-1.521076	1.230578	0.987638
H	0.098129	1.295035	1.67971
Cl	3.470647	0.0	0.0
