18

C	-0.373127	-0.056516	-1.485618
C	0.0	0.0	0.0
F	-0.583334	-1.345663	-1.901619
H	1.095079	0.0	0.0
N	-1.776546	0.570779	-1.66155
O	-2.696449	-0.018758	-1.105931
O	-1.894626	1.622167	-2.289817
N	0.539913	0.604912	-2.311896
H	1.435402	0.75701	-1.860731
H	0.162514	1.413064	-2.775619
N	-0.471566	-1.146408	0.750844
H	0.231852	-1.393466	1.43407
H	-1.341456	-0.938476	1.224071
C	-0.399972	1.350909	0.599258
H	0.093185	1.457062	1.567618
H	-1.483825	1.41565	0.749277
H	-0.082995	2.187936	-0.028023
Cl	3.397277	0.0	0.0
