14

C	-0.319011	-0.137691	-1.479226
C	0.0	0.0	0.0
F	-1.655933	-0.473946	-1.697469
H	1.103658	0.0	0.0
H	-0.395268	0.939149	0.392092
C	-0.143103	1.166131	-2.176632
N	0.015156	2.190811	-2.729759
N	0.486429	-1.192472	-2.016632
H	1.451046	-1.072071	-1.708238
H	0.454619	-1.198535	-3.028121
N	-0.561468	-1.139926	0.739628
H	0.024787	-1.258059	1.559471
H	-0.39879	-1.965829	0.171921
Br	3.584546	0.0	0.0
