14

C	-0.365375	-0.325544	-1.440474
C	0.0	0.0	0.0
F	-0.203233	-1.702572	-1.60413
H	1.098473	0.0	0.0
H	-0.32809	1.025402	0.200528
C	-1.787655	-0.025084	-1.733057
N	-2.904491	0.283828	-1.91881
N	0.473913	0.323392	-2.406081
H	0.169742	1.274538	-2.56593
H	1.429279	0.334603	-2.046567
N	-0.653527	-0.911494	0.933602
H	-0.427148	-0.609323	1.87449
H	-0.218438	-1.819071	0.815857
Br	3.618706	0.0	0.0
