14

C	-0.345759	0.01869	-1.478127
C	0.0	0.0	0.0
F	-0.140328	-1.298935	-1.972932
H	1.102369	0.0	0.0
H	-0.345891	0.938437	0.439633
C	-1.777014	0.290358	-1.746302
N	-2.906654	0.517127	-1.969306
N	0.468296	0.967939	-2.128507
H	1.438191	0.845308	-1.840162
H	0.385385	0.902573	-3.134143
N	-0.642109	-1.127914	0.666077
H	-0.435116	-1.057553	1.6554
H	-0.182159	-1.969536	0.339485
Br	3.628072	0.0	0.0
