12

C	0.0	0.0	0.0
C	-0.481868	0.238255	-1.430217
Br	1.949682	0.0	0.0
H	-1.269672	0.97832	-1.44328
H	-0.331711	-0.968218	0.351453
H	0.339564	0.483326	-2.111317
C	-0.439461	1.051581	0.910604
N	-0.584738	1.924061	1.685334
N	-1.103249	-0.986895	-2.011207
O	-1.829012	-0.805526	-2.98408
O	-0.780691	-2.08753	-1.575832
F	-2.352646	0.0	0.0
