12

C	0.0	0.0	0.0
C	-0.482856	0.63147	-1.305563
Br	1.949706	0.0	0.0
H	-1.228015	1.392062	-1.116105
H	-0.32587	-1.030972	0.055857
H	0.348087	1.004295	-1.915913
C	-0.448045	0.741047	1.173345
N	-0.565739	1.373002	2.158611
N	-1.162967	-0.367342	-2.179244
O	-0.835634	-1.546244	-2.097892
O	-1.923845	0.09132	-3.025062
F	-2.341457	0.0	0.0
