12

C	0.0	0.0	0.0
C	-0.548405	-0.032255	-1.464334
Br	1.938836	0.0	0.0
H	-0.049518	0.678811	-2.125263
H	-0.350585	-0.881168	0.527786
H	-1.638168	0.133317	-1.283779
C	-0.459966	1.198043	0.696628
N	-0.607941	2.217203	1.26447
N	-0.435047	-1.38177	-2.093876
O	-1.30008	-1.655714	-2.927577
O	0.494101	-2.1374	-1.789492
F	-2.596607	0.0	0.0
