12

C	0.0	0.0	0.0
C	-0.479876	0.216451	-1.434773
Br	1.949954	0.0	0.0
H	-1.281534	0.941722	-1.459446
H	-0.332249	-0.963856	0.363069
H	0.341246	0.465518	-2.115278
C	-0.446045	1.061452	0.894686
N	-0.588021	1.945685	1.657264
N	-1.068259	-1.02784	-2.011793
O	-0.745772	-2.11519	-1.54533
O	-1.763313	-0.872491	-3.011109
F	-2.353926	0.0	0.0
