17

C	-0.537692	0.066534	-1.406929
C	0.0	0.0	0.0
F	-0.015627	1.114546	-2.105607
H	1.096178	0.0	0.0
H	-1.628385	0.144783	-1.431726
N	-0.240548	-1.189759	-2.18776
O	0.821303	-1.261769	-2.788081
O	-1.112264	-2.060927	-2.134049
C	-0.475262	-1.258306	0.720605
H	-0.129635	-1.217795	1.755389
H	-1.567235	-1.347632	0.719518
H	-0.056865	-2.161229	0.274262
C	-0.45209	1.26233	0.733417
H	-1.543305	1.29927	0.840579
H	-0.005405	1.278218	1.729239
H	-0.116456	2.158354	0.208999
Br	3.61956	0.0	0.0
