17

C	-0.521585	0.014725	-1.417105
C	0.0	0.0	0.0
F	-0.026869	1.065147	-2.130911
H	1.096175	0.0	0.0
H	-1.614775	0.053468	-1.459589
N	-0.169494	-1.247216	-2.169359
O	-0.978793	-2.169347	-2.048191
O	0.864828	-1.271072	-2.819776
C	-0.479706	-1.230986	0.763095
H	-0.156132	-1.144996	1.802982
H	-1.571394	-1.32812	0.744124
H	-0.047964	-2.14867	0.362373
C	-0.462749	1.287845	0.679688
H	-0.04665	1.331041	1.688535
H	-1.55694	1.334638	0.753509
H	-0.105727	2.164662	0.137815
Br	3.618838	0.0	0.0
