17

C	-0.356487	-0.00667	-1.467769
C	0.0	0.0	0.0
F	0.11738	-1.115063	-2.096677
H	1.097531	0.0	0.0
H	-0.001026	0.883333	-1.989722
N	-1.859177	-0.012751	-1.661146
O	-2.409129	1.088816	-1.644578
O	-2.428434	-1.09458	-1.772653
C	-0.482099	-1.258603	0.710368
H	-0.028506	-1.29704	1.703433
H	-0.172591	-2.154159	0.170067
H	-1.571244	-1.278934	0.824535
C	-0.461368	1.274393	0.696659
H	-0.113542	2.165266	0.167498
H	-0.02727	1.299396	1.698735
H	-1.550231	1.331314	0.786178
Br	3.563708	0.0	0.0
