14

C	0.026045	0.020799	0.025657
C	-0.549297	0.188442	-1.394783
F	1.410779	-0.10217	-0.067674
H	-1.658467	0.196521	-1.278893
C	-0.189583	1.266637	0.811048
N	-0.328724	2.216146	1.48919
N	-0.512936	-1.154036	0.59395
H	-0.307368	-1.198645	1.584612
H	-1.532616	-1.159977	0.455338
C	-0.168982	-0.96019	-2.219033
N	0.144947	-1.850271	-2.916839
C	-0.080456	1.425495	-2.017395
N	0.282629	2.423908	-2.517766
Cl	-3.513404	-0.466575	-0.29117
