14

C	0.038528	-0.047875	0.023624
C	-0.437575	0.027682	-1.451431
F	1.251663	-0.796974	-0.067352
H	0.432898	0.39105	-2.011349
C	0.492226	1.297073	0.457776
N	0.843333	2.353072	0.835148
N	-0.877907	-0.626008	0.869787
H	-1.81171	-0.859643	0.475768
H	-0.91488	-0.253041	1.803611
C	-1.500309	1.01738	-1.65005
N	-2.182064	1.94205	-1.892757
C	-0.731582	-1.304253	-1.988005
N	-0.793972	-2.353207	-2.511009
Cl	-3.61817	-1.092127	-0.397182
