14

C	0.036237	-0.054713	0.017216
C	-0.439942	0.218352	-1.434431
F	1.24767	-0.786541	-0.171446
H	0.433659	0.646962	-1.940925
C	0.491365	1.219185	0.628048
N	0.843081	2.216258	1.140558
N	-0.881105	-0.740137	0.778698
H	-1.816506	-0.909649	0.359655
H	-0.912221	-0.498352	1.755006
C	-1.495116	1.233529	-1.497258
N	-2.164665	2.193025	-1.597379
C	-0.738611	-1.028902	-2.144796
N	-0.799159	-1.994253	-2.809815
Cl	-3.613605	-1.019278	-0.569394
