14
Coordinates from ORCA-job run
  C   -0.38330220028385     -0.06098545305803      0.56716791654906
  C   0.83381483658268     -0.69828686026902     -0.09122965365897
  Cl  -0.50416107495413     -0.78102028711027      2.26334597408147
  H   1.72308237119156     -0.45431734565191      0.50735042223094
  H   0.69621002304692     -1.77973878424939     -0.07068377306289
  N   -0.18321614865775      1.36053862087845      0.63814281193359
  H   0.56891910240648      1.58513687417215      1.28019470992742
  H   -1.02245577380283      1.82137801670058      0.96991232434635
  N   -1.55672462933731     -0.45204581721028     -0.14058545305795
  H   -2.37769028741549      0.04086997765026      0.18703998202331
  H   -1.38993837450149     -0.26484836607555     -1.12333713069774
  N   0.88268807853644     -0.24610218452368     -1.47749208933854
  H   1.16591392157909      0.72459022678154     -1.50638110564215
  H   1.54786015560968     -0.79616861803486     -2.00444493563390
