14
Coordinates from ORCA-job run
  C   -0.32730632028332      0.00690732128344      0.60448649536073
  C   0.88079588264510     -0.64135389290636     -0.05978709784312
  Cl  -0.54126597061402     -0.82508940852174      2.23913246660304
  H   1.73062951385740     -0.53263304356510      0.61464458925281
  H   0.67726245167601     -1.71447151394908     -0.18472156441578
  N   -0.03869763212157      1.37794753920606      0.86470932121086
  H   -0.85278199804692      1.87919789914822      1.19682653017513
  H   0.30684422652308      1.78045569895922      0.00027400720179
  N   -1.48334619111237     -0.20611255013052     -0.22255403325648
  H   -1.73291200988688     -1.18878823687087     -0.24370931814575
  H   -2.27822820776560      0.30823731849277      0.13851840694513
  N   1.15391410370840      0.08091129410761     -1.29765641036047
  H   2.05895512263381     -0.18011920417904     -1.66571939774202
  H   0.44513702878688     -0.14408922107462     -1.98344399498586
