14
Coordinates from ORCA-job run
  C   -0.37694836603382      0.03022605687355      0.38652437117265
  C   0.46619398377731     -0.67408712188508     -0.67057356564661
  Cl  0.02615928887306     -0.69193576324338      2.01903618355522
  H   0.21886614822495     -1.74040322678121     -0.66814347504359
  H   0.12822897696048     -0.25094663436551     -1.63025399724747
  N   0.00502560674463      1.42662971984408      0.45764239909571
  H   -0.19052878974364      1.81158526755499      1.37221452709940
  H   -0.53770298882463      1.93023655871838     -0.23554650923253
  N   -1.76265131475847     -0.12283516000491      0.06466081900571
  H   -2.33805627539098      0.28671724781216      0.79147155325554
  H   -2.00975982018243     -1.10204664279156     -0.02086433724370
  N   1.87979198565878     -0.50963959861532     -0.39489631609444
  H   2.06631333070320      0.48190787481857     -0.30607327563224
  H   2.42506823399155     -0.87540857793475     -1.16419837704365
