14
Coordinates from ORCA-job run
  C   -0.40005848667091      0.05890628601387      0.58129168468902
  C   0.75855182770704     -0.69187239480344     -0.07694134735680
  Cl  -0.59776433033804     -0.69588104253177      2.25648696074205
  H   1.67146490837474     -0.53357189924182      0.51699648791401
  H   0.53412610718490     -1.76027744991210     -0.05901651448098
  N   -0.09116636666452      1.44250819200458      0.63424794275204
  H   0.70093825247041      1.62883912361441      1.23583467161792
  H   -0.90076853509031      1.95810875160238      0.95527409672197
  N   -1.67170948118774     -0.07757038619659     -0.08082782844098
  H   -2.01885121925125     -1.02038268893451      0.04406710445297
  H   -1.48654424591145      0.06162515668733     -1.07069460739786
  N   0.84229654788141     -0.24920134088229     -1.46379856887665
  H   1.16876728707893      0.70797413537518     -1.49195290745824
  H   1.49071773441678     -0.82820444279523     -1.98096717487845
