14
Coordinates from ORCA-job run
  C   -0.32983776185724      0.00806629619360      0.54089045923357
  C   0.39561683368853     -0.61745437163084     -0.64793319233952
  Cl  0.19568823374874     -0.80619791284677      2.04807828291397
  H   0.11564324269592     -1.67346583018366     -0.70032921737002
  H   -0.03114853064861     -0.12145088534742     -1.54115353160778
  N   0.05791065956048      1.39572745889695      0.63116609804581
  H   -0.41507106622589      1.81021662392753      1.42689722682294
  H   -0.26040575324056      1.87756981725074     -0.20462252618010
  N   -1.77599477836615     -0.14765914416138      0.49411463172935
  H   -2.11555751944350      0.20235954096957     -0.39662505349092
  H   -2.02948615168504     -1.12689000173506      0.56593315689960
  N   1.83534425278905     -0.50182496311482     -0.52407987897665
  H   2.28702794329886     -0.75705778284890     -1.39216770032162
  H   2.06827039568542      0.45706115463046     -0.29916875535861
