14
Coordinates from ORCA-job run
  C   -0.41486483993034      0.09578856216880      0.47754744432247
  C   0.86767444854845      0.10570975624816     -0.35181847565349
  Cl  -0.24117859599420     -1.42141929818924      1.58325326483458
  H   0.84487388497068      1.03394885684183     -0.93146543437940
  H   1.72125855309285      0.14785983093437      0.33743755127186
  N   -0.58563508884112      1.18486770618457      1.39502432696643
  H   -0.69492585430774      2.04023401608318      0.86313322652344
  H   0.20071369531203      1.26084407216273      2.02699760963254
  N   -1.52572722586911      0.04154336796612     -0.37278767890629
  H   -2.38345639907734     -0.09468442643663      0.14412616127965
  H   -1.38988730509099     -0.66355650682708     -1.08583940404135
  N   0.88655900978318     -1.01738761385948     -1.28023765772214
  H   1.15407065029373     -1.86044043974037     -0.78779867612661
  H   1.56052506710995     -0.85530788353696     -2.01657225800169
