14
Coordinates from ORCA-job run
  C   -0.44655654493192      0.01745600024984      0.54924417410408
  C   0.85170454161515     -0.57920290962247      0.00324328411617
  Cl  -0.66331391260728     -0.71139335389762      2.23293197455677
  H   0.74005211234247     -1.67154411833123     -0.07138881784504
  H   1.65342158531404     -0.37715657502290      0.71643411946313
  N   -0.43730482555757      1.44741848257600      0.72068231214466
  H   0.16903762366897      1.69211101697650      1.49362197167572
  H   -0.03195937285754      1.82705649463042     -0.13085573776291
  N   -1.51361013824430     -0.30131336935883     -0.33008225827663
  H   -2.34839318394600      0.19289502640109     -0.04138922948828
  H   -1.69189112431473     -1.29702397330026     -0.36017563700263
  N   1.15503119492857      0.09578667944268     -1.25322177162263
  H   2.08179104135994     -0.15284422016873     -1.57331386399255
  H   0.48299100323022     -0.18424518057447     -1.95573052006985
