14
Coordinates from ORCA-job run
  C   -0.47779906658786     -0.01095335846032      0.33424143888116
  C   0.52331381896043     -0.59656110614344     -0.65259826316343
  Cl  0.04442369160717     -0.63393395772789      2.01478924083066
  H   0.49954973513085     -1.68463034080425     -0.53735720472863
  H   0.14726751033537     -0.34894270392076     -1.64981013983035
  N   -0.45213542895498      1.39743230809334      0.25019926913405
  H   0.50853848994964      1.72099002150308      0.22293949933093
  H   -0.96698535896902      1.83756070235448      1.00128387405162
  N   -1.78450334409615     -0.58889787902272      0.11223249954011
  H   -2.26031270795990      0.00014134152075     -0.56254346015870
  H   -2.32442942970428     -0.59838256678731      0.96767761554400
  N   1.83208505146094      0.02379567162884     -0.47837477570594
  H   2.31973281416651     -0.42043363215095      0.28954478719101
  H   2.39125422466129     -0.09518450008285     -1.31222438091650
