14
Coordinates from ORCA-job run
  C   -0.48305842890256      0.09059428069252      0.41047869864197
  C   0.42438753364588     -0.54200432138095     -0.64294333677552
  Cl  0.12355216475629     -0.63273923190636      2.04184903337229
  H   0.03027633553909     -0.22216068855243     -1.61266421127509
  H   0.32403741925381     -1.63300210702533     -0.57072685976911
  N   -0.37816228895012      1.48532356047246      0.34611705008595
  H   -0.86513316115300      1.93117940333815      1.11127540996092
  H   0.59370762427772      1.76269229895707      0.29456162122091
  N   -1.86891504431044     -0.27409348075150      0.35451277067560
  H   -2.26545886041730      0.09503818258586     -0.50155461940593
  H   -1.98781898394112     -1.27791691595882      0.39444734895957
  N   1.78742824717740     -0.04388453481121     -0.51167991493824
  H   2.25386903173650     -0.52443017261340      0.24735181045016
  H   2.30928841128786     -0.21359627304606     -1.36102480120348
