14
Coordinates from ORCA-job run
  C   -0.30704141731909     -0.10572793018751      0.67180891060200
  C   0.92159030921074     -0.62158359061405     -0.06700480071301
  Cl  -0.44782339089838     -1.00589157968530      2.22005115664562
  H   0.85299440547984     -1.71166202721382     -0.12064252366104
  H   1.80263467656198     -0.34798012907809      0.51549721269378
  N   -0.09676493238962      1.28488105030111      0.98690491760174
  H   0.15745969324622      1.74623891506244      0.11875243855956
  H   -0.94753833886275      1.69962828569507      1.34862364452890
  N   -1.48666226643636     -0.45274468532122     -0.11181411536832
  H   -2.32285649335787     -0.32938207464224      0.44790572234541
  H   -1.53144921879719      0.19748010209279     -0.88971991631019
  N   0.96628020372026      0.03141902219267     -1.37833691590809
  H   1.92229905976020      0.17207752674795     -1.67408804087673
  H   0.51687771008201     -0.55675288534979     -2.06793769013963
