14
Coordinates from ORCA-job run
  C   -0.31427792737070     -0.11437963253289      0.66708854406872
  C   0.83289616957650     -0.72848654763373     -0.12559660264828
  Cl  -0.31648470029210     -0.84738650531020      2.30717391987544
  H   0.60934262174361     -1.78596756822861     -0.27448699778682
  H   1.74517549365184     -0.63652823775635      0.47034303647425
  N   -0.02939335816753      1.30345306761403      0.85312857121649
  H   -0.22910086777340      1.76716415005974     -0.02722507929505
  H   -0.64619976580560      1.69104298478965      1.55814425426327
  N   -1.55326557222314     -0.47028892204231      0.02249352971941
  H   -2.32691364693699      0.03756173272929      0.43507644440273
  H   -1.46176244615749     -0.20539053586266     -0.95353353618783
  N   0.90305846154355     -0.04493061200793     -1.42012784545061
  H   1.21623890154435     -0.67935359580300     -2.14169167968072
  H   1.57068663666710      0.71349022198497     -1.36978655897099
