14
Coordinates from ORCA-job run
  C   -0.34538345856990      0.05522763876895      0.42156535007470
  C   0.89268724101636     -0.73488309986627     -0.01026050061189
  Cl  -0.72240159842974     -0.60454054453326      2.19236179063654
  H   0.65702889353727     -1.80133172573466      0.03543969277067
  H   1.68841546864225     -0.55832378885806      0.71814846613593
  N   -0.07211049632741      1.44192349651210      0.47525082484236
  H   -0.89597878497585      1.98281854637944      0.70792551346718
  H   0.63913566722735      1.63316155298102      1.16885827971475
  N   -1.44207773209114     -0.20914070463136     -0.43158381923842
  H   -2.25349601137489      0.34676903430993     -0.19069834887461
  H   -1.70006306057423     -1.18600647777427     -0.37952829334050
  N   1.36869778422058     -0.40032925940857     -1.33849694289086
  H   1.57017063771373      0.59196249804423     -1.36915236309863
  H   0.61737544998562     -0.55630716618923     -1.99982964958723
