14
Coordinates from ORCA-job run
  C   -0.43907790938276      0.02145172082775      0.55538610475759
  C   0.84061903649255     -0.59465316966249     -0.01275247737848
  Cl  -0.64654038501519     -0.71701510814979      2.23609501292734
  H   0.70721399592835     -1.68403240204874     -0.09431954524474
  H   1.65553950331654     -0.41345639056708      0.69103385635381
  N   -0.40157131591238      1.44940451815710      0.73797394688847
  H   -0.00220568647497      1.82844196515855     -0.11668890030683
  H   0.22070073609313      1.67723254083686      1.50340644161896
  N   -1.52333400502566     -0.27068277421154     -0.31207455003167
  H   -2.34506844405646      0.23589242480506     -0.00770135546120
  H   -1.72052908634460     -1.26266182844663     -0.34753637802444
  N   1.13989309710958      0.08501796810144     -1.26770522841133
  H   2.05807725835862     -0.17732873753353     -1.60131201193467
  H   0.45428320491325     -0.17761072726698     -1.96380491575280
