14
Coordinates from ORCA-job run
  C   -0.45944403925144      0.08321644264220      0.11156051728512
  C   0.78666646033247     -0.77621160088095     -0.13897077471232
  Cl  -1.44994658500684      0.07838122687537     -1.44760326838422
  H   1.34059148046292     -0.77326658400905      0.80623082142927
  H   0.47328899996838     -1.80664204157228     -0.33172921187281
  N   -1.19610653975213     -0.44375975274765      1.21009595110866
  H   -1.43613491964338     -1.41728255678830      1.06499848168135
  H   -2.04780315947222      0.08198496278546      1.36639009160060
  N   -0.06999585619404      1.46055193535373      0.31228799716298
  H   -0.84478926051035      2.08806580820724      0.13804407938554
  H   0.21859711558657      1.56006702207092      1.28000262919132
  N   1.66256040109424     -0.33904327137459     -1.20173395205560
  H   1.83089654852046      0.65281481541395     -1.07802778021489
  H   1.19261935386535     -0.44887640597604     -2.09154558160499
