14
Coordinates from ORCA-job run
  C   -0.33548261623645      0.02203742418849      0.46033497071321
  C   0.41722712723197     -0.57161345621670     -0.73960280555972
  Cl  0.25335512986780     -0.80564713097708      1.95176150354457
  H   -0.00207917995766     -0.08791396459642     -1.63355359968229
  H   0.16660003171909     -1.63365210468210     -0.80639014613761
  N   -0.00237002253681      1.41616781887265      0.57324277292806
  H   -0.26308927745367      1.89228004595708     -0.28464155110441
  H   -0.53441353989606      1.82011789064497      1.33616446146719
  N   -1.77133860664324     -0.19639960296835      0.43652844871260
  H   -2.14737829746655      0.19629539159803     -0.42105754780296
  H   -1.98300095633003     -1.18822485637550      0.45141783747471
  N   1.85717342077293     -0.42032344872143     -0.75967497804234
  H   2.08383999828545      0.54267864130653     -0.54059125139766
  H   2.25895678864323     -0.98680264803018     -0.02293811511336
