14
Coordinates from ORCA-job run
  C   -0.33246106793063      0.02534272361098      0.46221438055001
  C   0.94413039100732      0.06303575108178     -0.39086106548755
  Cl  -0.14409957598245     -1.28496420526729      1.68849620116334
  H   0.82112323013847      0.90381706460941     -1.08863480886012
  H   1.78302206619040      0.31402374974646      0.26371239867802
  N   -0.58186218022071      1.23675338980809      1.22395117531725
  H   0.17307715790165      1.40981895837329      1.87882170232707
  H   -0.63230553308501      2.02183009662590      0.58193876892876
  N   -1.44394940606957     -0.32149508551316     -0.38135078774666
  H   -2.29418525520319     -0.30106412131686      0.17089599041252
  H   -1.52832001271642      0.36720330311210     -1.12243038569849
  N   1.27087635236989     -1.12723836786314     -1.14797406802980
  H   1.52954914105211     -1.86621047785726     -0.50600977414368
  H   0.43740469254815     -1.44185277915029     -1.63076972741068
