14
Coordinates from ORCA-job run
  C   -0.41083317545516     -0.04148033871802      0.34733365980106
  C   0.64607280942604     -0.77810430492536     -0.47998245802121
  Cl  0.17277116691941     -0.06894823745977      2.10376070964912
  H   0.77951625862772     -1.75964581211264     -0.02383135108608
  H   0.20810450985332     -0.93087480884421     -1.47175944586171
  N   -0.57976446276272      1.29356616311295     -0.12207907784877
  H   -1.27875349106877      1.78193060479949      0.42464957003151
  H   0.28815247964840      1.81170943538043     -0.06580305645391
  N   -1.63348668550837     -0.80489852930758      0.33898488679665
  H   -2.24474538232240     -0.51659666670753      1.09319798439448
  H   -2.10183763503105     -0.63051736238726     -0.54393478450141
  N   1.93385805828934     -0.13831051329336     -0.64284588825684
  H   2.34782650958181      0.08505964288875      0.25235049251345
  H   1.87211903980243      0.69611072757411     -1.20904124115633
