14
Coordinates from ORCA-job run
  C   -0.30985309768267      0.24674166083147      0.43080413072587
  C   0.97899697261061     -0.07191804198131     -0.34700648463871
  Cl  -0.37440362156893     -1.00270939840122      1.81509377271592
  H   1.83184130077832      0.05156315945668      0.32762828878293
  H   1.05666554534879      0.69881369352822     -1.12091739791072
  N   -0.27050703623405      1.57902206697025      0.89475702226693
  H   -1.10698915678259      1.78967144098995      1.42453209041530
  H   0.55082084367563      1.76266787529894      1.45531669164899
  N   -1.54917561990225      0.07775227099846     -0.27765962615013
  H   -1.56082264441808      0.71104343272633     -1.06924726494510
  H   -1.66445792356533     -0.87633662796952     -0.59093524262863
  N   1.07789008711156     -1.37127502073475     -0.97375259788316
  H   0.36452692458121     -1.48897144158113     -1.68068942330148
  H   0.97646742604778     -2.10606507013236     -0.28592395909799
