14
Coordinates from ORCA-job run
  C   -0.46599383693395     -0.04931704826487      0.42261350872074
  C   0.50281908211374     -0.70225425876351     -0.57861774878913
  Cl  0.03899519735557     -0.58812555164174      2.08164940696287
  H   0.40160061644103     -1.78524839778342     -0.48260233852398
  H   0.15168191323608     -0.42436095540189     -1.58155658572980
  N   -0.43516043405013      1.40073789742640      0.47466474140356
  H   -0.64180644000704      1.77111638019575     -0.44722891144283
  H   0.46747760961208      1.74418303658934      0.77908675373044
  N   -1.78226170174655     -0.54208353937910      0.17055161792991
  H   -2.46007120587960      0.02932195111050      0.66018285726280
  H   -1.98452380062545     -0.54310023102865     -0.82137325396573
  N   1.90250912439889     -0.35005446225217     -0.48442761902608
  H   2.26771380805562     -0.60566339415286      0.42377239541577
  H   2.03702006802973      0.64384857334622     -0.61571482394853
