14
Coordinates from ORCA-job run
  C   -0.27179795144196     -0.11857703255858      0.62643631738777
  C   0.94350781696467     -0.74830367946794     -0.06302209787739
  Cl  -0.42585799210663     -0.87859086727625      2.24284014026249
  H   1.81042553667706     -0.56906411396034      0.57495684931615
  H   0.76883020732476     -1.82418017386648     -0.11470546095336
  N   -0.01600964082226      1.29329974382217      0.86378048325401
  H   -0.03151849030513      1.77845128624467     -0.02688295338292
  H   -0.75052485980574      1.68747749380321      1.44105559935350
  N   -1.47898836766788     -0.46976434799846     -0.10464480920196
  H   -2.29834852518168     -0.17747752188147      0.41627342969129
  H   -1.48015323218280      0.03211196275522     -0.98612940925479
  N   1.24042891735956     -0.26162803478974     -1.39710311510316
  H   1.48443624044302      0.71784515850985     -1.41364168902357
  H   0.50657034074501     -0.46059987333587     -2.06121328446807
