14
Coordinates from ORCA-job run
  C   -0.38683710920814     -0.13310775209540      0.62412155002846
  C   0.90272655872511     -0.67702393219931     -0.01511079660927
  Cl  -0.50893309922927     -0.92769459829224      2.24036049743954
  H   1.73208014381023     -0.43640358408517      0.65595640341350
  H   0.82438610602255     -1.76470316123464     -0.06259377147651
  N   -0.39965774444496      1.29458091302636      0.89303055405047
  H   0.37955511845515      1.56615371160618      1.48209204871976
  H   -0.35059983969950      1.80353111614112      0.01763822313399
  N   -1.52237827929051     -0.52902313040995     -0.15711962434119
  H   -1.39234219167518     -0.22713636497024     -1.11534242254540
  H   -2.34994504166835     -0.07588546959651      0.21357832621502
  N   1.22047650118845     -0.18179355953805     -1.34182836057554
  H   0.59834015906318     -0.53957104962787     -2.05218625103258
  H   1.25312871795125      0.82707686127571     -1.38459637642026
