19

C	0.0	0.0	0.0
C	-0.258017	0.032151	-1.561842
Cl	1.756695	0.0	0.0
H	0.37216	0.878579	-1.845356
N	-0.522131	1.23346	0.640237
O	-0.564052	1.319981	1.875679
O	-0.542025	2.23075	-0.118595
N	-0.415398	-1.253815	0.720477
O	-0.333757	-1.27568	1.946009
O	-0.635613	-2.249658	0.021878
C	-1.643329	0.367025	-2.109485
H	-1.514694	0.566119	-3.186378
H	-2.05563	1.258637	-1.643514
H	-2.341007	-0.463206	-1.996461
C	0.261547	-1.194293	-2.330981
H	-0.490465	-1.980829	-2.358289
H	1.172493	-1.618698	-1.916273
H	0.474095	-0.879966	-3.359102
H	-1.940403	0.0	0.0
