19

C	0.0	0.0	0.0
C	-0.390031	-0.003584	-1.498752
Cl	1.745229	0.0	0.0
H	-1.461782	0.226415	-1.480142
N	-0.852676	1.039426	0.759326
O	-0.828641	0.90245	2.007243
O	-0.825022	2.172153	0.196814
N	-0.347385	-1.314531	0.724855
O	0.36519	-1.679251	1.656716
O	-1.385889	-1.881086	0.375574
C	-0.193378	-1.353158	-2.189949
H	0.831771	-1.7165	-2.065141
H	-0.883112	-2.107817	-1.818194
H	-0.366456	-1.226415	-3.263501
C	0.336052	1.080105	-2.302491
H	1.34257	0.767249	-2.592132
H	-0.235377	1.260081	-3.219454
H	0.386896	2.00733	-1.736462
H	-2.215238	0.0	0.0
