19

C	0.0	0.0	0.0
C	-0.562384	0.006976	-1.44424
Cl	1.783266	0.0	0.0
H	-1.65581	-0.000314	-1.379049
N	-0.433397	1.245918	0.71945
O	0.246011	2.303584	0.512785
O	-1.744295	1.410056	0.713542
N	-0.418591	-1.254045	0.743446
O	-1.741997	-1.366772	0.684259
O	0.256091	-2.299761	0.493336
C	-0.163178	-1.2726	-2.187543
H	-0.506685	-1.177903	-3.235739
H	0.9177	-1.422065	-2.201922
H	-0.654378	-2.147873	-1.774781
C	-0.166354	1.270383	-2.197701
H	-0.507039	1.185482	-3.238658
H	0.91829	1.421315	-2.204305
H	-0.658658	2.152224	-1.781706
H	-1.547425	0.0	0.0
