19

C	0.0	0.0	0.0
C	-0.364202	0.071155	-1.527711
Cl	1.798341	0.0	0.0
H	-1.31452	0.595772	-1.530273
N	-0.461011	1.239266	0.688915
O	-0.608484	2.238866	-0.041404
O	-0.326542	1.306819	1.917475
N	-0.320287	-1.274448	0.781981
O	0.008591	-2.309317	0.198715
O	-0.746347	-1.236582	1.925116
C	-0.590806	-1.271493	-2.206722
H	-0.873776	-1.074548	-3.247529
H	0.309665	-1.887689	-2.203605
H	-1.395986	-1.829069	-1.727579
C	0.607827	0.902674	-2.377036
H	1.510406	0.3525	-2.656956
H	0.076219	1.167243	-3.29785
H	0.891875	1.82677	-1.878049
H	-2.023538	0.0	0.0
