16

C	-0.417792	0.00304	-1.450317
C	0.0	0.0	0.0
Cl	-0.23331	-1.687768	-2.031639
H	1.101566	0.0	0.0
H	-0.362056	-0.863662	0.54936
N	-1.919436	0.286284	-1.600282
O	-2.2899	0.860764	-2.619751
O	-2.653803	-0.120881	-0.706492
C	0.403802	0.909903	-2.329819
H	0.18536	1.945262	-2.078132
H	0.19047	0.731764	-3.382808
H	1.451819	0.698981	-2.095327
N	-0.442212	1.181431	0.722726
O	-0.76569	2.193802	0.083529
O	-0.396483	1.125008	1.95523
H	2.613325	0.0	0.0
