15
Coordinates from ORCA-job run
  C   0.77311845304369     -0.24441089718269      0.21372447179650
  C   -0.67443872585959      0.20958791717604     -0.05462741542648
  Cl  0.83109635007767     -2.00973161373117      0.48551218318017
  H   -0.60289379561562      1.30750972515216     -0.15351916541843
  N   1.59160061049234      0.04876073099620     -0.94822353669203
  H   1.70208001414319      1.05576525623051     -1.02678796841721
  H   2.51364763764617     -0.35760001488797     -0.83436672979114
  C   1.25976044744966      0.40609202629478      1.44226903585594
  N   1.72990526341832      0.99202965748544      2.34591082663944
  N   -1.47364684905375     -0.05085010042072      1.11637818380895
  H   -2.28508749564493      0.55217681585228      1.14033382772625
  H   -1.78988314800562     -1.01344477350459      1.07842099346927
  N   -1.15336223576735     -0.46061800536411     -1.24695957390856
  H   -1.98398291449315      0.00415732935153     -1.59184374203910
  H   -0.43791361183103     -0.43942405344769     -1.96522139078356
