15
Coordinates from ORCA-job run
  C   0.80963623923364     -0.28718108463216      0.25830311377838
  C   -0.67786645634256     -0.29634098722543     -0.16482795141171
  Cl  1.15139810059336     -1.85157910155059      1.12928787458746
  H   -0.80735693219022     -1.21589564271300     -0.75941162014811
  N   1.64308694366167     -0.11148956291346     -0.89072242053149
  H   1.58520800482937     -0.93576511461875     -1.47947017310232
  H   2.61108849942058      0.02289121416048     -0.62450068610393
  C   1.04489362998828      0.79647041449832      1.21465532513239
  N   1.23682788474118      1.66176833922969      1.98461578694626
  N   -0.90851179667283      0.94241840786832     -0.88739577056230
  H   -1.83882683720992      0.93935705876136     -1.28676482965889
  H   -0.22206198493068      1.06945862582482     -1.62041220847267
  N   -1.52020388625108     -0.40006790676494      0.99714882482254
  H   -1.71660313714977      0.53219296717133      1.34314737949876
  H   -2.38970827172103     -0.86823762709600      0.78634735522562
