15
Coordinates from ORCA-job run
  C   0.80173397899548     -0.08949010585191      0.44410484906028
  C   -0.71049814835087      0.13710378236766      0.24548651358449
  Cl  0.96825943620717     -1.37483146651746      1.78604290456251
  H   -1.13750428139731      0.38902143813567      1.22358914961260
  N   1.37862296993090     -0.47244799753978     -0.77923711355802
  H   0.87411403125229     -1.26541907435674     -1.15897631932221
  H   2.37239362949213     -0.64562678918272     -0.71660262307967
  C   1.44723274333519      1.10755310457567      0.98290836065249
  N   1.98929517545242      2.04840514485042      1.42947722497605
  N   -1.25689920242155     -1.09423164989371     -0.33083389101730
  H   -2.17002983561101     -0.89495896967983     -0.71963061392839
  H   -1.36682339574380     -1.80425686229066      0.38463807722873
  N   -0.85332872243161      1.28182699526782     -0.61067713610958
  H   -1.80833558031260      1.61272745802559     -0.63678373696477
  H   -0.52923279839682      1.06462499208997     -1.54450564569720
