15
Coordinates from ORCA-job run
  C   0.83243733113093     -0.40006420199096      0.21643549990500
  C   -0.53335638139354      0.26325975669109     -0.11479852713771
  Cl  0.64069861660309     -2.18977902061952      0.09525932010791
  H   -0.31997474076880      1.34264017909766     -0.03761851204364
  N   1.88119700199000      0.01243007201203     -0.66874352457469
  H   2.26878426224778      0.90276417532302     -0.38154754062987
  H   1.47882898895259      0.08819050225668     -1.59835526333096
  C   1.19265939475812     -0.07913558482339      1.60067188131311
  N   1.43829752545299      0.24623993560304      2.70254307447538
  N   -1.57570384624920     -0.20261718410961      0.77743494754486
  H   -1.32119943891978     -0.07227916168885      1.75082745583323
  H   -2.42458648184110      0.32296123743097      0.60623788047238
  N   -0.82867875715960     -0.00672569074298     -1.50234449989443
  H   -1.27229195344256     -0.91635899888429     -1.56760771914490
  H   -1.45811152136093      0.68947398444511     -1.87939447289565
