15
Coordinates from ORCA-job run
  C   0.85270153420490     -0.27996500580344      0.27870952820624
  C   -0.60585924010194     -0.39961614035459     -0.23245495727862
  Cl  1.25957795966708     -1.86926591064338      1.10138433486647
  H   -0.68484508017373     -1.39290918536775     -0.68492087490553
  N   1.74205146402248      0.06242905739368     -0.76809178455102
  H   1.50424461376043     -0.40423370468341     -1.63231878646460
  H   2.70920009202455     -0.08963346780406     -0.51558613225602
  C   0.93266848777204      0.74308580285685      1.33141122472197
  N   0.95700200809472      1.60503429705968      2.12906325376725
  N   -0.80385260383133      0.57451515573786     -1.29749304386128
  H   -1.77912438368912      0.56783587798242     -1.57318781204701
  H   -0.56807778092821      1.50969347162249     -0.98298978265166
  N   -1.49195576054807     -0.38962673329789      0.91215394894466
  H   -1.63353066567199      0.55335136530487      1.25581198371973
  H   -2.39020064460183     -0.78969488000331      0.67650889978942
