15
Coordinates from ORCA-job run
  C   0.90561812952190     -0.30458382477403      0.36704545818288
  C   -0.53458530750187     -0.39972083910958     -0.20416725962562
  Cl  1.25438043763054     -1.75103720740110      1.34845929718852
  H   -0.55693174359389     -1.32235515861438     -0.79318172259228
  N   1.93536389499861     -0.18138321409835     -0.64052214926442
  H   1.56428215051779      0.43172547429532     -1.36137898499759
  H   2.10323856692439     -1.09486689216309     -1.04704184040009
  C   0.94282418730176      0.88036523611002      1.24088646035091
  N   0.86276296555453      1.85869569420483      1.88650060300887
  N   -0.67415350985534      0.72096367456448     -1.13545044830334
  H   -0.91366367204719      1.56653395040890     -0.62770709463125
  H   -1.41776986629261      0.53718224616735     -1.79739366327197
  N   -1.49481021111695     -0.52711520842546      0.86679603677004
  H   -2.41037087077982     -0.75252487765707      0.49991665711087
  H   -1.56518515126185      0.33512094649218      1.39623865047448
