15
Coordinates from ORCA-job run
  C   0.81817213849399     -0.27608235503085      0.24262555546093
  C   -0.67579924702724     -0.30541373426551     -0.15626674697998
  Cl  1.19859481790360     -1.84089213389053      1.09653454306479
  H   -0.80072453911919     -1.22204911409936     -0.75629426284137
  N   1.62986263051378     -0.07931044739156     -0.91873482564793
  H   2.59980010196023      0.06890090525100     -0.66687294411181
  H   1.57626259737076     -0.90100017463994     -1.51151538188810
  C   1.05231764672889      0.80453900200725      1.20266996496207
  N   1.24265003793240      1.66744586199452      1.97557048724892
  N   -0.93725412467381      0.93541369535204     -0.86484278561227
  H   -0.26717024429815      1.07646258354335     -1.61040625018143
  H   -1.87510875035026      0.92188101345919     -1.24608192774935
  N   -1.49712043894145     -0.43093157030774      1.01822058965015
  H   -1.70349944121954      0.49484887342239      1.37506213208696
  H   -2.36098318527401     -0.91481240540426      0.82033185253841
