15
Coordinates from ORCA-job run
  C   0.81020721305174     -0.06056472717620      0.63203761856339
  C   -0.68695040133247      0.02498361218902      0.20998628382441
  Cl  0.87662176343544     -0.95497833157034      2.18069799179614
  H   -1.26019886668667      0.34991763215303      1.08906210015588
  N   1.65670428405892     -0.73240518113765     -0.31766521896880
  H   1.58868677002552     -0.23532218121857     -1.20144499484077
  H   1.27582702495517     -1.66586279790315     -0.44286914811898
  C   1.31983848707428      1.29543669705091      0.87252018357707
  N   1.65275368670119      2.41163556502360      1.02456118577594
  N   -1.11549163453073     -1.29759479380632     -0.17834472028668
  H   -1.11421674331182     -1.37807008583926     -1.18672059266279
  H   -2.02881039643827     -1.52614427021934      0.18350616289515
  N   -0.75794152269807      0.93266796005561     -0.92930617501233
  H   -1.71129523496694      0.95666405576912     -1.27241083642804
  H   -0.50573442933728      1.87863684662954     -0.66360984026960
