15
Coordinates from ORCA-job run
  C   0.81322276063648     -0.27525322106522      0.25840203655700
  C   -0.67548005849520     -0.30465158659411     -0.15918969296362
  Cl  1.17493717296695     -1.82766735762646      1.14257262708902
  H   -0.79728649081693     -1.23226153624523     -0.74266995702763
  N   1.64100541958393     -0.10164352850498     -0.89545096996017
  H   1.58910969737075     -0.93232944973269     -1.47566220346349
  H   2.60861151419286      0.04311309109479     -0.63315507100618
  C   1.04066190410471      0.81963728501159      1.20377928375173
  N   1.22629669730133      1.69348248887181      1.96547944436654
  N   -0.92258890315953      0.92344971475416     -0.89436437008076
  H   -0.23720897428672      1.05201411292215     -1.62814990612438
  H   -1.85223891392930      0.90314482096379     -1.29481300821081
  N   -1.51244135218292     -0.40495458939275      1.00737588802624
  H   -2.37758077536906     -0.88459168788481      0.80471763660403
  H   -1.71801969791735      0.52951144342795      1.34212826244251
