15
Coordinates from ORCA-job run
  C   0.78134746865409     -0.07783449762311      0.48104523646438
  C   -0.71314567169247      0.18348983778772      0.20535337593559
  Cl  0.85122628955889     -1.24285788374376      1.93585885561122
  H   -1.16396457041905      0.53616336488390      1.14071487656814
  N   1.38566830994289     -0.58887799952567     -0.68103815924588
  H   0.86532933663850     -1.39502592647909     -1.00734071007540
  H   2.36913762739759     -0.79061056199258     -0.56454907043781
  C   1.45323291732851      1.13938983703042      0.93610659528663
  N   2.01572855014955      2.09663181341680      1.31781929130715
  N   -1.28609726483487     -1.07418198817538     -0.28157897206804
  H   -1.44879881896644     -1.71326658277177      0.48870992047044
  H   -2.17658908127599     -0.87819076353823     -0.72108205152077
  N   -0.78134091270326      1.25199810910220     -0.75258553568759
  H   -0.43071017523250      0.94151408407777     -1.64982737862187
  H   -1.72202400454544      1.61065915755080     -0.84660627398620
