15
Coordinates from ORCA-job run
  C   0.82339751526151     -0.40609716734216      0.26813638079692
  C   -0.65690064872618     -0.39459571754404     -0.16571599893741
  Cl  1.20224384692366     -1.97537525386861      1.02614489465690
  H   -0.82261437317616     -1.36187902813098     -0.65472652852139
  N   1.65372944589337     -0.26008081682799     -0.90793645789182
  H   2.62596215876268     -0.41148543658337     -0.66426853648976
  H   1.54918653098666      0.69335338945351     -1.24062797306473
  C   1.04735018171145      0.64458678884089      1.27799794923223
  N   1.21987680952048      1.52955558451056      2.03196037889957
  N   -0.81600009937620      0.73947374613040     -1.08145578188977
  H   -1.76851733172647      1.07676970681834     -1.03592722396786
  H   -0.62913506717879      0.45137769711025     -2.03471225670256
  N   -1.49334080371482     -0.32611172690239      0.99900957082860
  H   -2.44153716442402     -0.60724600178817      0.79113859405894
  H   -1.49570100073716      0.60875423612376      1.39098298899214
