15
Coordinates from ORCA-job run
  C   0.85333394505377     -0.10999034261901      0.22825278390361
  C   -0.61900779514979      0.21977578272851     -0.11442093313790
  Cl  1.06613194023636     -1.93624042306794      0.19290766977388
  H   -0.64906970252305      1.31900729099734     -0.08938110407189
  N   1.68474787295992      0.57392435791944     -0.68720921440061
  H   2.66028792740021      0.33302235136207     -0.57053357687862
  H   1.36419931906868      0.35984105326856     -1.62600034164737
  C   1.15410507805703      0.30154591829893      1.60271121646034
  N   1.34249409773890      0.65774794079959      2.70617609036036
  N   -1.52189528234515     -0.42804138826342      0.81687982923331
  H   -1.30228601957796     -0.18475286201453      1.77700213657068
  H   -2.46735034799181     -0.11677803684571      0.62940111661241
  N   -0.85203949782612     -0.18511757658185     -1.48188233745734
  H   -1.59519891712583      0.36061166408767     -1.89709652607565
  H   -1.11845261797518     -1.16355573006968     -1.48780680924520
