15
Coordinates from ORCA-job run
  C   0.65489092748851     -0.17553911052994      0.57804108837407
  C   -0.80554002364741      0.13893750115787      0.13724317796686
  Cl  0.61528442210363     -1.21133611747482      2.04008952957616
  H   -1.31047091675630      0.60449129194402      0.99426266918163
  N   1.30110483514316     -0.88731477000840     -0.48781391308922
  H   1.21757404013986     -0.31650182846887     -1.32437033968232
  H   2.27584822546756     -1.06341542843307     -0.27734043832079
  C   1.32048539752109      1.08078594635922      0.96339860185998
  N   1.82664674967977      2.11569953781326      1.19992845604667
  N   -1.55272693399861     -1.02798722532301     -0.25023102049919
  H   -0.95703866026050     -1.62449896053511     -0.81516529620905
  H   -1.83198808305686     -1.55160160935183      0.56876563450955
  N   -0.68596480720467      0.99797358347925     -1.03304654268859
  H   -1.56932121352129      0.96267237481977     -1.52647728038997
  H   -0.49778395909795      1.95763481455166     -0.76728432663578
