15
Coordinates from ORCA-job run
  C   0.83648498296281     -0.14500275485720      0.26738184738999
  C   -0.57272202769800      0.37058305402546     -0.07558391434092
  Cl  0.70249087836970     -2.01291686175220      0.39368536165136
  H   -0.46609337108920      1.45975619850886     -0.09580655847051
  N   1.74676207919843      0.27865471915980     -0.71159899980434
  H   1.37906908474053      0.06954532626722     -1.63235588926524
  H   2.68009145668015     -0.08431446349942     -0.57512628609478
  C   1.25615958284118      0.29534866283681      1.59815626319663
  N   1.60973501024685      0.69035493330499      2.64578508377990
  N   -1.48475318545847      0.04142082841364      0.99278439251044
  H   -1.67590351467701     -0.95253962302213      1.01813483462759
  H   -2.35684397373549      0.54210326100705      0.88423413959160
  N   -0.86864493074118     -0.05459672884484     -1.43921960794324
  H   -1.60535047278300      0.51869703987838     -1.83010404554685
  H   -1.18048159885730     -1.01909359142644     -1.44036662128164
