15
Coordinates from ORCA-job run
  C   0.83349740773915     -0.05418275989905      0.29801235485462
  C   -0.59947849389286      0.31848231942616     -0.12201562702581
  Cl  0.83770243104277     -1.90987678151422      0.58306718196641
  H   -0.57402690260443      1.40679018742004     -0.23613156957360
  N   1.73878770426218      0.35487630187907     -0.69139715933730
  H   1.41630696397846      0.04131450043869     -1.59939305226368
  H   2.69224186224441      0.07853126615607     -0.50165431999147
  C   1.17919226051826      0.52704282747959      1.59545958812117
  N   1.50727225530639      1.02108086369158      2.60882597791753
  N   -1.51447528109506      0.01313975579357      0.95091141606302
  H   -1.62721954902438     -0.98683057454999      1.06268575100623
  H   -2.41982973969465      0.42957163552887      0.77792384918499
  N   -0.82206781560380     -0.24456738257232     -1.44888963506931
  H   -1.58926990736972      0.23209192950141     -1.90529203503217
  H   -1.05763319580671     -1.22746408877947     -1.37211272082063
