15
Coordinates from ORCA-job run
  C   0.81155681681283     -0.25749958297462      0.25917461834795
  C   -0.56481394642953      0.32571602236165     -0.13950378385745
  Cl  0.68902291968755     -2.09282366763433      0.26304341845272
  H   -0.39549175088545      1.41261110977685     -0.13333930331055
  N   1.78145901203470      0.24256626977032     -0.63839857963816
  H   1.45628021301332      0.06948082940658     -1.58400907525684
  H   2.69256762945616     -0.16897403434017     -0.48431395320106
  C   1.13908046962688      0.12430084820034      1.63621879685983
  N   1.35541487388526      0.46538450529326      2.73931595859883
  N   -1.59912804356827     -0.12674252106742      0.77016510274820
  H   -1.36783524280805      0.09074798636028      1.73377612878755
  H   -2.46541151951551      0.34828793278393      0.54678818582892
  N   -0.82506272227828     -0.06010193984897     -1.50775288460541
  H   -1.26464277462979     -0.97402480536239     -1.50708174249261
  H   -1.44399593440182      0.60207104727470     -1.95608288726192
