15
Coordinates from ORCA-job run
  C   0.79029331482102     -0.10541498859333      0.45979873621642
  C   -0.71140414101484      0.15894887033611      0.23162230398650
  Cl  0.89879184727388     -1.37964021411340      1.81811062922868
  H   -1.14861936190167      0.43324538281774      1.19914370968377
  N   1.37869216811357     -0.51739634417223     -0.74882479517947
  H   0.86222115428693     -1.30260645241739     -1.12790273956027
  H   2.36663802723800     -0.71330504261635     -0.66624972563154
  C   1.45834240786303      1.08000951156148      0.99713421399063
  N   2.01884628223481      2.01031385069885      1.44294099577022
  N   -1.28011965245048     -1.06374200318176     -0.34118708006895
  H   -2.18030956818796     -0.84546962508228     -0.74918415891183
  H   -1.42168091574008     -1.76247195616727      0.37970061682882
  N   -0.80800444930697      1.29769410707772     -0.63938973324054
  H   -0.46876705477582      1.06116483640817     -1.56316251530009
  H   -1.75492005845343      1.64867006744395     -0.69155045781236
