15
Coordinates from ORCA-job run
  C   0.75630181261820     -0.26356981949270      0.22124595321789
  C   -0.72777540364493     -0.26267953803264     -0.22516081098253
  Cl  1.04285518617362     -1.77837192405731      1.23635225707649
  H   -0.83137676562329     -1.14280007999811     -0.88402073174917
  N   1.59838380963766     -0.21672065247546     -0.92336621949751
  H   1.48180468442709     -1.05636908789903     -1.47942131697936
  H   2.57411509213985     -0.12117913541995     -0.67061245605024
  C   1.02657214441062      0.88354244226043      1.08739386111023
  N   1.25524669354474      1.83297939369253      1.73942459615231
  N   -1.07427102615856      0.91205565217825     -0.98546340189648
  H   -1.04463954727568      1.71952044384732     -0.37091648352700
  H   -0.41304004253785      1.05204035085934     -1.73867919964083
  N   -1.58416265258542     -0.27180713537632      0.93611651567627
  H   -2.53710023300613     -0.13963509748817      0.62059102970372
  H   -1.52291375211990     -1.14800581259816      1.43651640738620
