15
Coordinates from ORCA-job run
  C   0.82780894599621     -0.06658513549038      0.60796409749924
  C   -0.68050593245597      0.03039348330463      0.22977460339054
  Cl  0.93191934647429     -0.96046443447288      2.15509659465916
  H   -1.22497747503795      0.36028481607252      1.12517337105450
  N   1.64094441500222     -0.74579774837208     -0.36500109136903
  H   1.24896334354636     -1.67603248151919     -0.47921984904917
  H   1.55379364949013     -0.24796310304002     -1.24661718582964
  C   1.35438159104954      1.28559400355248      0.83245255875377
  N   1.70024149567195      2.39931871225181      0.97354724000142
  N   -1.13031121398308     -1.28916020155288     -0.14503156553472
  H   -1.16023558307348     -1.36916663645153     -1.15304114143796
  H   -2.03437292638502     -1.51012703507355      0.24397388970024
  N   -0.77797479669843      0.93784313988887     -0.90771298585323
  H   -1.74098074341474      0.97011643598570     -1.22169618293074
  H   -0.50969411618204      1.88174618491650     -0.65066235305439
