15
Coordinates from ORCA-job run
  C   0.87179540634396     -0.21207570713315      0.31194637958466
  C   -0.55702478032164      0.14922449565989     -0.17826487309988
  Cl  0.93241050806345     -1.98491058389601      0.63700372759901
  H   -0.49688313313651      1.23295519200480     -0.37423872770957
  N   1.88944136565636      0.11579296101416     -0.64368766255446
  H   2.12862196247716      1.09863976801032     -0.59105368457562
  H   1.51697599874666     -0.10287239491473     -1.56329361526670
  C   1.13082333690980      0.48496627931279      1.57548638183991
  N   1.27679401306459      1.09774886283730      2.56708769740449
  N   -1.55940432269107     -0.22339922562852      0.79928149172883
  H   -2.46674758662889      0.10865853991655      0.49524177778368
  H   -1.36720905826442      0.18492434154746      1.70775574614355
  N   -0.76071353526690     -0.49516645655525     -1.45488956706409
  H   -1.07642374373352     -1.44492609806730     -1.29143177528654
  H   -1.46245643121903     -0.00755997410830     -1.99594329652725
