15
Coordinates from ORCA-job run
  C   0.82755347761378     -0.14067005494065      0.54363454345106
  C   -0.67233642758949      0.09058369913900      0.22986186138825
  Cl  0.91541426612037     -1.33102976335629      1.91897595026902
  H   -1.14816756595238      0.46756071344379      1.14551370886964
  N   1.58452962284515     -0.63988021051043     -0.56047916962407
  H   1.01179018563687     -1.29976973337286     -1.07584163479412
  H   1.87365357562713      0.12047566502593     -1.16222809187195
  C   1.40514005125066      1.11374583940342      1.03055226525038
  N   1.85550059346969      2.12176792062353      1.42945889726247
  N   -1.22668379896791     -1.16277852861336     -0.26417606369325
  H   -2.18858516636774     -1.01005217929703     -0.54309354044016
  H   -1.22018451845652     -1.87067547026080      0.46122816543086
  N   -0.73174719218538      1.11765712001880     -0.78385551659844
  H   -1.52960296343025      1.72500203828783     -0.66662956948071
  H   -0.75527413961399      0.69706294440912     -1.70392180541899
