15
Coordinates from ORCA-job run
  C   0.81418950118684     -0.10308703542950      0.54190361710782
  C   -0.68881067650877      0.09495885675225      0.23251964678548
  Cl  0.89704672359409     -1.19260083629191      2.02809167886206
  H   -1.16899643177585      0.47150000130662      1.14497908603354
  N   1.53239682906849     -0.67811209500831     -0.53282878145163
  H   2.09929623624699     -0.02419448403670     -1.04842440370471
  H   0.92425823321599     -1.23629375708076     -1.11725860341368
  C   1.40357563480246      1.17251529623282      0.94653298732282
  N   1.88772661836567      2.19128859804784      1.27213615655673
  N   -1.20977049472149     -1.18233692526317     -0.23929959608948
  H   -2.17778705274844     -1.06541664640743     -0.51409241379688
  H   -1.17438949050459     -1.87771208280409      0.49821283666761
  N   -0.78249195535389      1.11414168777324     -0.78485108697200
  H   -1.65381494393892      1.62184524582158     -0.72444179616801
  H   -0.70542873092859      0.69450417638749     -1.70317932773968
