15
Coordinates from ORCA-job run
  C   0.77873945984801     -0.13710090358494      0.25678671522826
  C   -0.62104560876890      0.36324946605296     -0.19087670169899
  Cl  0.67681098935759     -2.00158439884796      0.37464766041142
  H   -0.51685174873373      1.45296347338697     -0.21584834242421
  N   1.75588596013469      0.32165508400074     -0.63675012023412
  H   2.68385652538492     -0.02844826457482     -0.44222144235855
  H   1.46047999696616      0.13500460040375     -1.58791223571229
  C   1.05966798694571      0.30675759105707      1.62311294383808
  N   1.28355352342044      0.70318792245349      2.70589516014419
  N   -1.71840047179570      0.04951086986090      0.69363464854468
  H   -1.74735130518466     -0.94317400479409      0.89539667227044
  H   -1.63924096265659      0.55211048264862      1.56992045840630
  N   -0.80975222879119     -0.09107861820397     -1.55369340079173
  H   -1.60754409869530      0.39786357135996     -1.94147929336787
  H   -1.03680801743146     -1.07991687121868     -1.54861272225562
