15
Coordinates from ORCA-job run
  C   0.74718030575467     -0.16411867497264      0.18468184197877
  C   -0.71861515943000      0.27638258140972     -0.06142667694517
  Cl  0.84650018651413     -1.95653207463755      0.17400180827351
  H   -0.67697745680983      1.37440551982235     -0.06033769982119
  N   1.56746844455592      0.31955982291494     -0.90681406456749
  H   2.51011916319261     -0.04534311336568     -0.82245605412870
  H   1.62138735392126      1.33269414267742     -0.84952427108043
  C   1.20647386303143      0.29312496845735      1.50494618426146
  N   1.64622956639756      0.73586069137193      2.50124302138703
  N   -1.51589543323521     -0.12802971639813      1.06708055173283
  H   -2.44931886484186      0.24897820238566      0.95829321407117
  H   -1.59196538843815     -1.13871907674934      1.09659708664967
  N   -1.25172352877172     -0.13309275264984     -1.34304152130827
  H   -0.60433300312527      0.12872535798473     -2.07948639424219
  H   -1.33553004871556     -1.14389587825091     -1.36275702626099
