15
Coordinates from ORCA-job run
  C   0.73278619444041     -0.24116424538484      0.19616492826343
  C   -0.71208639930307      0.21004780220435     -0.16223820034116
  Cl  0.79674618877400     -2.00134402318933      0.47592825616336
  H   -0.61849353255974      1.30478235713733     -0.29701628173641
  N   1.61374812567046      0.07223340026160     -0.90973744144234
  H   1.68398327544486      1.08118586453071     -1.00388230184246
  H   2.54304547907523     -0.29483575990229     -0.73780309927108
  C   1.11655824742375      0.41368684920839      1.46033038824102
  N   1.41108716314578      1.01455405006245      2.42701132821824
  N   -1.70619488514844     -0.00264315461440      0.85269296247913
  H   -1.78211092634793     -0.99320430633548      1.05012921689449
  H   -1.50095806724868      0.50709385755690      1.70262445991293
  N   -1.12517822683286     -0.50936943137348     -1.33852316780687
  H   -2.01858879677185     -0.14691611058821     -1.64415071985255
  H   -0.43634383976193     -0.41610714957371     -2.07353032787971
