15
Coordinates from ORCA-job run
  C   0.74306573546225     -0.26870806905921      0.24805320712741
  C   -0.72137045873676     -0.24433608815909     -0.27216498649269
  Cl  0.95341267372003     -1.83370331356673      1.19874416952123
  H   -0.81104252730087     -1.13920823911589     -0.91342030130946
  N   1.64829907902785     -0.17100592277658     -0.84328660305136
  H   2.60968209751627     -0.09303699242815     -0.53516859566161
  H   1.55903231912533     -0.98326874033034     -1.44357873907085
  C   0.96213537798061      0.82241294047340      1.19708285904669
  N   1.12315522573017      1.68343372762624      1.97907689049650
  N   -0.88435320110268      1.02325285037957     -0.94423246841500
  H   -1.82925204200261      1.08406116709787     -1.30121049868188
  H   -0.21585683125156      1.12942990396833     -1.69463232821853
  N   -1.75337133025235     -0.31989364675238      0.72316708913379
  H   -1.69392847317734     -1.17231586668923      1.26303401779531
  H   -1.68960764473832      0.48288628933220      1.33953628778045
