15
Coordinates from ORCA-job run
  C   0.73316006070470     -0.18675361556541      0.21570961837638
  C   -0.70346371866206      0.30359774769730     -0.09694730642415
  Cl  0.75394527115332     -1.98067325484297      0.28858101491673
  H   -0.61429468212779      1.39777661312646     -0.14362212137865
  N   1.60709138133717      0.21073409181423     -0.86879596301137
  H   1.70408500861861      1.22218302448028     -0.85456695686408
  H   2.52956010157254     -0.18997623595221     -0.73714823229289
  C   1.17184486360162      0.31001794739916      1.52884798813299
  N   1.60069097537098      0.77772469495311      2.51841705864856
  N   -1.55178060942201     -0.01441434921580      1.02185958643696
  H   -2.46347061042328      0.39799791073589      0.86722140958824
  H   -1.67434543615383     -1.01841057264732      1.09298087629639
  N   -1.21449286326132     -0.14132601902197     -1.37589894052316
  H   -1.34297848290943     -1.14732585763628     -1.35306009573107
  H   -0.53355125939921      0.05784787467554     -2.10157793617089
