15
Coordinates from ORCA-job run
  C   0.79715813298914     -0.02122475687600      0.24626090059243
  C   -0.66185960864020      0.26951275953684     -0.19998971621213
  Cl  0.93071241852653     -1.87118731396749      0.49291233143361
  H   -0.69472072029503      1.35937751111209     -0.30008862168317
  N   1.69447679761172      0.49055747423955     -0.70036738346680
  H   2.66218332608303      0.27371039293997     -0.50547960181951
  H   1.41005945173533      0.20289627991515     -1.62934998839973
  C   1.03928073854970      0.54924562832273      1.57245972973021
  N   1.18588199544343      1.04204988648760      2.62860870067002
  N   -1.69758027148171     -0.11597615028646      0.72872868835991
  H   -1.66779036670256      0.45046483849846      1.56834793816460
  H   -1.60035935433725     -1.08884643095106      0.99512657914310
  N   -0.81211445355656     -0.29847897111027     -1.52443243888779
  H   -0.91610940905320     -1.30476355072731     -1.44733504963388
  H   -1.66921867687236      0.06166240286619     -1.92640206799088
