15
Coordinates from ORCA-job run
  C   0.80097961105245     -0.39343175763036      0.29972053842543
  C   -0.63575103139291     -0.30060719076000     -0.25091552285038
  Cl  0.96096613007817     -1.88204634472128      1.30116415073534
  H   -0.74791514601069     -1.18906232624802     -0.88814176976191
  N   1.70101987506725     -0.49748041212896     -0.81102091234721
  H   2.66438367221717     -0.43020959789738     -0.50651744620535
  H   1.47878516293176      0.26083541182114     -1.44854807357803
  C   1.06504639579029      0.75538783141597      1.18482404312140
  N   1.32803773799198      1.71564211626108      1.80961361696527
  N   -0.68498931876482      0.87238695876146     -1.10164697932006
  H   -1.38676626122548      0.77023647518722     -1.82275949331940
  H   -0.91447137274611      1.68024808529791     -0.53172397553387
  N   -1.57943481735098     -0.20045640743269      0.84665715893761
  H   -2.51938276247587     -0.14570837474557      0.47303125992612
  H   -1.52950787516221     -1.01473446718052      1.44726340480503
