15
Coordinates from ORCA-job run
  C   0.84473946024146     -0.31732768871679      0.33939535208368
  C   -0.62871224339189     -0.45646247097576     -0.15176170219564
  Cl  1.26610787594351     -1.76844398983312      1.29751733111213
  H   -0.66298989012914     -1.41171064841640     -0.68903140222487
  N   1.83810097895762     -0.19308745596250     -0.70094705708045
  H   1.71031307315084      0.66629652071648     -1.22032815894404
  H   1.78943264042759     -0.98996656366030     -1.32581399576699
  C   0.92129228666698      0.87150777453303      1.19856563333060
  N   0.88163028987072      1.85971305921833      1.83273190805538
  N   -1.02302688650964      0.58386404320490     -1.08736572110473
  H   -0.96760131000408      1.50463055211430     -0.66581608350512
  H   -0.48516604506834      0.56818440561703     -1.94403922800646
  N   -1.51129873062847     -0.54330412243477      0.98315338681017
  H   -2.45148107186091     -0.70740095312794      0.64450491980825
  H   -1.52134042766625      0.33550753772349      1.49123481762808
