15
Coordinates from ORCA-job run
  C   0.80618752306468     -0.29054633907791      0.26475742213064
  C   -0.67627832012975     -0.29414035872315     -0.17631254798904
  Cl  1.13721880965732     -1.86450059041360      1.12164500444901
  H   -0.79877168962320     -1.20640396816993     -0.78342261647713
  N   1.65337347293366     -0.10186860223634     -0.87236155027153
  H   2.61786726170135      0.03025037980743     -0.59278949170928
  H   1.60345447575354     -0.91997119773114     -1.47026997592714
  C   1.02993880914399      0.78239127522322      1.23584396171827
  N   1.21189859457461      1.63917036323333      2.01761548051988
  N   -0.89787113847342      0.95325555789456     -0.88689574521333
  H   -0.20064977345868      1.08925076224601     -1.60819646481526
  H   -1.82206956691025      0.95383595649867     -1.30032897297287
  N   -1.53223491880985     -0.41147910670928      0.97443956405588
  H   -2.39961956666396     -0.87613982728158      0.74755569403035
  H   -1.73244397276004      0.51689569543971      1.32872023847153
