15
Coordinates from ORCA-job run
  C   0.67842015099507     -0.16974585478910      0.55205011509701
  C   -0.81067843901119      0.06713044688013      0.16098378008868
  Cl  0.74682065575187     -1.31377411047487      1.92995447125785
  H   -1.32939872353604      0.42579378922771      1.06010339430064
  N   1.35114818977293     -0.74796723652985     -0.57651058753237
  H   1.20655599441973     -0.12267508136728     -1.36450756175651
  H   2.34077444941945     -0.86511665194119     -0.39691665115206
  C   1.25892285754172      1.09977417331726      1.02230516672271
  N   1.69354051364088      2.14851666825506      1.32947508854015
  N   -1.47803990971404     -1.11937411656142     -0.30469384285211
  H   -0.85262315219786     -1.62388140037827     -0.92447238155869
  H   -1.69922322029097     -1.72434484718688      0.47508991422050
  N   -0.78042624213036      1.02039870013343     -0.93992377979446
  H   -0.65840408267240      1.96806732795188     -0.60251051254110
  H   -1.66938904198879      0.95719819346339     -1.42042661304025
