15
Coordinates from ORCA-job run
  C   0.80332915170547     -0.30535555144346      0.33058843686491
  C   -0.66485070352872     -0.33457295006153     -0.17944231455343
  Cl  1.05002486346132     -1.77418732944749      1.35614200565669
  H   -0.73832905932765     -1.25859260421355     -0.77981812836802
  N   1.80780038163127     -0.33209343550215     -0.69829743968818
  H   1.61086958031579     -1.05938048882764     -1.37580328879774
  H   1.89379764379528      0.56741880179334     -1.15284260621466
  C   1.00437032241190      0.88998168421301      1.15443414034517
  N   1.16248401843141      1.89474122409046      1.74114855333874
  N   -0.99407130350976      0.77579726982898     -1.03855797583159
  H   -0.91342632281922      1.64979384207294     -0.53068459629918
  H   -0.42881164730554      0.79977156068203     -1.87527561705990
  N   -1.56995255252543     -0.25873001065196      0.94183252732095
  H   -2.51283638623774     -0.17147811482304      0.58378656820851
  H   -1.51039798649837     -1.08311389770994      1.52378973507771
