15
Coordinates from ORCA-job run
  C   0.80846414725885     -0.13711363004221      0.29672420594251
  C   -0.66335768343583      0.23031192199133     -0.04881293415556
  Cl  0.90764700076452     -1.94063485124894      0.43131392972931
  H   -0.66279758363513      1.32656345205449     -0.09810730901205
  N   1.79169241049083      0.27067735206720     -0.67054858363898
  H   1.93499219798740      1.27303906974100     -0.63439395984470
  H   1.50739341260721     -0.01096010401099     -1.60048948386823
  C   1.16896243884301      0.44075704206254      1.59395388903092
  N   1.49005524483357      0.96689451411800      2.59346199497531
  N   -1.50960348362928     -0.16032763407642      1.04961249414141
  H   -1.52938342163184     -1.17017346207380      1.13270325831297
  H   -2.45359008616993      0.15067874869262      0.85501347847516
  N   -1.12004776342094     -0.24491986174039     -1.34000486723877
  H   -0.97269520487159     -1.24163600939658     -1.44457272168979
  H   -0.69573162599085      0.24784345186215     -2.11485339115951
