15
Coordinates from ORCA-job run
  C   0.85270930018707     -0.29500350884469      0.39546579870701
  C   -0.55863297613682     -0.28080331815434     -0.24033211564169
  Cl  1.00623974769378     -1.76449190407486      1.41666399523897
  H   -0.59277388870284     -1.17463380959236     -0.88396063640829
  N   1.92849986181509     -0.31517928153839     -0.56583433606486
  H   1.72407788710869      0.41404656238501     -1.24399683645613
  H   1.92326631524019     -1.20939348393225     -1.04534543235576
  C   0.99777223630932      0.89155744375291      1.24921505713059
  N   1.10420346918771      1.87767946910433      1.87740108043696
  N   -0.60863335499037      0.88505536222666     -1.09867302344833
  H   -1.26989939682492      0.75701479723434     -1.85301841253190
  H   -0.89670064025317      1.68600033266312     -0.54564741778250
  N   -1.57804117576952     -0.22930437519152      0.78907169205761
  H   -2.49442378744625     -0.19906913748481      0.35882628687037
  H   -1.53766359741797     -1.04247514855316      1.39116430024798
