15
Coordinates from ORCA-job run
  C   0.71697143697394     -0.43899010293649      0.23913287550115
  C   -0.76272214136690     -0.21000823277739     -0.17982795379373
  Cl  1.27526189956265     -2.00048857752643     -0.60129211188696
  H   -1.30857066869249     -1.13480096077201      0.04598286233207
  N   1.47648792225129      0.69619604054414     -0.09385432424194
  H   2.46079974731429      0.59876490429195      0.11338974701409
  H   1.30900165874379      0.93663702529409     -1.06478037835463
  C   0.79132084177890     -0.72346791912195      1.67262890568594
  N   0.79590481986869     -0.93317346350956      2.82842460894698
  N   -0.75123113922784      0.14991993552044     -1.58733760165321
  H   -1.64284183912664      0.58139382674042     -1.79586124013768
  H   -0.63640715558953     -0.67113872099744     -2.16804236182936
  N   -1.38331699426082      0.87212773371841      0.54284586597764
  H   -0.76100438747008      1.67229365703910      0.55127880759090
  H   -1.58065400075928      0.60373485449271      1.49831229884877
