19

C	0.0	0.0	0.0
C	-0.47942	0.131069	-1.465823
Br	1.974953	0.0	0.0
H	-1.571	0.058931	-1.378886
C	-0.441489	1.163177	0.874877
H	-0.152911	0.978468	1.914091
H	-0.002986	2.11166	0.560813
H	-1.533329	1.212111	0.813319
N	-0.456011	-1.289245	0.478979
H	-0.22326	-1.378557	1.46322
H	-1.479186	-1.248669	0.417586
N	-0.039986	-0.957477	-2.335107
H	0.974214	-0.924328	-2.388156
H	-0.263522	-1.826148	-1.858523
C	-0.15259	1.463749	-2.120234
H	0.927112	1.643275	-2.150339
H	-0.526112	1.432277	-3.14572
H	-0.635631	2.296035	-1.606015
Br	-3.901798	0.0	0.0
