19

C	0.0	0.0	0.0
C	-0.329285	0.050956	-1.542471
Br	1.974363	0.0	0.0
H	0.409172	0.732704	-1.979118
C	-0.450702	1.268936	0.701373
H	-0.082411	1.272136	1.728669
H	-0.075793	2.154668	0.183688
H	-1.544975	1.288201	0.713228
N	-0.497968	-1.126464	0.735703
H	-1.503833	-0.999762	0.856112
H	-0.347723	-1.985949	0.22171
N	-1.632017	0.566842	-1.903839
H	-2.399699	0.061085	-1.463172
H	-1.736865	1.527304	-1.601148
C	-0.170944	-1.317622	-2.196339
H	-0.224315	-1.195947	-3.279157
H	0.775132	-1.798949	-1.937774
H	-0.999616	-1.969075	-1.90262
Br	-4.329542	0.0	0.0
