19

C	0.0	0.0	0.0
C	-0.250328	0.234103	-1.527202
Br	2.006305	0.0	0.0
H	0.310915	-0.575889	-2.026968
C	-0.526213	1.110423	0.873789
H	-0.242854	0.934233	1.914157
H	-0.154102	2.074293	0.531864
H	-1.619319	1.097589	0.793116
N	-0.454133	-1.265521	0.481006
H	-0.34909	-1.977655	-0.232751
H	-1.440632	-1.190969	0.723933
N	0.230931	1.557997	-1.927529
H	1.236017	1.550318	-2.025264
H	-0.170679	1.790872	-2.824666
C	-1.70199	0.111499	-1.950396
H	-1.760923	0.173256	-3.044714
H	-2.148056	-0.832238	-1.645162
H	-2.331679	0.887554	-1.522525
Br	-4.543965	0.0	0.0
