19

C	0.0	0.0	0.0
C	-0.344453	0.805587	-1.306737
Br	1.978355	0.0	0.0
H	0.416532	1.590946	-1.361331
C	-0.428556	0.75649	1.249369
H	-0.051212	0.253108	2.144004
H	-0.054719	1.784433	1.249834
H	-1.522584	0.757226	1.280423
N	-0.512436	-1.341692	-0.062411
H	-0.458063	-1.762702	0.860074
H	-1.508104	-1.262977	-0.280773
N	-1.623701	1.482347	-1.339349
H	-1.693861	2.15561	-0.586446
H	-2.414963	0.853577	-1.213988
C	-0.225609	-0.072183	-2.547024
H	0.701861	-0.645036	-2.556602
H	-1.05998	-0.77515	-2.593446
H	-0.275598	0.567958	-3.430289
Br	-4.300125	0.0	0.0
