18

C	-0.533519	-0.019291	-1.426843
C	0.0	0.0	0.0
Cl	0.388168	1.323633	-2.350661
H	1.09405	0.0	0.0
N	-0.223606	-1.262535	-2.115285
H	0.141129	-1.075561	-3.039848
H	-1.085956	-1.789266	-2.188008
N	-1.935697	0.254448	-1.447665
H	-2.071677	1.042893	-0.819362
H	-2.221473	0.511939	-2.385024
C	-0.478166	-1.22963	0.753337
H	-1.570442	-1.266723	0.851275
H	-0.128383	-2.126141	0.2412
H	-0.027073	-1.22201	1.750535
N	-0.489575	1.244898	0.648537
H	-0.77161	1.027351	1.59663
H	0.320772	1.850483	0.723175
F	2.70301	0.0	0.0
