14
Coordinates from ORCA-job run
  C   0.63123306723256     -0.43720447201470     -0.59478079923129
  C   -0.83085691849236     -0.54332768289201     -0.18681660162081
  Cl  1.21213157833436     -2.07235035342215     -1.07826710387047
  H   -0.90751767768104     -1.23252029936988      0.66064684387295
  H   0.71643330079088      0.17219718129495     -1.49860404395972
  H   -1.38630681286747     -0.99807861119415     -1.01207411372315
  C   1.54166921456881      0.10658190288767      0.48940278944028
  H   1.27389777991158      1.13784446734805      0.73050301034219
  H   1.45837438520308     -0.49941070524465      1.39470268886058
  H   2.58247229763999      0.09384825218676      0.16305128926496
  C   -1.44740660334965      0.80807856242812      0.16713739807687
  H   -1.30624187460778      1.53092933788218     -0.64145958428993
  H   -1.01684208453395      1.22927195533734      1.07719877666382
  H   -2.52203965214901      0.70314046477248      0.33135945017371
