14
Coordinates from ORCA-job run
  C   0.66846873375063     -0.50966923253674     -0.57123178700241
  C   -0.66081095560388      0.20880266422616     -0.76880289845008
  Cl  0.37702378193016     -2.25464531231679     -0.22309225331041
  H   -1.21650125955477     -0.30861644889188     -1.55627211700105
  H   1.21336161793329     -0.50595395661899     -1.51808097321614
  H   -0.42733795001629      1.20927719999987     -1.15415363083782
  C   1.54041386047961      0.07553655443643      0.52351754650926
  H   1.07511047674616     -0.03950871158906      1.50288981554129
  H   1.70219076848989      1.14125207233575      0.33485774687101
  H   2.51069078730572     -0.42245440050520      0.55032860158902
  C   -1.52366442929958      0.32731741970714      0.48240993708464
  H   -1.72312267649109     -0.65352658376098      0.91728173212558
  H   -2.48396217450924      0.78503173009920      0.23523537844069
  H   -1.05086058116061      0.95015700541507      1.24411290165641
