15

C	0.0	0.0	0.0
C	-0.520261	0.092467	-1.432441
Cl	1.804606	0.0	0.0
H	-1.614446	0.109457	-1.251846
H	-0.233234	-0.825087	-1.966849
C	-0.498718	1.151976	0.855049
H	-0.11799	1.064052	1.87571
H	-0.157005	2.085097	0.406079
H	-1.594814	1.04372	0.803932
C	-0.400661	-1.287114	0.579767
N	-0.598636	-2.33049	1.081562
N	-0.046582	1.315585	-2.074799
H	-0.717274	1.596633	-2.777129
H	0.841561	1.151921	-2.532337
F	-2.866749	0.0	0.0
