15

C	0.0	0.0	0.0
C	-0.59101	0.195626	-1.398126
Cl	1.79431	0.0	0.0
H	-1.610857	-0.200364	-1.273624
H	0.00991	-0.368002	-2.118116
C	-0.521047	1.017414	1.000859
H	-1.617272	0.891808	0.941401
H	-0.132687	0.801966	1.999106
H	-0.197043	2.010345	0.685613
C	-0.360231	-1.358645	0.444329
N	-0.546961	-2.458515	0.810748
N	-0.62368	1.619674	-1.750506
H	-1.525304	1.944626	-1.412413
H	-0.646035	1.698453	-2.760189
F	-2.909011	0.0	0.0
