15

C	-0.484732	0.066429	-1.447045
C	0.0	0.0	0.0
F	-0.296105	-1.185242	-2.039764
H	1.094953	0.0	0.0
H	-1.56796	0.253883	-1.461703
C	0.273198	1.107534	-2.233964
H	0.093205	2.093192	-1.802888
H	1.342636	0.891444	-2.179417
H	-0.055417	1.098952	-3.276367
C	-0.493415	-1.221966	0.653832
N	-0.940306	-2.138117	1.238469
N	-0.425562	1.218277	0.695416
H	-1.339991	1.084965	1.115747
H	0.239005	1.411177	1.437768
Br	3.552362	0.0	0.0
