15

C	-0.405181	0.006073	-1.460121
C	0.0	0.0	0.0
F	-1.811512	0.042063	-1.543379
H	1.095549	0.0	0.0
H	-0.045007	0.949213	-1.87867
C	0.112809	-1.183896	-2.228293
H	1.200952	-1.221422	-2.134561
H	-0.312004	-2.107851	-1.829901
H	-0.160079	-1.099922	-3.282421
C	-0.476992	-1.229541	0.660939
N	-0.870376	-2.180251	1.228942
N	-0.46486	1.217832	0.655003
H	-1.458128	1.146182	0.84716
H	0.028528	1.32686	1.533998
Br	3.515973	0.0	0.0
