15

C	-0.465151	0.043632	-1.457584
C	0.0	0.0	0.0
F	-0.117763	-1.15761	-2.077634
H	1.09622	0.0	0.0
H	-1.565814	0.099565	-1.491731
C	0.17319	1.184734	-2.222358
H	-0.196376	2.14969	-1.862088
H	-0.076574	1.097209	-3.282221
H	1.259982	1.141996	-2.096212
C	-0.501604	-1.228013	0.632883
N	-0.960146	-2.192846	1.121069
N	-0.427495	1.154462	0.786479
H	0.183094	1.934918	0.5841
H	-1.383952	1.410647	0.570165
Br	3.515066	0.0	0.0
