15

C	-0.478814	0.005186	-1.451524
C	0.0	0.0	0.0
F	-0.067999	1.223157	-2.005719
H	1.101157	0.0	0.0
H	0.050827	-0.78203	-1.995685
C	-1.978013	-0.097925	-1.619497
H	-2.238981	0.030949	-2.67239
H	-2.334899	-1.074334	-1.285625
H	-2.464939	0.676447	-1.026483
C	-0.471234	-1.22375	0.651754
N	-0.856183	-2.206534	1.1666
N	-0.5491	1.176543	0.698719
H	-0.158329	1.976528	0.209853
H	-0.127609	1.19266	1.622382
Br	3.536737	0.0	0.0
