15

C	0.0	0.0	0.0
C	-0.648202	-0.070494	-1.363832
Cl	1.763101	0.0	0.0
H	-0.541326	0.910532	-1.837294
H	-1.75351	-0.191681	-1.102167
C	-0.534709	1.194014	0.751775
H	-0.243312	2.105295	0.224006
H	-0.141171	1.213864	1.766706
H	-1.633315	1.078339	0.74742
N	-0.370507	-1.26863	0.790782
O	-0.717039	-2.253958	0.152231
O	-0.249387	-1.211115	2.008913
C	-0.13731	-1.081696	-2.271788
N	0.27134	-1.85161	-3.060372
H	-3.144443	0.0	0.0
