15

C	0.0	0.0	0.0
C	-0.659945	-0.135275	-1.351247
Cl	1.765792	0.0	0.0
H	-1.780145	-0.138373	-1.046559
H	-0.400248	-1.078568	-1.831503
C	-0.505731	1.214747	0.735775
H	-0.218281	2.108669	0.178022
H	-0.089629	1.257728	1.741108
H	-1.603058	1.112857	0.75928
N	-0.354867	-1.261693	0.810814
O	-0.378028	-1.151505	2.029703
O	-0.493333	-2.308982	0.19014
C	-0.353353	0.984812	-2.214216
N	-0.127919	1.899865	-2.918232
H	-3.069984	0.0	0.0
