15

C	0.0	0.0	0.0
C	-0.666292	0.016055	-1.352655
Cl	1.777101	0.0	0.0
H	-0.41322	-0.868656	-1.937077
H	-1.788439	-0.020218	-1.037686
C	-0.500535	1.124764	0.868744
H	-1.596677	1.016324	0.894483
H	-0.22724	2.073913	0.403524
H	-0.071651	1.066584	1.867168
N	-0.355719	-1.347474	0.655651
O	-0.431955	-2.324133	-0.080964
O	-0.453254	-1.370646	1.876219
C	-0.371526	1.224418	-2.091344
N	-0.159536	2.206745	-2.702759
H	-3.066928	0.0	0.0
