15

C	0.0	0.0	0.0
C	-0.677604	0.033979	-1.346897
Cl	1.76462	0.0	0.0
H	-0.42781	-0.840723	-1.947549
H	-1.800659	-0.010122	-1.019651
C	-0.501201	1.11188	0.88639
H	-0.06806	1.040872	1.882206
H	-0.229548	2.067536	0.4335
H	-1.596771	1.003595	0.914512
N	-0.356231	-1.357521	0.640471
O	-0.434003	-1.40013	1.861169
O	-0.448412	-2.321765	-0.109838
C	-0.396127	1.254012	-2.06973
N	-0.199151	2.245114	-2.672367
H	-3.063943	0.0	0.0
