13

C	0.0	0.0	0.0
C	-0.456253	-0.117767	-1.46014
Br	2.026834	0.0	0.0
H	-0.032947	0.699648	-2.047788
H	-1.553686	-0.008788	-1.420905
C	-0.288072	1.376591	0.435021
N	-0.480002	2.4813	0.788558
N	-0.529472	-0.985979	0.85445
H	-1.178658	-1.583471	0.35761
H	-1.046619	-0.567485	1.614513
C	-0.098449	-1.395107	-2.064949
N	0.200283	-2.418176	-2.558021
Cl	-3.529464	0.0	0.0
