13

C	0.0	0.0	0.0
C	-0.246269	0.006883	-1.553145
Br	2.035239	0.0	0.0
H	0.584128	0.535109	-2.025681
H	-0.185056	-1.037767	-1.876911
C	-0.343781	1.29477	0.59335
N	-0.503156	2.362076	1.059008
N	-0.501016	-1.069999	0.772329
H	-0.333958	-1.943084	0.28164
H	-1.523525	-0.91302	0.811416
C	-1.438684	0.625802	-2.142047
N	-2.135046	1.192824	-2.902092
Cl	-3.320608	0.0	0.0
