13

C	0.0	0.0	0.0
C	-0.217004	-0.017954	-1.541259
Br	2.034649	0.0	0.0
H	0.001726	-1.044103	-1.858484
H	0.553474	0.606623	-1.993272
C	-0.319175	1.29883	0.593184
N	-0.480465	2.349696	1.094183
N	-0.531609	-1.093768	0.704065
H	-1.231095	-0.772161	1.364764
H	-1.043305	-1.690278	0.066297
C	-1.467773	0.413619	-2.177126
N	-2.189729	0.800902	-3.021908
Cl	-3.355029	0.0	0.0
