13

C	0.0	0.0	0.0
C	-0.184682	0.209233	-1.539939
Br	2.034471	0.0	0.0
H	0.244816	-0.682072	-2.009571
H	0.454237	1.045377	-1.833133
C	-0.363443	1.204307	0.750628
N	-0.527672	2.208733	1.338461
N	-0.508318	-1.167645	0.60244
H	-0.361924	-1.956495	-0.018932
H	-1.528519	-1.007066	0.685245
C	-1.476576	0.451339	-2.192978
N	-2.239937	0.661365	-3.063461
Cl	-3.327095	0.0	0.0
