13

C	0.0	0.0	0.0
C	-0.495566	0.190936	-1.439179
Br	1.957978	0.0	0.0
H	-1.595179	0.202641	-1.381584
H	-0.150396	1.15146	-1.8284
C	-0.33897	1.206018	0.786274
N	-0.560484	2.166266	1.428022
N	-0.508154	-1.229581	0.518168
H	-0.250568	-1.329009	1.493644
H	-1.534032	-1.154489	0.459964
C	-0.048301	-0.882082	-2.319942
N	0.28797	-1.717602	-3.072805
Cl	-3.49214	0.0	0.0
