13

C	0.0	0.0	0.0
C	-0.523212	0.263833	-1.413127
Br	2.016912	0.0	0.0
H	-0.28586	-0.601534	-2.039741
H	-1.623258	0.317437	-1.2884
C	-0.324542	1.111138	0.902529
N	-0.509458	2.018712	1.625197
N	-0.524568	-1.196563	0.472454
H	-0.532787	-1.328393	1.468634
H	-0.279772	-2.017021	-0.057981
C	0.011152	1.469007	-2.032009
N	0.414092	2.438888	-2.556734
Cl	-3.635507	0.0	0.0
