13

C	0.0	0.0	0.0
C	-0.497052	0.150162	-1.442885
Br	1.957717	0.0	0.0
H	-0.155232	1.101232	-1.858588
H	-1.596793	0.161652	-1.381347
C	-0.335956	1.23054	0.750866
N	-0.5526	2.21205	1.361149
N	-0.505128	-1.215991	0.554983
H	-0.258668	-1.276309	1.536955
H	-1.530845	-1.147272	0.483142
C	-0.048762	-0.943278	-2.298073
N	0.283129	-1.795571	-3.033541
Cl	-3.492412	0.0	0.0
