13
Coordinates from ORCA-job run
  C   0.82470502618279     -0.42424764430682     -0.61164579363008
  C   -0.45665098972255     -0.79605730050771      0.11795430551503
  H   1.53288287850742     -1.25390510064491     -0.63458091788611
  H   -0.19378230414311     -1.19365318499984      1.10113373417356
  H   0.63855270219086     -0.05236873848942     -1.61836010834096
  H   -0.92959382136615     -1.60771399881188     -0.44392576912313
  N   1.50254282350304      0.68412267024318      0.12283200110844
  O   1.56839555356063      1.78194344245289     -0.42670919581840
  O   1.91336967508463      0.42290930334159      1.25131002368917
  C   -1.41410847923284      0.38290715849892      0.25655237482449
  H   -1.64519977272706      0.82269179477819     -0.71695291207681
  H   -2.35224076981679      0.06496066908541      0.71533082474505
  H   -0.98887252202087      1.16741092936039      0.88606143281975
