13
Coordinates from ORCA-job run
  C   0.95341336124920     -0.29204733094243      0.48938023814575
  C   -0.44536058184088     -0.79347121739903      0.16645333852643
  H   0.98368515112284      0.29873662208159      1.40398086034849
  H   -0.39540206352994     -1.40513568646879     -0.73751984471444
  H   1.67536225130929     -1.10868468090275      0.53687262914245
  H   -0.75477817037284     -1.45036101657964      0.98556063525277
  N   1.41487193456910      0.61151990119735     -0.60518011874405
  O   1.56649217298823      1.80278251299628     -0.34171161620026
  O   1.57218196154572      0.09739885634529     -1.71035744821423
  C   -1.44758484010037      0.34230204658462     -0.01124958970242
  H   -1.47200034146612      0.99069853092855      0.86823686193070
  H   -1.19788765874904      0.96019210867833     -0.87635251769892
  H   -2.45299317672521     -0.05293064651936     -0.16811342807228
