15

C	-0.550179	-0.060255	-1.410258
C	0.0	0.0	0.0
F	-1.998849	-0.108038	-1.300047
H	1.089821	0.0	0.0
H	-0.299454	-1.046422	-1.810055
N	-0.137921	0.94631	-2.300308
H	-0.707986	0.939981	-3.132693
H	-0.135655	1.848718	-1.844918
N	-0.391851	-1.13124	0.78048
H	0.390509	-1.763356	0.833912
H	-1.228884	-1.587203	0.446437
N	-0.490127	1.266924	0.654138
O	-1.130006	1.220799	1.698791
O	-0.188836	2.331225	0.094803
F	2.55949	0.0	0.0
