15

C	-0.600295	-0.044197	-1.390892
C	0.0	0.0	0.0
F	0.070523	-1.049117	-2.11252
H	1.090273	0.0	0.0
H	-0.422193	0.883743	-1.92922
N	-1.996377	-0.329207	-1.322116
H	-2.080912	-1.204818	-0.816146
H	-2.364113	-0.45847	-2.256889
N	-0.432329	-1.131427	0.785636
H	-1.115578	-0.830684	1.471545
H	0.386346	-1.459084	1.285501
N	-0.412347	1.295167	0.622796
O	-0.278092	2.318517	-0.04851
O	-0.827904	1.296449	1.786592
F	2.557364	0.0	0.0
