15

C	-0.447787	-0.019228	-1.452002
C	0.0	0.0	0.0
F	-0.084872	-1.25708	-1.976783
H	1.091054	0.0	0.0
H	0.106022	0.723393	-2.031253
N	-1.889937	0.053957	-1.593187
H	-2.115682	-0.011344	-2.580301
H	-2.170739	0.974425	-1.276903
N	-0.499173	-1.097366	0.766206
H	-1.255157	-1.556961	0.274605
H	0.263426	-1.74206	0.916003
N	-0.412758	1.300171	0.614368
O	-0.637934	2.252946	-0.15399
O	-0.432369	1.402153	1.834996
F	2.561033	0.0	0.0
