15

C	-0.505552	-0.048103	-1.435027
C	0.0	0.0	0.0
F	-0.069118	-1.240952	-2.001881
H	1.089834	0.0	0.0
H	-0.0362	0.745754	-2.018971
N	-1.943118	-0.047053	-1.487344
H	-2.342681	0.438298	-0.693405
H	-2.281932	0.369827	-2.344317
N	-0.472747	-1.068726	0.819565
H	0.310421	-1.692876	0.958831
H	-1.240855	-1.57014	0.394953
N	-0.495083	1.332642	0.503632
O	-1.43057	1.384757	1.310378
O	0.024801	2.32806	-0.004342
F	2.584693	0.0	0.0
