15

C	0.0	0.0	0.0
C	-0.212197	0.069308	-1.541765
F	1.391445	0.0	0.0
H	0.445671	0.907368	-1.798095
H	-0.323451	-0.948656	0.437298
N	-0.470316	1.183697	0.638572
H	-0.575121	1.012422	1.634431
H	-1.411376	1.388998	0.308124
C	-1.473045	0.415044	-2.212204
N	-2.171475	0.811203	-3.069615
C	0.361367	-1.188818	-2.211737
H	-0.212525	-2.074341	-1.916153
H	1.402573	-1.328093	-1.925314
H	0.300784	-1.099983	-3.299017
Br	-3.503736	0.0	0.0
