15

C	0.0	0.0	0.0
C	-0.49291	-0.226647	-1.427484
F	1.406544	0.0	0.0
H	-1.580613	-0.360916	-1.311995
H	-0.337029	-0.824377	0.631611
N	-0.48431	1.231728	0.50499
H	0.141359	1.991081	0.279645
H	-0.703584	1.206697	1.486923
C	0.102991	-1.444295	-1.978303
N	0.593542	-2.406216	-2.441459
C	-0.222597	0.971003	-2.337697
H	-0.552627	0.758126	-3.355787
H	-0.791704	1.823138	-1.965458
H	0.843157	1.214028	-2.362603
Br	-3.871387	0.0	0.0
