15

C	0.0	0.0	0.0
C	-0.485874	-0.206885	-1.436668
F	1.381332	0.0	0.0
H	-1.578178	-0.311964	-1.374104
H	-0.29449	-0.869792	0.602396
N	-0.480692	1.25143	0.502281
H	-1.500318	1.219709	0.413206
H	-0.280474	1.294637	1.495797
C	0.072591	-1.454687	-1.957835
N	0.533895	-2.440178	-2.399639
C	-0.117973	0.965372	-2.349311
H	0.963101	1.117488	-2.357609
H	-0.594646	1.872047	-1.980673
H	-0.45794	0.771544	-3.368927
Br	-3.72909	0.0	0.0
