15

C	0.0	0.0	0.0
C	-0.475905	-0.120951	-1.449317
F	1.395975	0.0	0.0
H	-1.567254	-0.239993	-1.401516
H	-0.287428	-0.906553	0.548244
N	-0.480255	1.217072	0.576522
H	-1.500887	1.183348	0.488991
H	-0.280819	1.199113	1.570875
C	0.095957	-1.329542	-2.04424
N	0.565952	-2.2823	-2.544464
C	-0.116401	1.109198	-2.285314
H	0.962352	1.278582	-2.270133
H	-0.44168	0.970631	-3.318853
H	-0.613081	1.984554	-1.869795
Br	-3.718399	0.0	0.0
