15

C	0.0	0.0	0.0
C	-0.475883	-0.260037	-1.42897
F	1.406504	0.0	0.0
H	-1.565436	-0.403398	-1.339409
H	-0.334967	-0.809796	0.64925
N	-0.487341	1.240533	0.477444
H	-0.675543	1.237029	1.466836
H	0.126077	1.998257	0.217326
C	0.148132	-1.479481	-1.943585
N	0.666155	-2.443621	-2.36928
C	-0.190863	0.92167	-2.357014
H	-0.477859	0.680821	-3.381951
H	0.872139	1.177684	-2.348449
H	-0.783102	1.774653	-2.026713
Br	-3.885433	0.0	0.0
