15

C	0.0	0.0	0.0
C	-0.484408	-0.009042	-1.470061
Br	1.933268	0.0	0.0
H	-0.081289	0.866899	-1.978821
N	-0.495736	1.31088	0.632917
O	-0.487142	1.351153	1.870777
O	-0.485279	2.29429	-0.123914
C	-0.503505	-1.093352	0.80081
N	-0.882667	-1.986934	1.478495
C	-1.958281	-0.010982	-1.496121
N	-3.148751	-0.004379	-1.587838
N	0.031483	-1.232282	-2.196756
O	-0.42956	-2.307314	-1.827821
O	0.794818	-1.036844	-3.137394
H	-1.578119	0.0	0.0
