15

C	0.0	0.0	0.0
C	-0.415702	0.091879	-1.476892
Br	1.915152	0.0	0.0
H	-1.514014	0.276424	-1.42564
N	-0.313702	1.313709	0.760113
O	-1.384556	1.841765	0.487007
O	0.463999	1.670408	1.664893
C	-1.019552	-0.946346	0.668379
N	-0.955155	-1.931901	1.326465
C	-0.145287	-1.179128	-2.129651
N	0.040379	-2.224202	-2.634116
N	0.196136	1.211034	-2.265576
O	0.327554	2.295424	-1.706105
O	0.458717	0.978235	-3.447016
H	-2.189324	0.0	0.0
