15

C	0.0	0.0	0.0
C	-0.518241	0.009977	-1.456533
Br	1.915213	0.0	0.0
H	-1.599475	0.225337	-1.462769
N	-0.546535	1.306597	0.767457
O	0.233937	1.97859	1.399861
O	-1.767918	1.460455	0.706325
C	-0.513037	-1.152192	0.700008
N	-0.890229	-2.113281	1.291984
C	-0.272836	-1.259709	-2.116139
N	-0.097749	-2.304402	-2.624565
N	0.116264	1.154431	-2.214315
O	-0.009927	2.249479	-1.650569
O	0.320651	0.990381	-3.423421
H	-1.552338	0.0	0.0
