20

C	-0.451206	0.075873	-1.45388
C	0.0	0.0	0.0
Br	0.158337	-1.677786	-2.402168
H	1.094993	0.0	0.0
N	-1.861736	0.196043	-1.598227
H	-2.33053	-0.572715	-1.134554
H	-2.119912	0.181719	-2.578141
C	0.285614	1.155225	-2.223808
H	0.095119	1.071966	-3.297339
H	-0.063801	2.133612	-1.883983
H	1.356515	1.058052	-2.024586
C	-0.520389	-1.201313	0.777976
H	-0.301747	-2.139682	0.267024
H	-1.600889	-1.142964	0.972553
H	-0.013191	-1.229024	1.746937
C	-0.39309	1.289781	0.732425
H	-0.050238	1.210616	1.768835
H	-1.474329	1.461401	0.725797
H	0.108494	2.160201	0.305213
H	3.007272	0.0	0.0
