20

C	-0.589637	0.042717	-1.408546
C	0.0	0.0	0.0
Br	0.269429	1.525019	-2.449394
H	1.095148	0.0	0.0
N	-0.280328	-1.163993	-2.144699
H	-0.58894	-1.96829	-1.61283
H	-0.763974	-1.155427	-3.035709
C	-2.082321	0.380111	-1.431361
H	-2.630277	-0.383617	-0.866819
H	-2.294723	1.35758	-0.997652
H	-2.448903	0.377626	-2.462041
C	-0.364916	-1.300199	0.725411
H	-1.444232	-1.497368	0.777
H	0.14783	-2.155817	0.278759
H	0.011648	-1.22819	1.749662
C	-0.42186	1.195873	0.850109
H	0.234754	1.234023	1.724973
H	-0.287061	2.135678	0.308311
H	-1.46107	1.133993	1.199243
H	2.98176	0.0	0.0
