14
Coordinates from ORCA-job run
  C   -0.42944474575445      0.14745538474062     -0.36860394415456
  C   0.45280275202288     -1.07307783168084     -0.57749418207810
  F   -1.27670102842601      0.22493809912743     -1.44837769945091
  H   -0.17855075377263     -1.95289387535431     -0.70400133406505
  H   1.01960210812249     -0.91566612691983     -1.49904237212316
  N   -1.36070427869231     -0.10583548848349      0.82253333589271
  O   -1.79298375527057      0.88120641957871      1.40800947697807
  O   -1.65890998549366     -1.27408761718323      1.05383606497583
  C   0.30305983379933      1.44596961949980     -0.19489369090001
  H   -0.41168451389635      2.26275965161204     -0.12185046632230
  H   0.94532979240382      1.60298069533784     -1.06333354709120
  H   0.91561073211101      1.42751267338772      0.70698336959824
  C   1.36747622510511     -1.27025506168919      0.54127929611200
  N   2.10409761774136     -1.40100654197326      1.44495569262845
