14
Coordinates from ORCA-job run
  C   -0.39666442578500      0.00492327396180     -0.23787548997508
  C   0.50512972398492     -1.07410380620049      0.35391110293838
  F   -0.85307962056923     -0.41769003666194     -1.44592750272624
  H   0.78132208720409     -0.80300339561731      1.37416370795851
  H   -0.05246236521193     -2.01511870716076      0.38618901348182
  N   -1.60626122718824      0.10870931572910      0.68836094587175
  O   -2.71493746055170     -0.07390423349766      0.20809406145779
  O   -1.34289885212364      0.38799247789861      1.85472033252703
  C   0.21836279222497      1.37388763244622     -0.36832157335123
  H   -0.52403998104832      2.06002406144380     -0.77975474755418
  H   0.55149310857136      1.73915564505477      0.60243254235162
  H   1.06599988174068      1.32134859243380     -1.05285332385087
  C   1.70208393099495     -1.24736684012253     -0.46299096147982
  N   2.66595240775711     -1.36585397970741     -1.12114810764950
