14
Coordinates from ORCA-job run
  C   -0.39428097280837      0.02594702256836     -0.24030168585687
  C   0.47659166638344     -1.10143069528050      0.30627860946558
  F   -0.84909473318731     -0.32735987965329     -1.47097502784089
  H   0.75097290207094     -0.88518574393492      1.34003119015840
  H   -0.10365973496676     -2.02908686654051      0.29058663495860
  N   -1.60972037289343      0.11367624496206      0.67992112852890
  O   -1.35076580797091      0.33012186526795      1.86044860464938
  O   -2.71772621705255     -0.01874976253720      0.18228889480736
  C   0.25395759004891      1.38444255352879     -0.29963106924090
  H   1.10824307589954      1.34364395465945     -0.97640811983780
  H   0.58382069906129      1.69618421178742      0.69055541167757
  H   -0.46703240518519      2.10634811856108     -0.68666555871378
  C   1.67538771400806     -1.26523441877810     -0.50977133498737
  N   2.64130659659235     -1.37531660461057     -1.16635767776818
