14
Coordinates from ORCA-job run
  C   -0.24325038309500      0.18151795897189     -0.29365310282638
  C   0.93953351789154     -0.76089600609033     -0.11516103910634
  F   -0.88959785783059     -0.12612985058350     -1.44822120610138
  H   1.43787913036483     -0.54337883013405      0.83063386374346
  H   1.64391529136864     -0.57946865851969     -0.93160229218376
  N   -1.21741326160788     -0.07524892875513      0.85245328039453
  O   -0.73554956592145      0.06410762877341      1.97306762915724
  O   -2.36957440963088     -0.36937959301080      0.57463660922082
  C   0.12125737830059      1.64472540044547     -0.28110253559771
  H   -0.78482841683206      2.23969829454669     -0.40885792437585
  H   0.60140855947346      1.91420936678876      0.65863118295648
  H   0.79480576661620      1.85280966823514     -1.11398789935821
  C   0.52063474585184     -2.16047484359583     -0.14030708141336
  N   0.18077950505077     -3.28309160707203     -0.15552948450955
