14
Coordinates from ORCA-job run
  C   -0.28052024017485      0.12456152954125     -0.29105128903844
  C   0.99521829165934     -0.68698987635199     -0.10967898464558
  F   -0.97979930381322     -0.37171982910096     -1.34471977816881
  H   1.54215708604233     -0.31479663175734      0.75788482277706
  H   1.61482845494106     -0.54805135405671     -0.99987936944340
  N   -1.13805856514962     -0.07602411812569      0.95530292091505
  O   -0.58883364255635      0.23422166931048      2.00853452779374
  O   -2.27517754040917     -0.49689823261562      0.81090082770968
  C   -0.05432299372651      1.60417803560458     -0.47322054417432
  H   0.46022999794888      2.02418008957055      0.38990829506202
  H   0.53989210213365      1.76711440168065     -1.37380448587882
  H   -1.01844127441113      2.10066066887128     -0.59740568589616
  C   0.70838651208167     -2.10934491566000      0.06188406791945
  N   0.47544111543393     -3.25009143691049      0.20434467506854
