14
Coordinates from ORCA-job run
  C   -0.42909248544425      0.03441864603368     -0.11740117549830
  C   0.53841486329052     -1.09982261482597      0.19314419386164
  F   -1.19298596865668     -0.32526454363147     -1.19916281379499
  H   -0.02636334993237     -2.02699223591127      0.29642691555302
  H   1.04070367758156     -0.90989214698886      1.14546383622047
  N   -1.43259137172801      0.12397388700568      1.04062722043333
  O   -1.66142090937770     -0.91118123926150      1.66084580774672
  O   -1.97987933054083      1.20644419331703      1.21912704104677
  C   0.20427439078676      1.37320758719657     -0.36265549576646
  H   0.76213456659386      1.70241020735573      0.51561203891512
  H   -0.56652748984605      2.10705376103903     -0.58720195539486
  H   0.88447187290763      1.28978040753965     -1.21098517759337
  C   1.52963497481025     -1.23391638905043     -0.86990576362458
  N   2.32822655955532     -1.32921951981786     -1.72393467210450
