14
Coordinates from ORCA-job run
  C   -0.29722468090990      0.11832332205199     -0.27675061753213
  C   0.97330281466967     -0.71120401808765     -0.14738266510267
  F   -1.07416984519910     -0.40539858727021     -1.26051376693816
  H   1.53292758986521     -0.62104656631329     -1.08245898904153
  H   1.58478151044777     -0.31594701087013      0.66507917523475
  N   -1.07257037064589     -0.01446884401339      1.03067353156552
  O   -2.22419111657085     -0.41727664364364      0.97944460966942
  O   -0.44790315602298      0.32603700178488      2.03128893591636
  C   -0.05789008565038      1.58462420128810     -0.53436152314984
  H   0.52591989169919      2.02719453557384      0.27161780974666
  H   -1.01923141170500      2.09610157198201     -0.60849145521401
  H   0.47199519588848      1.69983941434270     -1.48128853378755
  C   0.67344593475654     -2.11912023644886      0.10271232123885
  N   0.42980772937725     -3.24765814037636      0.31043116739433
