14
Coordinates from ORCA-job run
  C   -0.44901920005440      0.07142137732556     -0.39797423277066
  C   0.52966153603140     -1.09973456470897     -0.45685768280740
  F   -1.16589781487725      0.05033852016203     -1.55869112767976
  H   -0.02057316172523     -2.04057144591018     -0.37433575589049
  H   0.98510076541468     -1.07058265893320     -1.45114209818024
  N   -1.44613122257784     -0.16340300662047      0.73000859708981
  O   -2.61565758883772      0.12025607046078      0.51489446827997
  O   -0.96535258855524     -0.57917461667163      1.77972635180650
  C   0.16570045381593      1.43128807685367     -0.19475513265437
  H   0.88273318668276      1.62567944374571     -0.99447360427725
  H   -0.62412301204963      2.18318670968986     -0.23663368567501
  H   0.67614570975108      1.48472027769719      0.76679033533463
  C   1.58492200482473     -1.04413290585064      0.54817830646105
  N   2.46149093215674     -0.97029127723971      1.32426526096322
