19

C	-0.248611	0.024258	-1.501688
C	0.0	0.0	0.0
F	-1.607749	-0.063134	-1.830237
H	1.088318	0.0	0.0
C	0.338512	1.323827	-2.030253
H	1.369282	1.369143	-1.673474
H	0.325682	1.306987	-3.120657
H	-0.226248	2.188052	-1.684263
C	0.485682	-1.146776	-2.136028
H	1.49338	-1.165222	-1.714208
H	-0.016138	-2.090851	-1.925043
H	0.524966	-0.993785	-3.216996
N	-0.568587	-1.189384	0.675733
O	-0.032297	-2.26902	0.43923
O	-1.539037	-1.034893	1.421632
N	-0.518718	1.173256	0.750659
O	-1.446753	1.837971	0.282488
O	0.023042	1.38694	1.835953
F	2.557248	0.0	0.0
