19

C	-0.269734	-0.078076	-1.49572
C	0.0	0.0	0.0
F	-1.635775	-0.160955	-1.79987
H	1.088316	0.0	0.0
C	0.29164	1.193734	-2.112519
H	1.319078	1.306585	-1.759131
H	0.270154	1.102475	-3.201396
H	-0.293446	2.068478	-1.824998
C	0.47313	-1.279875	-2.058452
H	0.475245	-1.227035	-3.150436
H	0.001834	-2.208784	-1.747111
H	1.496188	-1.225421	-1.674444
N	-0.510415	-1.114465	0.834242
O	-0.312565	-0.99738	2.042569
O	-1.058963	-2.081468	0.305707
N	-0.579269	1.23389	0.589916
O	0.144994	2.223685	0.667493
O	-1.768065	1.200923	0.914841
F	2.554578	0.0	0.0
