19

C	-0.260909	-0.021479	-1.501381
C	0.0	0.0	0.0
F	-1.622416	0.096425	-1.820142
H	1.088304	0.0	0.0
C	0.494431	1.130655	-2.146698
H	0.516522	0.977745	-3.228173
H	0.015314	2.083802	-1.932619
H	1.506611	1.126515	-1.73659
C	0.292063	-1.335374	-2.032363
H	-0.295779	-2.182513	-1.683033
H	1.324274	-1.410241	-1.678231
H	0.274498	-1.32128	-3.12491
N	-0.518078	-1.177909	0.746777
O	0.063884	-1.441082	1.798734
O	-1.486491	-1.800503	0.30499
N	-0.559683	1.188323	0.688715
O	-1.479642	1.025763	1.491345
O	-0.058606	2.274904	0.411785
F	2.553027	0.0	0.0
