19

C	-0.391298	-0.017387	-1.494469
C	0.0	0.0	0.0
F	-0.278962	-1.384348	-1.834279
H	1.08817	0.0	0.0
C	-1.807914	0.390245	-1.842999
H	-1.974911	1.441358	-1.60882
H	-1.954349	0.241336	-2.916666
H	-2.523447	-0.222626	-1.296222
C	0.675802	0.710994	-2.288838
H	1.651263	0.434702	-1.877932
H	0.548105	1.789762	-2.190191
H	0.584903	0.426663	-3.341656
N	-0.590887	-1.168955	0.700289
O	0.173495	-2.022758	1.141089
O	-1.821627	-1.214069	0.777345
N	-0.427782	1.209476	0.724125
O	-0.444044	2.270671	0.096018
O	-0.644578	1.109445	1.930274
F	2.537013	0.0	0.0
