19

C	-0.396435	0.018817	-1.490334
C	0.0	0.0	0.0
F	-0.256175	1.384069	-1.833905
H	1.088154	0.0	0.0
C	0.653269	-0.733327	-2.285134
H	1.636535	-0.458571	-1.889827
H	0.51641	-1.809387	-2.16444
H	0.554018	-0.466047	-3.341479
C	-1.821856	-0.355143	-1.836226
H	-2.522462	0.275715	-1.293561
H	-1.961241	-0.209807	-2.909962
H	-2.014801	-1.399272	-1.592648
N	-0.427151	-1.205199	0.732443
O	-0.503558	-2.260205	0.100184
O	-0.584688	-1.110281	1.948343
N	-0.585727	1.169826	0.7042
O	0.17963	2.031134	1.116477
O	-1.814709	1.204945	0.811037
F	2.53287	0.0	0.0
