19

C	-0.258932	-0.153741	-1.496014
C	0.0	0.0	0.0
F	-1.608812	-0.392026	-1.794975
H	1.103946	0.0	0.0
C	0.160617	1.161495	-2.134636
H	0.111878	1.06226	-3.22172
H	1.186964	1.373255	-1.823196
H	-0.497632	1.978607	-1.833735
C	0.594519	-1.281895	-2.053722
H	0.624493	-1.207795	-3.143863
H	1.597285	-1.160689	-1.634448
H	0.188595	-2.248812	-1.769587
N	-0.521418	-1.068709	0.874384
O	-0.567769	-2.213924	0.427637
O	-0.809475	-0.758554	2.030399
N	-0.575065	1.274494	0.505421
O	0.203771	2.155582	0.866397
O	-1.801952	1.388049	0.474862
F	2.543508	0.0	0.0
