19

C	-0.384181	0.028523	-1.484803
C	0.0	0.0	0.0
F	0.148516	1.219266	-1.994336
H	1.097044	0.0	0.0
C	0.388996	-1.094109	-2.158086
H	-0.032161	-2.074622	-1.929928
H	1.417703	-1.042619	-1.792294
H	0.355243	-0.934158	-3.238575
C	-1.865606	0.033386	-1.803245
H	-2.344889	0.897157	-1.345265
H	-1.990568	0.092626	-2.888294
H	-2.348522	-0.876116	-1.441749
N	-0.521129	-1.248785	0.614951
O	0.220722	-2.227275	0.630313
O	-1.682372	-1.245669	1.035245
N	-0.508247	1.111376	0.833829
O	-0.305521	1.001404	2.043443
O	-1.034648	2.087089	0.296495
F	2.518668	0.0	0.0
