12

C	-0.524437	0.019913	-1.429482
C	0.0	0.0	0.0
Br	-0.037253	-1.591714	-2.41051
H	1.100849	0.0	0.0
H	-0.088193	0.853578	-1.977093
H	-1.613175	0.066909	-1.438516
N	-0.569432	-1.13115	0.750374
H	-0.172723	-1.969233	0.334428
H	-0.178046	-1.088018	1.686794
C	-0.460903	1.249331	0.620303
N	-0.849613	2.248264	1.100531
Br	3.516464	0.0	0.0
