12

C	-0.349395	-0.017414	-1.474655
C	0.0	0.0	0.0
Br	-2.264906	-0.031133	-1.845421
H	1.104286	0.0	0.0
H	0.067458	-0.914704	-1.93239
H	0.066871	0.859413	-1.967932
N	-0.530693	-1.182801	0.696125
H	-0.249732	-1.107264	1.669362
H	-0.010353	-1.978096	0.33273
C	-0.493475	1.212708	0.651247
N	-0.895207	2.181361	1.17929
Br	3.473933	0.0	0.0
