12

C	-0.308764	0.024562	-1.491908
C	0.0	0.0	0.0
Br	-2.225256	-0.118927	-1.888161
H	1.098131	0.0	0.0
H	0.035801	0.949965	-1.952001
H	0.170053	-0.82812	-1.971992
N	-0.430069	-1.183729	0.725763
H	-1.327233	-1.507852	0.384415
H	0.265853	-1.907392	0.595181
C	-0.50799	1.212199	0.651078
N	-0.915814	2.194424	1.148736
Br	3.444858	0.0	0.0
