12

C	-0.483508	-0.043758	-1.44994
C	0.0	0.0	0.0
Br	-0.025167	1.532343	-2.50504
H	1.094764	0.0	0.0
H	-0.023516	-0.901067	-1.941634
H	-1.573637	-0.123969	-1.492027
N	-0.411783	-1.191081	0.740164
H	-1.379493	-1.426517	0.545532
H	0.184005	-1.965763	0.47025
C	-0.517211	1.189709	0.686561
N	-0.979771	2.123558	1.229055
Br	3.488276	0.0	0.0
