12

C	-0.47545	0.048774	-1.459177
C	0.0	0.0	0.0
Br	-0.070788	-1.598591	-2.4137
H	1.095179	0.0	0.0
H	-1.557186	0.18091	-1.523268
H	0.033513	0.85192	-1.991504
N	-0.457049	-1.122254	0.801003
H	-1.412436	-1.368639	0.563282
H	0.143276	-1.91519	0.604305
C	-0.470009	1.253442	0.611119
N	-0.910595	2.235685	1.081153
Br	3.503613	0.0	0.0
