15

C	0.0	0.0	0.0
C	-0.524751	-0.229742	-1.397478
F	1.357891	0.0	0.0
H	-0.309637	0.685522	-1.970552
H	-1.611196	-0.317782	-1.302029
N	-0.553417	1.092867	0.721161
H	-0.431488	1.938781	0.172446
H	-1.56407	0.92144	0.772627
N	-0.313875	-1.267691	0.834415
O	-1.429961	-1.746327	0.705812
O	0.577203	-1.690919	1.56266
N	0.046086	-1.443192	-1.968169
H	0.904096	-1.241119	-2.460786
H	-0.611146	-1.856991	-2.614016
Cl	-3.943458	0.0	0.0
