15

C	0.0	0.0	0.0
C	-0.541075	-0.112179	-1.427848
F	1.362355	0.0	0.0
H	-1.37171	-0.818765	-1.409757
H	0.258848	-0.5062	-2.057207
N	-0.474802	1.057642	0.800372
H	-1.439745	0.836732	1.051126
H	-0.517316	1.862587	0.181469
N	-0.298384	-1.333877	0.71414
O	0.093346	-2.33028	0.107478
O	-0.812234	-1.330345	1.823073
N	-0.965188	1.212571	-1.886174
H	-0.926402	1.238013	-2.897199
H	-1.946464	1.290847	-1.620522
Cl	-3.577648	0.0	0.0
