15

C	0.0	0.0	0.0
C	-0.63473	0.141258	-1.378563
F	1.398514	0.0	0.0
H	-1.334538	-0.687404	-1.496012
H	0.164299	0.039696	-2.117781
N	-0.515565	0.882919	0.910298
H	-0.779748	1.76206	0.494876
H	-0.065876	0.897847	1.808046
N	-0.188431	-1.443435	0.533213
O	-0.213834	-2.355459	-0.287224
O	-0.16987	-1.583895	1.751026
N	-1.308011	1.435373	-1.492805
H	-2.252496	1.275884	-1.125337
H	-1.406411	1.663376	-2.4733
Cl	-3.90512	0.0	0.0
