18

C	-0.604121	-0.030313	-1.408765
C	0.0	0.0	0.0
Br	-0.053972	1.639719	-2.372619
H	1.095067	0.0	0.0
N	-0.045484	-1.088868	-2.206166
H	-0.579691	-1.189233	-3.061783
H	-0.09836	-1.943892	-1.668805
N	-2.061837	0.075005	-1.343378
H	-2.429694	0.163019	-2.285578
H	-2.383949	-0.809332	-0.957647
N	-0.410967	-1.193633	0.771738
O	-0.937595	-2.172363	0.201836
O	-0.172281	-1.200247	1.978407
C	-0.375898	1.223163	0.827378
H	-0.101681	2.117981	0.274761
H	-1.443524	1.261375	1.061231
H	0.213665	1.200511	1.741408
F	2.512772	0.0	0.0
