14

C	-0.528988	0.030681	-1.499062
C	-0.002482	-0.028517	-0.069211
Cl	0.031938	-1.425014	-2.414958
H	1.090422	-0.063108	-0.064353
H	-0.375632	-0.960916	0.3688
C	-1.997332	0.02439	-1.537269
N	-3.172726	0.014769	-1.499488
C	-0.059586	1.22252	-2.21674
N	0.274571	2.188072	-2.796925
C	-0.415467	1.179329	0.756179
H	0.118507	1.112297	1.707103
H	-0.079201	2.105185	0.282249
H	-1.49291	1.238176	0.940802
H	2.758805	0.180072	0.49704
