14

C	-0.465282	0.025564	-1.48161
C	0.014221	-0.0203	-0.050646
Cl	-2.310763	-0.027976	-1.609607
H	1.111731	-0.031759	-0.03754
H	-0.324978	-0.968756	0.379108
C	-0.060624	1.257295	-2.166394
N	0.241882	2.250126	-2.717009
C	0.011808	-1.134127	-2.240811
N	0.376827	-2.077613	-2.838412
C	-0.418085	1.168311	0.787047
H	-0.087034	2.103251	0.327405
H	-1.497889	1.212454	0.953318
H	0.100031	1.095639	1.746085
H	2.730898	0.169282	0.42768
