14

C	-0.466147	0.006478	-1.483448
C	0.013912	-0.021381	-0.051722
Cl	-2.310535	-0.05856	-1.609201
H	1.109225	-0.027924	-0.03886
H	-0.321592	-0.966385	0.388456
C	-0.068264	1.232952	-2.181518
N	0.22839	2.221319	-2.743219
C	0.017232	-1.158806	-2.230049
N	0.386904	-2.106887	-2.817411
C	-0.424025	1.174466	0.77273
H	-0.096012	2.105702	0.303535
H	-1.504166	1.216109	0.937444
H	0.093202	1.113979	1.733059
H	2.732944	0.190548	0.425245
