14

C	-0.529408	-0.09903	-1.49327
C	0.001628	0.026269	-0.06901
Cl	0.025047	1.315085	-2.475683
H	1.094648	0.064449	-0.068827
H	-0.373538	0.976342	0.327383
C	-0.058965	-1.321035	-2.157444
N	0.27754	-2.310313	-2.694712
C	-1.997769	-0.097987	-1.527076
N	-3.173132	-0.089283	-1.488739
C	-0.404708	-1.144257	0.811422
H	-1.481202	-1.196492	1.003792
H	-0.069088	-2.089867	0.377766
H	0.134035	-1.033597	1.755544
H	2.762337	-0.156071	0.506758
