14

C	-0.530047	0.078241	-1.487192
C	0.000514	-0.029189	-0.061574
Cl	0.02035	-1.351076	-2.450007
H	1.097278	-0.065691	-0.064111
H	-0.375941	-0.973246	0.347718
C	-1.998369	0.080951	-1.52233
N	-3.174017	0.082356	-1.492773
C	-0.057388	1.289906	-2.168889
N	0.270093	2.270025	-2.728122
C	-0.403599	1.154757	0.80182
H	0.126719	1.053527	1.751709
H	-1.481034	1.217316	0.986112
H	-0.057746	2.092005	0.358246
H	2.765526	0.184199	0.467546
