14

C	0.0	0.0	0.0
C	-0.57237	-0.001709	-1.42966
Cl	1.787889	0.0	0.0
H	-1.7128	0.067072	-1.119393
H	-0.312491	-0.967744	0.396899
N	-0.50461	1.009632	0.872639
H	-1.526383	0.79923	0.891772
H	-0.408885	1.901356	0.399648
C	-0.316379	-1.248439	-2.122108
N	-0.172176	-2.31099	-2.603694
N	-0.145008	1.141705	-2.258455
O	0.305224	0.927074	-3.387001
O	-0.267669	2.268928	-1.762136
H	-2.848579	0.0	0.0
