14
Coordinates from ORCA-job run
  C   0.84666895304381      0.34298664707208     -0.35033434001253
  C   -0.28112892769601     -0.52607643232350      0.20344947406056
  F   0.28525141581057      1.01629909564072     -1.47311356897668
  H   0.15304462417277     -1.15163509510071      0.99140437982181
  H   1.64050333108248     -0.27894866781453     -0.77365315048524
  N   1.34069324045287      1.26525511261486      0.58259450400991
  H   2.32920655854323      1.24355266956446      0.75422123954017
  H   0.76528997821970      1.35937753591760      1.40384823753343
  N   -0.89134733525646     -1.41872838893485     -0.77549394765305
  H   -0.24907475820512     -2.16412614741161     -1.02210018310443
  H   -1.08062694562566     -0.88928401060138     -1.61951915820829
  N   -1.24376971758299      0.36592907135348      0.82378576236935
  H   -1.57830326953915      1.01914936754678      0.12354581788976
  H   -2.03640714742004     -0.18475075752339      1.13036493321523
