14
Coordinates from ORCA-job run
  C   0.97230567070317      0.24146974265569     -0.02509813690455
  C   -0.42992595482206     -0.27624116151519     -0.31869923033019
  F   1.69752213370944      0.24998755098678     -1.21861255423412
  H   -0.84655652725357      0.37829746703501     -1.10308347900596
  H   1.48324849044152     -0.44443516113076      0.65563576133474
  N   0.91896688644211      1.54074692038162      0.56165929539966
  H   1.83988245986840      1.83588033103804      0.85891667724032
  H   0.58324012876770      2.20595031386966     -0.12610104136978
  N   -1.17165317297917     -0.25650581314263      0.93697485181741
  H   -2.15594158358299     -0.41588034611909      0.76059496605052
  H   -1.05617705994044      0.64062504373178      1.39248417938236
  N   -0.35323249503970     -1.60966122424629     -0.87971905080765
  H   -0.28151284626109     -2.26337465782217     -0.10739022462409
  H   -1.20016613005332     -1.82685900572245     -1.38856201394869
