14
Coordinates from ORCA-job run
  C   0.61699224393350      0.78977702447702     -0.23318259885052
  C   -0.50423066532597     -0.14999557398011      0.18721297317821
  F   0.07979222332163      2.08447090270194     -0.26944925916171
  H   -0.79253584988635      0.16741097781964      1.19963603385295
  H   0.90364313354472      0.58309781398173     -1.27390368855990
  N   1.67293591871444      0.74504492771385      0.71643839878997
  H   2.54514081671763      1.06693130099869      0.32139538260193
  H   1.77278237581063     -0.21098955029485      1.03420976245001
  N   0.02556740586819     -1.49857687824415      0.28893948332736
  H   0.04512270563343     -1.89544900541830     -0.64511544077045
  H   -0.58440227025335     -2.07688017376492      0.85259227616355
  N   -1.57664231054940     -0.04700747098187     -0.79507920771239
  H   -2.41449606712363     -0.48836996379997     -0.43442325669606
  H   -1.79066966040548      0.93153566879131     -0.95127085861295
