14
Coordinates from ORCA-job run
  C   1.04312631294692      0.20980565368982     -0.12008108352088
  C   -0.41382241710557     -0.13908208362226     -0.41293431917509
  F   1.79976373667699     -0.02954606104172     -1.25443894743787
  H   -0.71090916760464      0.50010732234116     -1.24919176182763
  H   1.44706156422995     -0.48534179738933      0.63747620839368
  N   1.14745914431226      1.58894087183337      0.22324060643016
  H   0.34895363613087      1.85122508017373      0.78556306852036
  H   2.00726086840990      1.78771636013122      0.71456721459719
  N   -1.21552753151372      0.26661519391950      0.74691956852327
  H   -2.19973482291632      0.25956647258365      0.50828271163473
  H   -1.08284468790755     -0.40051075952710      1.50046195996435
  N   -0.50151828586004     -1.51746503650397     -0.85378141652203
  H   -1.45287819224878     -1.74564677879607     -1.11372048379613
  H   -0.21639015755028     -2.14738443779202     -0.11236332578411
