14
Coordinates from ORCA-job run
  C   0.88828658790451      0.43507213152603     -0.38057773915672
  C   -0.14260297895271     -0.55532921450881      0.14493911431537
  F   0.24346676116018      1.08810911389820     -1.46892979926636
  H   0.34625660055576     -1.14675152547060      0.92581360826741
  H   1.73022647874556     -0.09644730478323     -0.82666860764845
  N   1.29885226193077      1.37805393419617      0.57544294957521
  H   0.68864882414415      1.41553137377727      1.37702476282059
  H   2.27794485058871      1.36736125770555      0.79816809859326
  N   -0.50264293547396     -1.46018946139350     -0.93341199536362
  H   -1.20393247538533     -2.12224044114325     -0.62520520755050
  H   -0.88250902033657     -0.92449280887380     -1.70431069165084
  N   -1.19569844404030      0.22055162287295      0.79660806773671
  H   -1.66291627383903      0.79351062197908      0.10298743011131
  H   -1.88238023700175     -0.39273929978206      1.21712000921662
