14
Coordinates from ORCA-job run
  C   0.89429531543774      0.15359911867269      0.04467508591039
  C   -0.54925575254174     -0.21972865398772     -0.26594865008204
  F   1.64884958224011     -0.09321641277649     -1.12613177880738
  H   -0.89492513645532      0.48221195317568     -1.04689389072149
  H   1.29228625690355     -0.51093809508024      0.81497659255428
  N   0.99656628513995      1.50298389320857      0.46756260521185
  H   1.93807923871568      1.73249554764343      0.75661766415147
  H   0.72591946381844      2.12553916555241     -0.28443495228485
  N   -1.29216003133401     -0.15265134232068      0.97526733504142
  H   -1.19124357612800      0.76543873370076      1.38760759822804
  H   -2.26943449633696     -0.33343541436918      0.78350318801099
  N   -0.72561338450581     -1.55547939166747     -0.79913501116029
  H   -0.13896555092027     -1.67692048122281     -1.61521889318387
  H   -0.43339821403335     -2.21989862052896     -0.09044689286852
