14
Coordinates from ORCA-job run
  C   0.66099082960656      0.60254573958730     -0.24778217242925
  C   -0.63496956183923     -0.04303942786738      0.23639911373565
  F   0.50207708396728      1.99195561904163     -0.29231499593106
  H   -0.79549253698548      0.29185473452081      1.26955723663924
  H   0.87572776097247      0.28373989497976     -1.27522695313343
  N   1.74804448644656      0.22216082054907      0.58939242529094
  H   1.61245431892845      0.61053290981675      1.51595442730067
  H   2.62165044527876      0.57834507810403      0.22383571666144
  N   -0.55243958801621     -1.50261421492281      0.26642264125995
  H   0.27116411101918     -1.78010503680581      0.78972039632070
  H   -0.42567618594989     -1.84064806905025     -0.68304338073606
  N   -1.74711892307291      0.42953923482514     -0.55584783382447
  H   -2.56730706382022     -0.10477996887067     -0.29451136182847
  H   -1.57210517653533      0.26051268609246     -1.54055525932585
