14
Coordinates from ORCA-job run
  C   0.92343043399750      0.36949774230286     -0.40939840401401
  C   -0.50426435143015     -0.18811696963490     -0.39251025931315
  F   0.94193036334511      1.42889165994979     -1.34829490751434
  H   -0.94036602647757      0.06191538752388     -1.36854256382041
  H   1.62835540646493     -0.36973792225821     -0.79948552471923
  N   1.33113591661124      0.78893547206993      0.87233900874562
  H   2.28192301505154      1.13175747559102      0.86021259732477
  H   0.70451317287237      1.51821142676610      1.19061427116537
  N   -1.28326975157215      0.50094994173135      0.61631716639733
  H   -1.11530730740044      0.04056949858000      1.50432593075910
  H   -2.27091539956350      0.45090934673470      0.40630627838180
  N   -0.44511645575569     -1.62434054372226     -0.12503922932566
  H   0.12603993734270     -2.09534093789169     -0.81839745110227
  H   -1.37908895348587     -2.01310157774256     -0.18944691296492
