14
Coordinates from ORCA-job run
  C   1.03625156078550      0.18337002866100     -0.19092362109856
  C   -0.23189369874871     -0.56226106505347      0.20420328623790
  F   0.86749007080461      0.62527152685945     -1.52792030055781
  H   0.01062834058622     -1.11682578781029      1.11887997024165
  H   1.88689439452614     -0.50017925602345     -0.21473969706089
  N   1.26937407138637      1.25757729643397      0.69377120117206
  H   0.48744293601028      1.89840279876293      0.62024921215911
  H   2.12606926880820      1.74209244569859      0.46208065517635
  N   -0.53106762450781     -1.51612995968165     -0.83317932510640
  H   -0.69124132047623     -1.03020188846788     -1.70589324546206
  H   -1.34031756898775     -2.07575492227499     -0.59942334324304
  N   -1.29320899798283      0.43097908157701      0.45900786460480
  H   -2.16400878506294      0.10915983206862      0.05978557222900
  H   -1.43141264714105      0.55449986925015      1.45410177070788
