14
Coordinates from ORCA-job run
  C   0.79684322790753      0.43019132895986     -0.47686769212701
  C   -0.56537103533160     -0.25695599193230     -0.42902527054653
  F   0.56310743059315      1.74398114471416     -0.97191824572074
  H   -0.98541346856301     -0.22488632920977     -1.44475713438526
  H   1.45374683095307     -0.04102589801848     -1.21275235522318
  N   1.39815921988277      0.42364660797485      0.79691946073832
  H   2.28611725544550      0.90476452000670      0.80454927041099
  H   0.76020379504868      0.82283528365587      1.47402085062358
  N   -1.36907414441103      0.45796637377188      0.55378100969494
  H   -1.60473660982617      1.37718601189389      0.20042824794880
  H   -2.22090297123638     -0.06758573790404      0.70333129593623
  N   -0.50555485730745     -1.64454646325751     -0.01682061716597
  H   0.11965960444124     -1.71186556177779      0.77879599459427
  H   -0.12678427759630     -2.21470528887732     -0.76268481477844
