14
Coordinates from ORCA-job run
  C   0.90226651141219      0.32535445170204     -0.36726626160542
  C   -0.30591383514401     -0.45700453734932      0.14389774669900
  F   0.49096640032467      0.97462795747757     -1.55358493984150
  H   0.08053942648085     -1.11493673363309      0.93450218184465
  H   1.68792985912685     -0.36697926888031     -0.68759415443068
  N   1.37758963645993      1.25304370249806      0.57072073679790
  H   0.73554326330308      1.40726288038295      1.33255427361526
  H   2.34167934894373      1.16225180753469      0.83416393413939
  N   -0.92913858277579     -1.20207691047417     -0.94396047724919
  H   -0.31350081156528     -1.31296700626454     -1.73739003178190
  H   -1.23715892651647     -2.11304296161988     -0.63367255315418
  N   -1.21823818463695      0.47341709125053      0.79382139269192
  H   -1.95619714099023     -0.04545210306823      1.25410348754827
  H   -1.65736696442258      1.01850163044369      0.05870466472648
