14
Coordinates from ORCA-job run
  C   0.80624165573871      0.38920433338975     -0.25997517816723
  C   -0.25787460528339     -0.63301485522186      0.12503971877908
  F   0.28746632923255      1.17890063812220     -1.28839606219124
  H   0.13209846208357     -1.21122510108533      0.97278945863734
  H   1.67775610372617     -0.11567964243149     -0.69492344526291
  N   1.08712205151129      1.26986550342600      0.84180644377862
  H   1.80530588596136      1.93300842222621      0.57650407422536
  H   1.43465041038109      0.73071913207274      1.62595000642484
  N   -0.42320716532698     -1.53713161603677     -0.99348612606240
  H   -0.65703201452001     -0.99546032479979     -1.81845798614287
  H   -1.21145758372261     -2.14256287598684     -0.79682148690486
  N   -1.51330817985399     -0.02749584656206      0.55496171062048
  H   -1.83436570188754      0.57999329251913     -0.19287354126213
  H   -1.33139564804021      0.57987894036811      1.34788241352790
