14
Coordinates from ORCA-job run
  C   0.98392378949443      0.05057098583127     -0.00510940814505
  C   -0.43789319442172     -0.50618509715235      0.11045890407425
  F   1.16251560056439      0.53469359022208     -1.32317845980578
  H   -0.43637873782560     -1.19119096673172      0.97041347951901
  H   1.71705107866578     -0.75358220832936      0.10714515331074
  N   1.20921839141412      1.05639012437070      0.96157679933525
  H   0.58256691969918      1.82830438387061      0.76445499096513
  H   2.16408032390258      1.38834233997228      0.93057941976013
  N   -0.86680450388745     -1.25925808802362     -1.05335150156739
  H   -0.59933317473033     -0.74055476748766     -1.88183611435509
  H   -0.39636933523698     -2.15475210082836     -1.08570641651107
  N   -1.36441390557467      0.60994697704345      0.28216548895977
  H   -2.27021016529911      0.29471174086618     -0.04175476213959
  H   -1.44695308676462      0.84256308637651      1.26414242659969
