14
Coordinates from ORCA-job run
  C   0.69101962552884      0.75375919059216     -0.38949366846185
  C   -0.48339698040177     -0.00032355965169      0.23955955021265
  F   0.36077935675389      2.08656090189569     -0.49145434303104
  H   -0.59908216254296      0.37736289541140      1.26140043369040
  H   0.85463162521237      0.37088958780858     -1.40796447241451
  N   1.93068629218192      0.66633292513473      0.33319648121948
  H   1.80274029269280      1.11704336793584      1.23353815824767
  H   2.11565755843010     -0.31441613321175      0.50898287420004
  N   -0.06252846264343     -1.40222440681567      0.34553916111620
  H   -0.14559520631690     -1.84591970507167     -0.56355431263753
  H   -0.67206983494694     -1.90345639416122      0.98019541060755
  N   -1.70882319490752      0.29004948998850     -0.48082968426901
  H   -1.60718933228340      0.05782738415814     -1.46262648800124
  H   -2.47682957675701     -0.25348554401305     -0.10648910047884
