14
Coordinates from ORCA-job run
  C   0.70322063511083      0.61958764488883     -0.50009123993178
  C   -0.54876279278006     -0.25692749861604     -0.43190559382652
  F   0.27172705559543      1.85032301540160     -1.06053490036786
  H   -1.01637528512026     -0.23832639861312     -1.42664083035456
  H   1.41844756180086      0.21207645755757     -1.22039563659697
  N   1.29416589815884      0.81766006010537      0.75237739183686
  H   0.69156596140557      0.64627937432647      1.54029868167876
  H   2.26224698399851      0.58636254320335      0.86553416359354
  N   -1.39158476296604      0.28068234207365      0.62378009234869
  H   -1.68305436649240      1.22045361298897      0.38239210954433
  H   -2.21030836301419     -0.30761050274591      0.71237163989828
  N   -0.28810286952355     -1.64318623035596     -0.09925033496879
  H   0.19102822214227     -2.10789852144606     -0.86069174309297
  H   0.30378612168419     -1.67947589876873      0.72275620023899
