14
Coordinates from ORCA-job run
  C   0.76843861949769      0.65130874072028     -0.43218709260986
  C   -0.49703856954176     -0.17775348671793     -0.59329310976629
  F   0.53141341401752      1.96930879504070     -0.75808091868481
  H   -0.75004020315749     -0.20163064468886     -1.65816265655291
  H   1.53012941757272      0.27919965234492     -1.12731654756298
  N   1.18677985537893      0.62276825708337      0.96026868299299
  H   1.74178854169041      1.45111550139482      1.13903757057918
  H   1.78235224056305     -0.18343457911925      1.10565892359398
  N   -1.57932039370826      0.45882374224381      0.12531745485198
  H   -1.27249795888686      0.63634117145447      1.07511352304936
  H   -2.39084459532340     -0.14560637006150      0.14710471554404
  N   -0.11343487903679     -1.54090158618203     -0.20277801158784
  H   -0.17281447740255     -1.61040514901134      0.80729698548271
  H   -0.76591101166322     -2.21113404450146     -0.58997951932954
