14
Coordinates from ORCA-job run
  C   0.90950977868265      0.46223022446649     -0.45196239785465
  C   -0.46745869488062     -0.18069877261851     -0.55347760880079
  F   0.85591081820045      1.71779761167946     -1.07848673123415
  H   -0.83999192228796      0.02190840168231     -1.56085436528959
  H   1.63693841774366     -0.13131297508726     -1.00790401061755
  N   1.29470290514089      0.56100838873184      0.91058350772110
  H   2.24875143138798      0.88534070936262      0.99666043897095
  H   0.67867683440367      1.22758559523592      1.36217947852131
  N   -1.36639595837698      0.47982778954954      0.39532934932260
  H   -1.34797535777242     -0.01667726890091      1.27797723433599
  H   -2.31774580780429      0.47106659680815      0.05323142704990
  N   -0.28064923193698     -1.61526469630291     -0.40990091481720
  H   -1.17521568500844     -2.08968066023895     -0.41511793228664
  H   0.17294247250838     -1.79413094436781      0.47974252497870
