14
Coordinates from ORCA-job run
  C   0.93095353990858      0.20413806558613     -0.19324521896478
  C   -0.27706427536169     -0.66414083333717      0.13255553756176
  F   0.56772784478407      0.97664744365494     -1.33717136294454
  H   0.00726701652284     -1.29504862662315      0.97966940342152
  H   1.77022488583008     -0.41451855465580     -0.51302400171568
  N   1.31073795452872      1.02417102142791      0.89139138036056
  H   2.14317248003828      1.55549658735541      0.67562632445064
  H   0.56564296194351      1.66568466407279      1.12871517034203
  N   -0.52586814686370     -1.51412537134607     -1.01249576438334
  H   -1.38866999014507     -2.01881799860276     -0.84918596437092
  H   -0.66357293742341     -0.93057319631976     -1.82947250095291
  N   -1.45822228407363      0.09400475554736      0.54052098233904
  H   -1.61345313653312      0.86720707824173     -0.09630191850451
  H   -1.36987591315545      0.44987496499844      1.48441793336114
