14
Coordinates from ORCA-job run
  C   0.98527850044514      0.07715988413348     -0.09785131715412
  C   -0.50647686819209     -0.16785006333378     -0.29756706353262
  F   1.59691044589208     -0.24025119112036     -1.31786308147309
  H   -0.83803679090181      0.53285631532229     -1.08476167482948
  H   1.36847462067575     -0.62475571595432      0.64818661090456
  N   1.33950112710434      1.40471017800104      0.26869626495798
  H   1.51247533138206      1.51755705352315      1.25382284496895
  H   0.70286955286797      2.10698692626290     -0.07930139209542
  N   -1.16739943907685      0.01527961841774      0.98434440604593
  H   -1.12565514877024      0.98293783191994      1.27544860668737
  H   -2.14110154072647     -0.24018164800931      0.87108939349846
  N   -0.84578582668854     -1.50221508700653     -0.75081799035670
  H   -0.35785422442605     -1.69482213521893     -1.61665677308182
  H   -0.52419973958530     -2.16741196693730     -0.05476883454000
