14
Coordinates from ORCA-job run
  C   0.87837748231104      0.54156420063245     -0.55780935363397
  C   -0.48124891603030     -0.15499493353957     -0.42381504805106
  F   0.66879116594157      1.67991077835066     -1.31791976041184
  H   -0.97910530602876     -0.08535869572744     -1.40145531024928
  H   1.57586181701593     -0.09885652356892     -1.11178272366078
  N   1.49115833870787      0.93649770236167      0.67004263303064
  H   0.80007823573631      1.43744306591410      1.21807961864371
  H   1.78651234680411      0.11481212242055      1.18199081680398
  N   -1.29373366829640      0.55332466282617      0.54639187693848
  H   -2.27067089828677      0.54034659330649      0.29125311422336
  H   -1.18697083966907      0.10793815084822      1.44973154197321
  N   -0.22979055842513     -1.52632952966445      0.02149883838538
  H   -1.10920804503121     -2.02663628227180      0.08308744890009
  H   0.34994884525081     -2.01966131188812     -0.64929369289192
