14
Coordinates from ORCA-job run
  C   0.64399885295802      0.70038400570946     -0.34721729770562
  C   -0.61345559533754      0.05878704367487      0.24460246233478
  F   0.40076248423644      2.05476418398292     -0.51325900297970
  H   -0.74923190516563      0.49029102942557      1.24534096797964
  H   0.83011474564180      0.28035898460404     -1.34523575798330
  N   1.82435261678036      0.53886485517774      0.43752170230501
  H   2.37868815657351     -0.25870627720980      0.17310048784371
  H   1.64272752589855      0.54110887565153      1.43116208862963
  N   -0.47924732345953     -1.38745871722007      0.42499234807128
  H   -0.25370334207144     -1.82660775406390     -0.46204675615210
  H   0.25908570457661     -1.60837597410999      1.08259114255174
  N   -1.76959818516826      0.39329230794700     -0.55443046291078
  H   -1.58266226411564      0.23832592317384     -1.53836498830650
  H   -2.53283147134725     -0.21302848674322     -0.27975693367780
