14
Coordinates from ORCA-job run
  C   0.80346586805486      0.48230310535428     -0.44646617593031
  C   -0.49613180771150     -0.30028473982313     -0.59232699059638
  F   0.54677927546947      1.79250135969788     -0.91084833230547
  H   -0.81255680529144     -0.18572307153932     -1.63389377964888
  H   1.56807466450697      0.06144312738733     -1.10107503207334
  N   1.26791523530779      0.48305845139275      0.89524717925892
  H   0.65910300165552      1.04863578442262      1.47260648702448
  H   2.20517759704596      0.85621958740389      0.95891292539854
  N   -1.59554859133174      0.19567691145427      0.23350181629815
  H   -1.37970690557112      0.07588738990164      1.21650318582785
  H   -1.76371873636199      1.17865223705512      0.04940149984565
  N   -0.19167818803952     -1.68952983507913     -0.34904742205733
  H   0.24019954731405     -1.77710047808362      0.56375384568168
  H   -1.05237415504732     -2.22273982954458     -0.35526920672355
