14
Coordinates from ORCA-job run
  C   0.66798832603096      0.62014030259533     -0.36245534150087
  C   -0.59158421878929     -0.05724956814041      0.17016143501233
  F   0.30823361082682      1.95143218299720     -0.64883714075337
  H   -0.80975202866503      0.41588973266718      1.14525852596135
  H   0.94846957468789      0.16824788848915     -1.31804941962757
  N   1.75875795103424      0.60677630634058      0.53747566717272
  H   1.51368335674542      0.48896581489000      1.50771039485849
  H   2.53812588640888      0.03587850230069      0.26295300131477
  N   -0.44709017616685     -1.48134076890565      0.40512120875379
  H   0.32135715621760     -1.67077153016902      1.03543754593062
  H   -0.26486169444178     -1.93586531158590     -0.48305775008472
  N   -1.64695235586019      0.09156051161165     -0.80943464148505
  H   -2.49975605481519     -0.30556404556483     -0.43552860783406
  H   -1.79661933321349      1.07189998247402     -1.00675487771844
