14
Coordinates from ORCA-job run
  C   0.86898794101042      0.34547821566166     -0.32498607927384
  C   -0.24414829992810     -0.60230092118346      0.11545900673079
  F   0.34898646917276      1.02540872924855     -1.45660600845265
  H   0.12093810313477     -1.15388245876712      0.98880834054062
  H   1.72162629839285     -0.22176436191517     -0.70250435674547
  N   1.26107120781320      1.28207769958992      0.65399369470475
  H   0.65778421712570      1.33371455316134      1.45724095502821
  H   2.23371409188723      1.25438780580916      0.90386052108352
  N   -0.46902185674296     -1.54802105750708     -0.95826003800895
  H   -0.66674876304217     -1.02853355183886     -1.80589908569837
  H   -1.29841948133558     -2.08502647793679     -0.73409418367994
  N   -1.46627760832579      0.08961292358969      0.52121879706752
  H   -1.41283460147823      0.45864117628653      1.46221623230628
  H   -1.65765771768411      0.85120772580164     -0.11944779560246
