14

C	-0.371018	0.008249	-1.464558
C	0.0	0.0	0.0
Br	0.192438	-1.638935	-2.323175
H	1.09837	0.0	0.0
N	-1.906707	0.101973	-1.715756
O	-2.256703	0.421958	-2.843921
O	-2.633168	-0.173771	-0.77241
C	0.233546	1.141002	-2.154219
N	0.707742	2.054283	-2.722866
C	-0.445929	-1.180151	0.714284
N	-0.736707	-2.14088	1.326556
C	-0.449768	1.226002	0.633162
N	-0.782405	2.240553	1.126712
F	2.403375	0.0	0.0
