14

C	-0.449635	-0.008434	-1.459593
C	0.0	0.0	0.0
Br	0.485076	1.375227	-2.454138
H	1.095527	0.0	0.0
N	-0.077269	-1.346803	-2.126027
O	-0.715489	-1.630385	-3.135054
O	0.831056	-1.985615	-1.622053
C	-1.885157	0.181011	-1.63324
N	-3.045358	0.359186	-1.707663
C	-0.532289	-1.155471	0.700485
N	-0.960961	-2.09001	1.272367
C	-0.431681	1.232326	0.636325
N	-0.739993	2.23814	1.161882
F	2.414401	0.0	0.0
