16

C	0.0	0.0	0.0
C	-0.260142	0.080123	-1.562052
Br	1.920292	0.0	0.0
H	0.367031	-0.736763	-1.92576
H	-0.386554	-0.93583	0.37741
N	-0.478865	1.06019	0.928631
O	-0.551893	2.208709	0.516371
O	-0.615149	0.702283	2.093535
N	0.390415	1.280143	-2.233548
O	1.435417	1.081376	-2.859575
O	-0.207787	2.350625	-2.214851
C	-1.606713	-0.050762	-2.248809
H	-1.401943	-0.069864	-3.331163
H	-2.262137	0.763393	-1.973638
H	-2.091415	-0.967005	-1.932298
F	-2.365119	0.0	0.0
