16

C	-0.464074	0.011084	-1.470254
C	0.0	0.0	0.0
Cl	-2.242237	-0.121328	-1.538884
H	1.092199	0.0	0.0
N	-0.011564	1.386361	-2.030847
O	-0.8456	2.223846	-2.355585
O	1.203732	1.476575	-2.151555
N	0.122765	-0.951305	-2.350595
H	-0.239893	-1.866451	-2.107215
H	1.129173	-0.958674	-2.150827
N	-0.427968	-1.274126	0.616247
O	-1.265154	-1.254981	1.527159
O	0.151038	-2.287018	0.233475
C	-0.525044	1.12774	0.741567
N	-0.90671	2.085708	1.300662
Cl	3.032886	0.0	0.0
