16

C	-0.476174	0.004922	-1.451388
C	0.0	0.0	0.0
Cl	-2.213838	0.194564	-1.633341
H	1.092126	0.0	0.0
N	0.195663	1.293798	-2.096125
O	1.410768	1.181547	-2.218442
O	-0.481657	2.272579	-2.382018
N	-0.056019	-1.171091	-2.102434
H	-0.405897	-1.231678	-3.05002
H	0.953144	-1.269636	-2.068816
N	-0.41943	-1.301019	0.632035
O	-1.543879	-1.368208	1.124729
O	0.428804	-2.186123	0.634573
C	-0.517381	1.122608	0.745129
N	-0.89398	2.057184	1.354444
Cl	2.685877	0.0	0.0
