16

C	-0.448049	0.019424	-1.465056
C	0.0	0.0	0.0
Cl	0.238892	1.505492	-2.222771
H	1.100335	0.0	0.0
N	0.055232	-1.181954	-2.229853
O	-0.330245	-2.310051	-1.747
O	0.143799	-1.055065	-3.506294
N	-1.869989	-0.045381	-1.643905
H	-2.095853	-0.016678	-2.638604
H	-2.271036	0.788573	-1.215745
N	-0.503561	-1.152106	0.794455
O	0.272125	-1.507889	1.756863
O	-1.773832	-1.215167	0.964746
C	-0.416491	1.231983	0.762936
N	0.013376	1.656163	1.789914
Cl	2.630657	0.0	0.0
