16

C	-0.366998	0.009103	-1.485218
C	0.0	0.0	0.0
Cl	-2.12099	-0.281771	-1.726255
H	1.093521	0.0	0.0
N	-0.134038	1.453741	-2.057052
O	0.362673	2.301956	-1.329626
O	-0.39103	1.578032	-3.24983
N	0.405628	-0.910125	-2.196349
H	1.367186	-0.916465	-1.859032
H	0.342589	-0.749659	-3.19206
N	-0.400626	-1.333696	0.602315
O	0.193302	-2.317752	0.180141
O	-1.260713	-1.329467	1.48052
C	-0.611726	1.062586	0.772421
N	-1.13161	1.882233	1.434253
Cl	3.14827	0.0	0.0
