15

C	-0.454229	-0.08099	-1.440064
C	0.0	0.0	0.0
F	-1.798261	-0.321824	-1.54189
H	1.094325	0.0	0.0
H	0.09509	-0.856611	-1.973992
N	-0.180364	1.199682	-2.189138
O	0.882186	1.250867	-2.798647
O	-1.034349	2.078406	-2.121044
C	-0.425172	-1.274385	0.741692
H	-0.010369	-1.251106	1.750012
H	-1.510682	-1.370819	0.796975
H	-0.006087	-2.144967	0.23147
C	-0.523712	1.180689	0.679201
N	-0.960742	2.091768	1.278126
Cl	3.267998	0.0	0.0
