14

C	-0.50642	-0.005064	-1.414828
C	0.0	0.0	0.0
F	-1.919925	-0.128876	-1.437431
H	1.090733	0.0	0.0
H	-0.337843	-0.90495	0.50498
N	-0.050107	1.05867	-2.175721
H	0.020187	1.917201	-1.653952
H	-0.527605	1.156177	-3.057428
N	-0.126876	-1.312699	-2.125176
O	-0.053925	-1.266049	-3.348112
O	-0.020825	-2.321963	-1.442374
C	-0.504916	1.175752	0.685603
N	-0.90169	2.147201	1.21573
H	2.714917	0.0	0.0
