14

C	-0.528699	0.029366	-1.408788
C	0.0	0.0	0.0
F	0.004812	-1.05321	-2.080999
H	1.089912	0.0	0.0
H	-0.272509	-0.98278	0.403729
N	-1.937805	0.079643	-1.521917
H	-2.210915	-0.075555	-2.485451
H	-2.362322	-0.608247	-0.914973
N	-0.041134	1.244304	-2.195537
O	-0.251814	1.194741	-3.405683
O	0.455688	2.176074	-1.583706
C	-0.561523	1.029152	0.85503
N	-1.000743	1.826702	1.597853
H	2.723035	0.0	0.0
