14

C	-0.271668	0.157399	-1.488053
C	0.0	0.0	0.0
F	-0.218081	1.470824	-1.822683
H	1.092254	0.0	0.0
H	-0.305105	-1.001853	0.314216
N	0.619067	-0.578451	-2.311449
H	0.376813	-1.559785	-2.250988
H	1.552104	-0.459669	-1.893819
N	-1.701119	-0.305671	-1.81728
O	-1.884114	-1.522499	-1.797767
O	-2.558912	0.542961	-2.020073
C	-0.601903	1.010959	0.842705
N	-1.078327	1.82069	1.54932
H	2.718716	0.0	0.0
