14

C	-0.248964	0.143826	-1.481402
C	0.0	0.0	0.0
F	-1.545644	0.503495	-1.822887
H	1.094106	0.0	0.0
H	-0.397246	-0.932742	0.393745
N	0.672967	1.012945	-2.039703
H	1.593848	0.8632	-1.599458
H	0.717694	0.917573	-3.045233
N	-0.200347	-1.28848	-2.14452
O	-0.632017	-2.247382	-1.513512
O	0.20266	-1.330532	-3.305259
C	-0.511289	1.139118	0.735208
N	-0.90489	2.050059	1.364035
H	2.718727	0.0	0.0
