14

C	-0.226569	0.013724	-1.490588
C	0.0	0.0	0.0
F	-0.097232	1.346024	-1.929143
H	1.09434	0.0	0.0
H	-0.40291	0.897016	0.466635
N	0.634776	-0.877095	-2.106152
H	1.57142	-0.763864	-1.693239
H	0.632207	-0.786948	-3.111474
N	-1.674142	-0.269757	-1.927466
O	-2.566501	0.020251	-1.135749
O	-1.839478	-0.696284	-3.067311
C	-0.49718	-1.203583	0.635782
N	-0.874142	-2.174774	1.178495
H	2.729055	0.0	0.0
