17

C	0.0	0.0	0.0
C	-0.500781	0.044945	-1.451546
F	1.387393	0.0	0.0
H	-1.595701	0.088828	-1.340854
N	-0.526547	1.104097	0.713964
H	-1.564076	0.934144	0.583294
H	-0.300981	0.989573	1.697477
C	-0.363641	-1.326603	0.58503
N	-0.527923	-2.362398	1.115174
C	0.009349	-1.104388	-2.2945
H	-0.432445	-2.03565	-1.934707
H	-0.290425	-0.966991	-3.336599
H	1.096549	-1.174053	-2.250568
N	-0.044575	1.33841	-2.048741
O	-0.863295	2.253075	-2.123538
O	1.118691	1.409355	-2.454583
F	-2.750552	0.0	0.0
