17

C	0.0	0.0	0.0
C	-0.403841	0.165227	-1.49452
F	1.388718	0.0	0.0
H	0.524709	-0.039592	-2.039717
N	-0.464009	1.09213	0.791436
H	-0.185648	0.903526	1.750195
H	-1.502274	0.915602	0.702942
C	-0.353558	-1.308349	0.616552
N	-0.445583	-2.255832	1.306019
C	-0.942148	1.533005	-1.843638
H	-1.927791	1.609738	-1.391912
H	-1.013877	1.640129	-2.927218
H	-0.279333	2.296513	-1.436832
N	-1.31347	-0.912708	-2.02429
O	-2.222839	-0.594364	-2.779049
O	-0.977895	-2.070693	-1.78364
F	-2.577489	0.0	0.0
