17

C	0.0	0.0	0.0
C	-0.412442	0.094387	-1.500367
F	1.366192	0.0	0.0
H	0.514464	-0.13696	-2.038244
N	-0.468584	1.131439	0.737504
H	-0.189121	0.990212	1.704091
H	-1.506469	0.951524	0.659992
C	-0.367419	-1.273333	0.682655
N	-0.468608	-2.180551	1.423102
C	-0.943229	1.447765	-1.91403
H	-1.008893	1.507907	-3.001053
H	-1.930716	1.551804	-1.470687
H	-0.279575	2.225817	-1.53801
N	-1.326595	-1.001929	-1.978105
O	-2.222836	-0.716812	-2.760955
O	-1.006491	-2.148618	-1.671446
F	-2.586561	0.0	0.0
