18

C	-0.444628	0.007449	-1.461368
C	0.0	0.0	0.0
Cl	0.300348	-1.375958	-2.314196
H	1.093247	0.0	0.0
C	-1.935437	-0.016336	-1.693779
H	-2.344463	-0.941424	-1.285642
H	-2.166743	0.035728	-2.756274
H	-2.393884	0.837102	-1.189494
N	0.148112	1.263997	-2.133
O	1.315076	1.518509	-1.887353
O	-0.582267	1.914235	-2.87478
C	-0.523995	-1.190718	0.797316
H	-1.612176	-1.170057	0.906604
H	-0.229126	-2.128449	0.322567
H	-0.085081	-1.167862	1.797977
C	-0.449312	1.240324	0.60768
N	-0.8364	2.240234	1.103145
Br	2.750328	0.0	0.0
