18

C	-0.5552	-0.000253	-1.427322
C	0.0	0.0	0.0
Cl	0.195862	-1.316517	-2.36301
H	1.092483	0.0	0.0
C	-2.061786	-0.116398	-1.51589
H	-2.374839	-0.087371	-2.557067
H	-2.524201	0.714317	-0.976809
H	-2.380707	-1.058852	-1.071058
N	-0.139961	1.298266	-2.140107
O	0.760756	1.95893	-1.643791
O	-0.739052	1.561087	-3.179563
C	-0.405555	-1.253277	0.789699
H	-0.084193	-2.148066	0.256296
H	0.121097	-1.232163	1.745133
H	-1.479412	-1.30221	0.982904
C	-0.504253	1.181112	0.695538
N	-0.98751	2.089318	1.263829
Br	3.500035	0.0	0.0
