18

C	-0.410186	0.075467	-1.479641
C	0.0	0.0	0.0
Cl	-2.172526	0.329087	-1.66018
H	1.095449	0.0	0.0
C	0.348351	1.160833	-2.207841
H	0.04465	2.127823	-1.804255
H	0.127237	1.133029	-3.275749
H	1.417811	1.017738	-2.038177
N	-0.095646	-1.283714	-2.115057
O	-0.892995	-2.200052	-1.939993
O	0.967685	-1.365471	-2.720575
C	-0.496077	-1.216828	0.779538
H	-0.012639	-2.120496	0.40961
H	-0.213158	-1.09349	1.826517
H	-1.579212	-1.331523	0.707966
C	-0.43011	1.234962	0.650727
N	-0.788683	2.212468	1.195324
Br	3.444026	0.0	0.0
