18

C	-0.519491	0.038938	-1.470064
C	0.0	0.0	0.0
Cl	-2.316131	0.142177	-1.532916
H	1.105407	0.0	0.0
C	0.041263	1.216642	-2.25896
H	1.134898	1.242055	-2.176713
H	-0.373573	2.148095	-1.859962
H	-0.244155	1.132055	-3.316274
N	-0.098342	-1.265966	-2.107866
O	1.194438	-1.454919	-2.072927
O	-0.855743	-2.290145	-1.872689
C	-0.439112	-1.242209	0.78609
H	-0.156836	-1.122496	1.845285
H	0.078289	-2.141037	0.419641
H	-1.525537	-1.396495	0.7334
C	-0.38404	1.293679	0.697868
N	0.277603	2.306547	0.754997
Br	2.677767	0.0	0.0
