18

C	-0.420032	0.07826	-1.477896
C	0.0	0.0	0.0
Cl	-2.168608	0.406729	-1.652621
H	1.095465	0.0	0.0
C	0.388593	1.110406	-2.231653
H	0.160467	1.072498	-3.298719
H	0.136655	2.100751	-1.84834
H	1.450215	0.920597	-2.060565
N	-0.162014	-1.31049	-2.073748
O	-1.061415	-2.145061	-2.038932
O	0.97779	-1.498158	-2.487181
C	-0.499207	-1.23118	0.752712
H	-1.583327	-1.340751	0.679917
H	-0.213667	-1.138526	1.802063
H	-0.017307	-2.12617	0.357603
C	-0.427609	1.226773	0.667534
N	-0.786292	2.190556	1.23582
Br	3.453829	0.0	0.0
