16

C	-0.485547	-0.064969	-1.441001
C	0.0	0.0	0.0
F	-0.42229	-1.383626	-1.912819
H	1.095717	0.0	0.0
H	0.222034	0.48722	-2.073888
N	-1.85163	0.382375	-1.566332
H	-1.901258	1.207558	-0.976336
H	-2.034803	0.665691	-2.521128
C	-0.570249	-1.118323	0.849626
H	-0.313965	-2.088771	0.422829
H	-0.131381	-1.065363	1.85131
H	-1.663936	-1.057137	0.929253
N	-0.37097	1.342384	0.532053
H	-0.898449	1.232321	1.391554
H	0.510862	1.778193	0.782827
F	2.71695	0.0	0.0
