16

C	-0.416991	0.016261	-1.454478
C	0.0	0.0	0.0
F	-0.074191	-1.216339	-2.063047
H	1.094971	0.0	0.0
H	0.16089	0.777111	-1.988596
N	-1.820336	0.268877	-1.649132
H	-2.037816	0.219243	-2.637548
H	-2.342898	-0.463142	-1.180814
C	-0.572072	-1.181471	0.764746
H	-1.656889	-1.096414	0.92252
H	-0.353023	-2.123098	0.255298
H	-0.100473	-1.203817	1.748961
N	-0.375327	1.270277	0.649132
H	0.446253	1.863076	0.607492
H	-1.126588	1.716897	0.135445
F	2.711527	0.0	0.0
