14

C	-0.61904	-0.030905	-1.375965
C	0.0	0.0	0.0
F	-2.049069	-0.206545	-1.223864
H	1.09151	0.0	0.0
H	-0.365963	-0.885294	0.535283
N	-0.351043	1.153035	-2.094391
H	-1.016142	1.270051	-2.844954
H	-0.419186	1.907904	-1.418599
C	-0.218388	-1.221869	-2.154199
N	0.034831	-2.17965	-2.782506
N	-0.38306	1.266712	0.643341
H	0.433036	1.573463	1.158769
H	-1.155411	1.146058	1.2844
F	2.644267	0.0	0.0
