14

C	-0.154725	-0.100142	-1.522721
C	0.0	0.0	0.0
F	-0.183931	1.245305	-2.025879
H	1.094586	0.0	0.0
H	-0.445949	0.93616	0.343088
N	0.942598	-0.830513	-2.008448
H	1.050633	-0.745124	-3.009462
H	1.794535	-0.57054	-1.469687
C	-1.443889	-0.668862	-1.985466
N	-2.482777	-1.076862	-2.350063
N	-0.498677	-1.197994	0.670184
H	-1.230317	-0.97011	1.328019
H	0.271565	-1.609032	1.180359
F	2.740447	0.0	0.0
