19

C	-0.442455	0.046287	-1.459261
C	0.0	0.0	0.0
F	-1.782588	0.573912	-1.529388
H	1.090588	0.0	0.0
C	0.450546	1.022514	-2.2005
H	0.272172	2.043329	-1.859744
H	0.228861	0.977295	-3.272162
H	1.495287	0.759085	-2.006649
N	-0.385055	-1.219493	-2.096929
H	-0.597113	-1.108573	-3.079392
H	-1.048528	-1.847824	-1.665748
N	-0.467317	-1.19273	0.748799
O	0.109532	-1.435969	1.807573
O	-1.427445	-1.858865	0.329505
C	-0.434345	1.210172	0.814619
H	0.027866	1.145555	1.8004
H	-0.070689	2.120126	0.337116
H	-1.520769	1.264882	0.906971
H	2.800464	0.0	0.0
