19

C	-0.483418	0.044112	-1.460976
C	0.0	0.0	0.0
F	-0.478607	1.398423	-1.838684
H	1.095293	0.0	0.0
C	0.473077	-0.634537	-2.422569
H	1.483902	-0.256903	-2.250455
H	0.151824	-0.424569	-3.449074
H	0.476381	-1.709063	-2.246583
N	-1.875247	-0.357251	-1.565296
H	-1.918202	-1.342256	-1.329575
H	-2.147233	-0.263021	-2.539517
N	-0.35428	-1.264464	0.6391
O	-0.424915	-1.303716	1.874164
O	-0.442553	-2.2887	-0.066941
C	-0.469053	1.176619	0.827505
H	-1.560164	1.231587	0.862733
H	-0.076008	2.088614	0.380567
H	-0.069849	1.086766	1.836243
H	2.645451	0.0	0.0
