19

C	-0.371137	0.003911	-1.479849
C	0.0	0.0	0.0
F	-1.772431	-0.201792	-1.607718
H	1.092767	0.0	0.0
C	-0.096334	1.36672	-2.0931
H	-0.743844	2.137679	-1.673943
H	-0.292683	1.308771	-3.168426
H	0.952137	1.624482	-1.926526
N	0.302781	-1.05171	-2.167701
H	1.154693	-1.298955	-1.672241
H	0.542735	-0.758753	-3.104967
N	-0.439995	-1.27351	0.624826
O	0.138694	-2.304565	0.283669
O	-1.336324	-1.240221	1.480091
C	-0.52578	1.178142	0.787448
H	0.010077	2.07626	0.476364
H	-1.600255	1.318426	0.661007
H	-0.3198	1.026169	1.846373
H	2.765529	0.0	0.0
