19

C	-0.297986	0.04108	-1.508525
C	0.0	0.0	0.0
F	-1.658586	-0.269492	-1.711427
H	1.092429	0.0	0.0
C	-0.053685	1.433632	-2.054078
H	-0.778535	2.144264	-1.656586
H	-0.152129	1.382637	-3.13941
H	0.959346	1.753123	-1.79333
N	0.475445	-0.888477	-2.292815
H	1.45406	-0.663186	-2.085661
H	0.335306	-1.804757	-1.878459
N	-0.449292	-1.273542	0.595736
O	-0.133004	-2.332072	0.040469
O	-1.078868	-1.247678	1.659698
C	-0.512763	1.168194	0.811982
H	-0.008019	2.07639	0.480941
H	-1.595464	1.29348	0.72464
H	-0.265397	1.020065	1.86244
H	2.701889	0.0	0.0
