19

C	-0.491286	-0.029698	-1.458989
C	0.0	0.0	0.0
F	-0.252278	1.269893	-1.934728
H	1.096292	0.0	0.0
C	0.325345	-0.959	-2.327914
H	0.104626	-1.998822	-2.092135
H	1.383173	-0.769753	-2.131605
H	0.079497	-0.754136	-3.372565
N	-1.911707	-0.243381	-1.656356
H	-2.413552	0.401482	-1.052751
H	-2.110795	-1.181352	-1.329017
N	-0.37919	-1.196036	0.735464
O	-0.747075	-2.218349	0.118279
O	-0.216063	-1.187609	1.96494
C	-0.394755	1.235387	0.789729
H	-1.464276	1.264341	1.02468
H	-0.123963	2.118775	0.215366
H	0.166079	1.24433	1.722521
H	2.597559	0.0	0.0
