14

C	-0.10242	0.143778	-1.51978
C	0.0	0.0	0.0
Cl	-1.774174	0.664453	-2.061945
H	1.095922	0.0	0.0
H	-0.464168	-0.922521	0.368247
N	0.875191	1.094059	-2.013408
H	1.745042	0.793498	-1.528392
H	0.624517	1.967494	-1.55334
C	0.118405	-1.16508	-2.149818
N	0.274468	-2.224106	-2.631657
N	-0.424741	1.234819	0.642048
H	-1.367569	1.165767	1.000341
H	0.209107	1.427813	1.406575
F	2.685019	0.0	0.0
