14

C	-0.600116	-0.009542	-1.401987
C	0.0	0.0	0.0
Cl	0.319441	-1.258808	-2.416236
H	1.095064	0.0	0.0
H	-0.396145	0.896191	0.491382
N	-1.992131	-0.307745	-1.349902
H	-2.349625	-0.545453	-2.266756
H	-2.06361	-1.1062	-0.722248
C	-0.391507	1.268671	-2.089416
N	-0.248546	2.308241	-2.616432
N	-0.46712	-1.220917	0.693138
H	0.363442	-1.792405	0.808084
H	-0.776219	-0.974285	1.624494
F	2.650039	0.0	0.0
