15
Coordinates from ORCA-job run
  C   -0.57685967990547      0.43883183750858     -0.35002854320431
  C   0.83184207464843     -0.16233370213620     -0.38049898822361
  H   -0.98398627368443      0.64598962154485     -1.33923821978710
  H   1.51338386533752      0.66643057149443     -0.62482741418242
  N   -0.61538136788162      1.72452681855813      0.41673672468154
  O   -1.60756900197705      2.41765744391656      0.22479963312827
  O   0.31979694442577      1.97250868387201      1.17392953929028
  N   -1.51555010001017     -0.52260207337810      0.33047731059356
  O   -1.80039250629919     -1.50065843833132     -0.34552795031747
  O   -1.87006799185870     -0.26558508640069      1.47049107751353
  C   0.91903969055041     -1.13158576703773     -1.47801483452869
  N   1.04459041467171     -1.89280286677234     -2.36261193711267
  N   1.11369124326597     -0.81806838545924      0.88522720549679
  H   1.33244651061652     -0.11959066587570      1.58429748844235
  H   1.89501617810030     -1.45371799150324      0.79278890820994
