15
Coordinates from ORCA-job run
  C   -0.32520975068313      0.48382537219994      0.43658104405255
  C   0.97064409408810     -0.12142297164155     -0.12997359720307
  H   -0.16361494554749      0.91029159223766      1.42669003536337
  H   1.69801117693172      0.69780717528265     -0.09521360774418
  N   -1.44763163233052     -0.49484608486038      0.56789507905080
  O   -1.36805147702233     -1.54977769276942     -0.05508319641534
  O   -2.36423720621189     -0.13684961017905      1.29954282772438
  N   -0.78878861472906      1.60932010460955     -0.44810584940363
  O   -1.78492475546301      1.43686286978518     -1.13610892303090
  O   -0.05721939586516      2.59274659846671     -0.41676186073767
  C   0.79974422989393     -0.47486367431852     -1.54595190923611
  N   0.68976031421002     -0.72187792164738     -2.68808450432045
  N   1.50851117257369     -1.23841737584893      0.60933206158941
  H   1.76877875711485     -0.97553229865979      1.55057509290395
  H   0.86422803304028     -2.01726608265668      0.62266730740691
