15
Coordinates from ORCA-job run
  C   -0.40680481617869      0.50898340592611      0.46812124231157
  C   0.92159086312182     -0.06995481838269     -0.00347615741584
  H   -0.30615033926742      0.92763923212197      1.46793760493864
  H   1.64009636166946      0.74711801026547      0.11839768765233
  N   -1.50663077012236     -0.50018573998054      0.52379617633522
  O   -1.36633129198669     -1.53615666173027     -0.12046436166365
  O   -2.46983379487470     -0.18368944646111      1.21219467046781
  N   -0.83453460867886      1.61937603612893     -0.45294603429317
  O   -0.10775798294487      2.60540407790741     -0.40752904503242
  O   -1.80805079464264      1.43986694614537     -1.17125523853601
  C   0.89374711780262     -0.41281110560061     -1.43852509674872
  N   0.93549823985405     -0.69801348178795     -2.57730632859055
  N   1.29317279491074     -1.14613105157779      0.89519608414830
  H   2.29282813392229     -1.29840957549366      0.86407023171018
  H   0.82816088741525     -2.00303582748065      0.62178856471630
