17

C	-0.569636	0.003603	-1.431137
C	0.0	0.0	0.0
Br	0.174638	1.486621	-2.433352
H	1.088602	0.0	0.0
N	-0.08231	-1.27711	-2.124176
O	-0.523912	-1.476017	-3.249667
O	0.686447	-2.000974	-1.505233
C	-2.080253	0.019839	-1.528341
H	-2.372291	-0.019022	-2.57539
H	-2.487032	-0.847978	-1.002016
H	-2.47709	0.923681	-1.071163
C	-0.527606	-1.132004	0.752983
N	-0.954177	-2.048124	1.352287
N	-0.451568	1.264717	0.700141
O	0.323256	2.212308	0.685719
O	-1.570582	1.255466	1.217519
Br	3.360372	0.0	0.0
