17

C	-0.543835	-0.104846	-1.42539
C	0.0	0.0	0.0
Br	-2.491825	-0.199604	-1.391764
H	1.09533	0.0	0.0
N	-0.110645	1.107428	-2.270465
O	1.098096	1.180158	-2.430042
O	-0.959689	1.845664	-2.745435
C	0.028201	-1.338099	-2.102287
H	-0.348307	-2.23894	-1.616497
H	-0.267456	-1.351903	-3.153831
H	1.118278	-1.298384	-2.012663
C	-0.416145	-1.164407	0.77068
N	-0.709608	-2.137506	1.35991
N	-0.429884	1.251809	0.706884
O	-0.779356	1.161902	1.879553
O	-0.337593	2.288159	0.058468
Br	3.291437	0.0	0.0
