17

C	-0.494789	-0.013385	-1.476909
C	0.0	0.0	0.0
Br	-2.429049	0.282482	-1.559435
H	1.114115	0.0	0.0
N	0.18373	1.052065	-2.295031
O	1.483058	0.897122	-2.321874
O	-0.351407	1.193559	-3.478547
C	-0.187992	-1.359271	-2.178121
H	0.880617	-1.617367	-2.076471
H	-0.442225	-1.317641	-3.25186
H	-0.789308	-2.162926	-1.726592
C	-0.527644	-1.255314	0.761193
N	-1.699739	-1.32731	1.068782
N	-0.384953	1.19928	0.751674
O	-0.065069	1.097605	2.030012
O	0.08442	2.296891	0.174932
Br	2.62436	0.0	0.0
