17

C	-0.496531	0.013373	-1.482091
C	0.0	0.0	0.0
Br	0.581566	1.295322	-2.532673
H	1.113511	0.0	0.0
N	-0.237694	-1.307276	-2.151346
O	-0.672598	-1.330885	-3.383237
O	1.018997	-1.690484	-2.014922
C	-1.965978	0.413018	-1.630809
H	-2.241711	0.503569	-2.692151
H	-2.616077	-0.344014	-1.165886
H	-2.138651	1.389879	-1.153617
C	-0.541666	-1.269518	0.732111
N	-1.711215	-1.329379	1.044227
N	-0.384112	1.185711	0.776312
O	0.091147	2.297039	0.230557
O	-0.069443	1.053537	2.051756
Br	2.618733	0.0	0.0
