17

C	-0.471348	-0.025705	-1.501514
C	0.0	0.0	0.0
Br	-2.411746	-0.266846	-1.651766
H	1.115076	0.0	0.0
N	-0.09973	1.287085	-2.132519
O	-0.865186	2.27636	-1.750727
O	1.202272	1.522767	-2.024388
C	0.180325	-1.177674	-2.27239
H	-0.072275	-1.098497	-3.342919
H	1.275372	-1.149151	-2.160388
H	-0.198146	-2.139895	-1.899117
C	-0.336315	-1.323166	0.701465
N	0.419522	-2.272626	0.667645
N	-0.452812	1.199243	0.771408
O	0.267976	1.330861	1.863833
O	-1.744178	1.141445	0.998811
Br	2.620637	0.0	0.0
