18

C	0.0	0.0	0.0
C	-0.226782	0.190825	-1.543708
F	1.396931	0.0	0.0
H	0.395272	1.053681	-1.811473
C	-0.515603	1.179133	0.787599
H	-0.130461	2.112348	0.370645
H	-1.608563	1.186285	0.766323
H	-0.175319	1.079136	1.819967
N	-0.483371	-1.213674	0.565951
H	-1.491028	-1.134568	0.693311
H	-0.295922	-1.998386	-0.048425
C	-1.647848	0.414974	-2.045889
H	-1.631137	0.540842	-3.132944
H	-2.309648	-0.407715	-1.78713
H	-2.08751	1.300892	-1.591661
C	0.3636	-0.967872	-2.223444
N	0.797582	-1.915549	-2.765539
Cl	-4.131924	0.0	0.0
