18

C	0.0	0.0	0.0
C	-0.262924	0.177605	-1.526011
F	1.381302	0.0	0.0
H	0.389136	1.018981	-1.789678
C	-0.475188	1.196088	0.801125
H	-1.567395	1.197185	0.830947
H	-0.111518	2.133204	0.369434
H	-0.086461	1.112757	1.820525
N	-0.496637	-1.265167	0.453451
H	-1.50199	-1.275014	0.272538
H	-0.389548	-1.320637	1.461179
C	-1.666584	0.498955	-2.02729
H	-2.398077	-0.265794	-1.782898
H	-1.626723	0.634497	-3.111786
H	-2.031423	1.417815	-1.571665
C	0.286586	-0.983024	-2.239108
N	0.719819	-1.869548	-2.874503
Cl	-4.137963	0.0	0.0
