18

C	0.0	0.0	0.0
C	-0.254091	0.06686	-1.533491
F	1.394658	0.0	0.0
H	0.32808	0.941815	-1.848961
C	-0.474669	1.245066	0.719394
H	-0.11289	1.214202	1.75216
H	-0.087416	2.150836	0.244712
H	-1.567412	1.259968	0.72585
N	-0.488265	-1.234487	0.537528
H	-0.400805	-1.212624	1.548443
H	-1.489337	-1.27545	0.342145
C	-1.674457	0.215922	-2.068421
H	-1.62301	0.342004	-3.15391
H	-2.299209	-0.642912	-1.841097
H	-2.176689	1.074903	-1.629362
C	0.395976	-1.088378	-2.168279
N	0.868302	-1.978224	-2.771235
Cl	-4.136993	0.0	0.0
