16
Coordinates from ORCA-job run
  C   0.99966943008567      0.06593679662588     -0.20664212390466
  C   -0.46306872788774      0.52382891270072     -0.16000719592460
  Cl  2.07758450407652      1.42168760558687     -0.53853604945216
  H   -0.66899436666781      1.03421434838998     -1.10090375897842
  N   1.06730910772355     -0.90624204464716     -1.41492190049483
  O   0.75436084432319     -0.41981336441840     -2.48975768756637
  O   1.38125291763996     -2.06391482089012     -1.18032505509867
  C   1.43559881120407     -0.64581210450684      0.98358300019344
  N   1.79063940159232     -1.21830274967457      1.94724187079238
  N   -0.60242403964103      1.57532499393369      0.90266242994252
  O   -0.84455778560417      2.71640297762565      0.52025230531242
  O   -0.48038402928049      1.20386838913186      2.06696093407438
  C   -1.42468476733157     -0.61419404323537      0.11882985741299
  H   -1.18702480069734     -1.10238990210037      1.06413564955415
  H   -2.44173570965424     -0.22157167109313      0.17374123647084
  H   -1.39354078988088     -1.34902332342870     -0.68731351233341
