16
Coordinates from ORCA-job run
  C   0.70649618610386     -0.44823518290615     -0.47240054637487
  C   -0.32280569145897      0.33205788045571      0.36060593000195
  Cl  0.02923926135679     -1.48096124873723     -1.73465955261994
  H   0.24195370964572      0.87418092948578      1.12331303490504
  N   1.56614809508032     -1.36298882517480      0.42982828271363
  O   2.71977596733286     -1.54349434459539      0.07260521414983
  O   0.99530493214987     -1.85206852605147      1.39345667329028
  C   1.61027026908152      0.52193737486632     -1.08311158675519
  N   2.28692598400676      1.35506521046242     -1.56317536734911
  N   -1.26597986333099     -0.54026967331102      1.14602532532669
  O   -1.31737027111008     -0.32323252331112      2.35108105953218
  O   -1.95883509363469     -1.32796304918709      0.51399132409466
  C   -1.16389002073778      1.27272608909061     -0.48639503861909
  H   -1.74616470467203      0.70784729401283     -1.21384994187651
  H   -1.84803410067019      1.81795042566015      0.16647336446840
  H   -0.53403465914297      1.99644816924045     -1.00478817488794
