16
Coordinates from ORCA-job run
  C   0.65492539845338     -0.44251339461941     -0.48407948580140
  C   -0.36496970297683      0.30674559040946      0.38813979737598
  Cl  -0.12634267189846     -1.37163757888954     -1.74809491084560
  H   0.16890683965197      0.63489445669811      1.28381682367760
  N   1.52416059208584     -1.37832348077384      0.42866884048475
  O   2.06862238453078     -0.77469518648388      1.33957714950587
  O   1.60422071618241     -2.55466704473329      0.14580950616388
  C   1.60321138356130      0.50195341068521     -1.06142942353242
  N   2.35526366472668      1.27772928655579     -1.52589152582842
  N   -1.36558306400053     -0.71214915105738      0.88268057595635
  O   -2.55239134152762     -0.52308515252374      0.64713562413646
  O   -0.88889685921137     -1.66307853011403      1.49751047002409
  C   -1.04282181050845      1.45591525984773     -0.32251445114760
  H   -0.30030166372763      2.20443048978237     -0.60300809159671
  H   -1.76734876321645      1.92094428707439      0.34479895882739
  H   -1.56965510212502      1.11553673814206     -1.21311985740021
