16
Coordinates from ORCA-job run
  C   0.70176455097515     -0.41552826075776     -0.44209760738267
  C   -0.39742893110133      0.29986049520454      0.35914545765842
  Cl  0.03032607472353     -1.48399415191095     -1.65841926519059
  H   0.08732923242061      0.73471635764208      1.23734598135102
  N   1.62123300363855     -1.21631341050622      0.54557220284835
  O   1.78711220482993     -2.40225544805173      0.35425038080408
  O   2.10651512693481     -0.50883133005269      1.41420917556729
  C   1.58201448748007      0.56700878540497     -1.06225354605929
  N   2.27773874509187      1.36734987100031     -1.57024551951299
  N   -1.32028000832769     -0.76242123057889      0.91037766671379
  O   -0.78160913823150     -1.61929026174224      1.60655637597799
  O   -2.51295642556563     -0.69390269129988      0.63954701845761
  C   -1.15368162204771      1.33596508085882     -0.44069107423761
  H   -1.62852469393104      0.89270032915334     -1.31504661169211
  H   -0.47117651421515      2.12583752448055     -0.75813067452180
  H   -1.93037609267446      1.78009834115578      0.18088003921851
