16
Coordinates from ORCA-job run
  C   0.98422502507847     -0.06667180628030     -0.36015494007284
  C   -0.29996123099474      0.68650626950104      0.04139498429774
  Cl  1.51904278098225      0.53291099349392     -1.93593320672309
  H   -0.03798853895899      1.74617174599061      0.04426665444080
  N   0.74856342489577     -1.58659929036190     -0.48821285831493
  O   1.31440972873583     -2.29688151376433      0.32845720627072
  O   0.01223797215161     -1.92984412328225     -1.39847760045998
  C   2.03199052401454      0.15859662907080      0.62710406180162
  N   2.85060317149593      0.41901369504645      1.43027478956657
  N   -0.59896616630405      0.35309312194435      1.47637528091297
  O   -0.79995031599981     -0.83400574094782      1.72176648553425
  O   -0.63455190461061      1.28519707747369      2.27272100341348
  C   -1.54016204944171      0.42226819509931     -0.79062478649431
  H   -2.31595784106747      1.12407730373722     -0.47550270956003
  H   -1.89721212517374     -0.59493872816651     -0.64737295368011
  H   -1.33532245480330      0.58010617144572     -1.84808141093286
