14

C	-0.502997	-0.043935	-1.42911
C	0.0	0.0	0.0
Cl	-0.184522	-1.667928	-2.159684
H	1.09344	0.0	0.0
H	-1.591304	0.052132	-1.442522
H	-0.326121	0.970808	0.3966
C	0.179128	1.008962	-2.278337
H	-0.154658	0.962488	-3.317051
H	-0.05241	2.002967	-1.880871
H	1.26105	0.865008	-2.234153
N	-0.61682	-1.044969	0.827382
H	-0.29896	-0.89589	1.779931
H	-0.203869	-1.928239	0.539716
Cl	3.613311	0.0	0.0
