14

C	-0.4816	-0.011578	-1.45449
C	0.0	0.0	0.0
Cl	-0.055205	1.563455	-2.21558
H	1.093007	0.0	0.0
H	0.08261	-0.763961	-2.011661
H	-0.363762	0.911269	0.485874
C	-1.974971	-0.226917	-1.629498
H	-2.261493	-0.141071	-2.679353
H	-2.533915	0.51997	-1.058821
H	-2.262629	-1.223559	-1.285283
N	-0.406962	-1.16552	0.78152
H	-1.378572	-1.407599	0.644511
H	0.171933	-1.95797	0.537751
Cl	3.59581	0.0	0.0
