14

C	-0.34905	-0.012186	-1.482728
C	0.0	0.0	0.0
Cl	-2.152122	0.051395	-1.716786
H	1.09624	0.0	0.0
H	0.019173	0.910037	-1.934352
H	-0.356496	0.931729	0.447682
C	0.210554	-1.208803	-2.213717
H	-0.220137	-2.131334	-1.825122
H	1.289111	-1.224919	-2.04778
H	0.004792	-1.155374	-3.284636
N	-0.472015	-1.127707	0.789113
H	-1.428913	-1.354258	0.54341
H	0.112063	-1.936551	0.614623
Cl	3.564554	0.0	0.0
