13

C	0.0	0.0	0.0
C	-0.501668	0.006835	-1.42162
F	1.370725	0.0	0.0
H	-1.564289	-0.233143	-1.404027
H	-0.37738	0.818715	0.609006
H	0.038425	-0.769674	-1.967329
N	-0.351498	-1.265864	0.738334
O	-0.48087	-1.176084	1.955964
O	-0.373748	-2.306826	0.085999
N	-0.310935	1.300634	-2.070447
H	0.615332	1.658736	-1.868088
H	-0.993582	1.950368	-1.697311
Br	-3.679283	0.0	0.0
