13

C	0.0	0.0	0.0
C	-0.531156	-0.251879	-1.385965
F	1.371949	0.0	0.0
H	-1.541993	-0.638807	-1.268372
H	-0.376938	0.912524	0.45518
H	-0.636054	0.727512	-1.871298
N	-0.350629	-1.09788	0.984239
O	-0.689002	-2.196194	0.566694
O	-0.177163	-0.794776	2.164747
N	0.320243	-1.195428	-2.106593
H	1.125156	-0.713933	-2.483286
H	-0.205464	-1.581245	-2.87764
Br	-3.721547	0.0	0.0
