13

C	0.0	0.0	0.0
C	-0.463176	0.444256	-1.383433
F	1.365503	0.0	0.0
H	-0.25534	1.519227	-1.432865
H	-0.380477	0.575491	0.8429
H	0.223325	-0.048462	-2.077925
N	-0.381552	-1.432903	0.27505
O	-0.20951	-2.230732	-0.644445
O	-0.76348	-1.707596	1.409089
N	-1.815826	0.189655	-1.794844
H	-2.532366	0.556243	-1.170854
H	-1.995551	-0.803612	-1.851913
Br	-4.66205	0.0	0.0
