13

C	0.0	0.0	0.0
C	-0.462965	-0.163748	-1.441262
F	1.367685	0.0	0.0
H	0.169925	-0.955055	-1.852699
H	-0.37884	0.874538	0.527234
H	-0.183362	0.767883	-1.946514
N	-0.379671	-1.186236	0.849716
O	-0.655321	-0.96061	2.026493
O	-0.303892	-2.295295	0.322411
N	-1.840122	-0.475628	-1.708684
H	-2.08717	-1.382518	-1.337434
H	-2.514607	0.16531	-1.298607
Br	-4.703833	0.0	0.0
