13

C	0.0	0.0	0.0
C	-0.585461	-0.108443	-1.380469
F	1.35299	0.0	0.0
H	-1.664997	-0.236525	-1.239087
H	-0.379019	0.872002	0.531519
H	-0.431801	0.872389	-1.843454
N	-0.365753	-1.167978	0.896589
O	-0.498325	-0.918137	2.090494
O	-0.405249	-2.290261	0.395012
N	0.077246	-1.119097	-2.215483
H	-0.066624	-2.015055	-1.767504
H	-0.436915	-1.154443	-3.087288
Br	-3.874798	0.0	0.0
