13

C	0.0	0.0	0.0
C	-0.449071	0.037822	-1.45594
F	1.359657	0.0	0.0
H	-0.129803	1.02123	-1.823404
H	-0.379765	0.798153	0.638411
H	0.172058	-0.707534	-1.961314
N	-0.381077	-1.288996	0.686478
O	-0.407293	-2.305837	-0.003138
O	-0.548284	-1.239784	1.902837
N	-1.827168	-0.187105	-1.793221
H	-2.118934	-1.120075	-1.531412
H	-2.487893	0.424071	-1.320376
Br	-4.65748	0.0	0.0
