13
Coordinates from ORCA-job run
  C   -0.52679853097889     -0.17956114694791     -0.02239755758513
  C   0.80065473482161      0.00197048694752      0.16902787212392
  C   -1.41869758664377      0.90026889089620     -0.56734516911170
  H   -0.86364490318743      1.80446152712547     -0.81326905421414
  H   -2.19114841111529      1.13908774504637      0.16893967332847
  H   -1.92593707123430      0.53132862642995     -1.46234753080957
  C   -1.19241498338342     -1.41453892157196      0.26815012711085
  N   -1.89466025561466     -2.34442407625725      0.43761873590776
  C   1.45575079333738      1.22894861011692     -0.14638640655716
  N   1.93942456306776      2.26368406596732     -0.42998048920660
  N   1.70946986577041     -1.05532175521040      0.67862369554183
  O   1.20258696897173     -2.08012456164112      1.11162358703366
  O   2.90741481618886     -0.79777949090110      0.60774251643780
