13
Coordinates from ORCA-job run
  C   -0.53759250673080     -0.15280593102814      0.01197403455454
  C   0.80436948801069     -0.00637997678100      0.09619482556407
  C   -1.45814871972174      0.97412997206345     -0.35802085560076
  H   -2.18430233904576      1.12987596611561      0.44426618011780
  H   -2.01676795427882      0.71064030013069     -1.25972539982807
  H   -0.91163944202291      1.90053358283484     -0.53260403688442
  C   -1.16534553785390     -1.41914547441182      0.23879029712372
  N   -1.79420967260023     -2.40508717653565      0.37527662633714
  C   1.47384048155929      1.22347893251308     -0.15832436814909
  N   1.98598050322661      2.26512314054704     -0.35691077694170
  N   1.70785767315170     -1.13399116421735      0.42375377819706
  O   1.29563864970125     -1.97912836506441      1.20718568087879
  O   2.80131937660460     -1.10624380616634     -0.13285598536908
