13
Coordinates from ORCA-job run
  C   -0.58340120044682      0.06711928132306      0.16192454432961
  C   0.72817797512842     -0.16334632301841      0.40997233600991
  C   -1.20407878977405      0.37241227380855     -1.16959008663799
  H   -0.55593862070444      0.10693810171930     -2.00062431450601
  H   -1.41300200748129      1.44412702549648     -1.23132949555359
  H   -2.15303716302118     -0.15965859790969     -1.25588990731504
  C   -1.46774422557747      0.03352294093635      1.28804959768134
  N   -2.22931502703244      0.01938468051856      2.18718643467300
  C   1.26202394764357     -0.47806898471937      1.69110246600007
  N   1.70123085791942     -0.72060441996996      2.75613155849574
  N   1.72333249531404     -0.16878344588098     -0.67938761414503
  O   2.52383863522166     -1.09805744764609     -0.66255361613531
  O   1.66791312281057      0.74601491534221     -1.49499190289671
