13
Coordinates from ORCA-job run
  C   -0.53465767698336     -0.16514079740860      0.01472365945051
  C   0.80419620662892      0.00117781441632      0.12499264195431
  C   -1.42758398841589      0.86828505022189     -0.61268555370569
  H   -0.85658550938115      1.68142767145802     -1.06129895461391
  H   -2.08371519663385      1.28823295000551      0.15525174400737
  H   -2.05747760385976      0.39842699053528     -1.36979471739088
  C   -1.20622225374528     -1.33157057966504      0.50195179425237
  N   -1.89680143019895     -2.22340543314836      0.83860993643880
  C   1.47987933493628      1.14792713477700     -0.38219686206474
  N   1.98816586074581      2.12382346441253     -0.80187090208741
  N   1.70189950758319     -1.01726639740888      0.72129919121234
  O   1.20407810602044     -1.84617274990486      1.46945385874596
  O   2.88382464330359     -0.92474511829079      0.40156416380096
