13
Coordinates from ORCA-job run
  C   -0.50503505983752     -0.13900539815946     -0.22281795884244
  C   0.76694170940983     -0.04819690078257      0.22810807211008
  C   -1.37622479055989      1.06486285575251     -0.41247498267623
  H   -2.11868835019983      1.07949463751808      0.38950244931424
  H   -1.89788539656690      1.02369867751907     -1.36252104188792
  H   -0.79561166111688      1.98974348830263     -0.36221044771110
  C   -1.09704696306921     -1.41143047996298     -0.50016626070818
  N   -1.69958827130792     -2.39767967661296     -0.72164264280936
  C   1.39411855923698      1.19029744787709      0.54256834635014
  N   1.89639000541671      2.23185518080577      0.77019118811990
  N   1.60575882098865     -1.23911590622528      0.48088014246880
  O   2.28101989631292     -1.18923780477543      1.50441872360136
  O   1.54585150129307     -2.15428612125646     -0.33383558732929
