13
Coordinates from ORCA-job run
  C   -0.53525096366644     -0.16000702960228     -0.03433801537362
  C   0.80198176811673     -0.00892914043169      0.10297881690871
  C   -1.40815981943994      0.85650693150231     -0.71217912721512
  H   -1.96915556571323      0.37148519289246     -1.51439325934131
  H   -0.82796379583038      1.68391152257492     -1.12025635457572
  H   -2.13616136586395      1.24784516781832      0.00461842714565
  C   -1.20615749114598     -1.30841002727106      0.49687117435766
  N   -1.85396859431508     -2.20233994465871      0.90378115207102
  C   1.51289344632664      1.13176347239727     -0.36461666262512
  N   2.07905872985276      2.08285866991094     -0.76640847198337
  N   1.64035722639402     -0.99790420401868      0.81971436114024
  O   1.35175141559789     -2.17980603574750      0.69355173835906
  O   2.55077500968696     -0.51897457536630      1.48867622113190
