13
Coordinates from ORCA-job run
  C   -0.52724183490849     -0.11441300090875     -0.18763907865384
  C   0.77118130271822     -0.04689601761244      0.18382771558281
  C   -1.41423928395845      1.09233278624618     -0.26855466118730
  H   -2.02312529334801      1.16184348678435      0.63692595211418
  H   -0.83143826519622      2.00993591951898     -0.37174905143651
  H   -2.08674073391491      1.00448428758395     -1.12032183093724
  C   -1.10885383869424     -1.38740536083928     -0.48164027850034
  N   -1.62085547706734     -2.41471641705193     -0.74072827839954
  C   1.43891942276718      1.16536548417344      0.51094931260548
  N   1.97092118563752      2.18280243754844      0.77079696373518
  N   1.60148892903598     -1.26094847025339      0.32004296362813
  O   1.69245469018417     -1.98738804570044     -0.66305617891970
  O   2.13852919674458     -1.40499708948909      1.41214645036869
