13
Coordinates from ORCA-job run
  C   -0.53043485807860     -0.16990447783093     -0.03370533036747
  C   0.78076279651219      0.04550168954563      0.22085173409284
  C   -1.39853013988220      0.83758216368263     -0.73198285227473
  H   -2.25440872996040      1.08539344645517     -0.09873459389065
  H   -1.79118635299273      0.40059495099794     -1.65424919704949
  H   -0.85015369458565      1.74756151373627     -0.97319682013083
  C   -1.17140254282058     -1.39932641976473      0.31997379982817
  N   -1.81836282577177     -2.36043326676071      0.53159218750979
  C   1.46421877624837      1.23730173891693     -0.15228074230328
  N   1.99351620249666      2.24158631717468     -0.46486549122775
  N   1.64203506673400     -0.97427907764589      0.85990416519817
  O   1.13239153120956     -1.68724478099367      1.71434835211283
  O   2.80255477089115     -1.00333379751331      0.46234478850239
