13
Coordinates from ORCA-job run
  C   -0.58906992884075     -0.04168587693277      0.17345957739687
  C   0.74471054591400      0.01107835662150      0.40852267278144
  C   -1.25664165266092     -0.01335132934661     -1.17233668683863
  H   -1.31473060105262     -1.02866243140384     -1.57360159942843
  H   -2.26882105798476      0.37802917281922     -1.06818871783806
  H   -0.70294521252215      0.59181525548592     -1.88876056590064
  C   -1.43805032248228     -0.16003151800347      1.32008731035197
  N   -2.17164871802325     -0.25814062396997      2.23687410643719
  C   1.33562558324587      0.00484992700715      1.70311436560036
  N   1.81437061280432     -0.01935920762870      2.77860003153052
  N   1.70896114108979      0.14272318547768     -0.70072654753326
  O   1.48269630362585     -0.50322380841268     -1.71892921771329
  O   2.65654330688690      0.89495889828659     -0.49811472884604
