13
Coordinates from ORCA-job run
  C   -0.39569973328612      0.10205217861067     -0.45784143742195
  C   0.83418854203893      0.03670400637165      0.11711272012401
  C   -1.71938164659261     -0.16140708575096      0.20257791422899
  H   -2.46004083159852     -0.43010858361668     -0.54609325414503
  H   -2.04860336173577      0.72532306370125      0.73987055146419
  H   -1.64259996712022     -0.95264155978253      0.94553725805997
  C   -0.41531112866522      0.44723397434535     -1.85013554653214
  N   -0.48472711704134      0.78190377780888     -2.97807049597266
  C   2.04668679923630      0.23053399878021     -0.60880005239684
  N   3.02399081985280      0.40601766640448     -1.24430145195045
  N   1.03218053872404     -0.31295750804512      1.53862484945200
  O   0.12291500179113     -0.03975968863550      2.31630542239478
  O   2.10740208439662     -0.83289424019169      1.82421352269513
