13
Coordinates from ORCA-job run
  C   -0.59766285254960     -0.05654054143264      0.13111513934578
  C   0.71864741526370     -0.03732413661490      0.45148014248364
  C   -1.18581277383863      0.16928205381420     -1.23239925156111
  H   -2.12119382166921     -0.38373032555532     -1.32206663862542
  H   -1.40177355593550      1.23361046559300     -1.36145218298563
  H   -0.50432794709291     -0.12913423039646     -2.02662207158888
  C   -1.51675552503721     -0.29058466001692      1.20366485819956
  N   -2.30795875046660     -0.48091614579247      2.05583863191423
  C   1.23491621006627     -0.27823557078464      1.75562181577796
  N   1.65637232471153     -0.45220782176316      2.84104879211284
  N   1.75016182356656      0.18268400779846     -0.57935688457786
  O   2.74534568251450     -0.53021595384363     -0.50047685829625
  O   1.52804177046708      1.05231285899449     -1.41639549219887
