13
Coordinates from ORCA-job run
  C   -0.59967963010266     -0.06893124124343      0.11973226746547
  C   0.71623167521039     -0.13324392590935      0.43668979491096
  C   -1.17911056274186      0.40761892982239     -1.18160982667948
  H   -1.36087032792041      1.48454860552500     -1.12663337010073
  H   -0.50737519011378      0.22864974594367     -2.01919958113386
  H   -2.13044712787226     -0.09410289900106     -1.36079780074299
  C   -1.52551277827379     -0.47016618475735      1.13523444112092
  N   -2.32026708613334     -0.78621591975690      1.94593807238841
  C   1.22604913479030     -0.61281324140060      1.67569547807463
  N   1.64280874816448     -0.98904701994398      2.71055827735935
  N   1.75364159574775      0.25202708303736     -0.53931495979433
  O   1.54358017968198      1.25744696769778     -1.21073300517709
  O   2.73995136956317     -0.47577090001353     -0.58655978769126
