13
Coordinates from ORCA-job run
  C   -0.59485559157288     -0.04410033846299      0.14779723629713
  C   0.73426723118242      0.00845751312331      0.42198539456484
  C   -1.23190601274695     -0.06120377193773     -1.21348966888090
  H   -2.29459712366816      0.16314895282247     -1.12287473586946
  H   -0.75931696101631      0.65684736249268     -1.88438701417270
  H   -1.11204906825059     -1.04875777208560     -1.66611881529694
  C   -1.46854813863232     -0.09950767225786      1.27986124253727
  N   -2.21748839323665     -0.12785533548017      2.18867438175045
  C   1.27302828060330      0.05209093720103      1.73971347663380
  N   1.67960820607334      0.07762301927085      2.84479110096748
  N   1.74461507487535      0.11003694056723     -0.64908857812146
  O   2.76770321793206      0.72131360309553     -0.36005096055901
  O   1.47953927845739     -0.40909343834874     -1.72881305985049
