13
Coordinates from ORCA-job run
  C   -0.58950187823356     -0.07869879135686      0.15130701493824
  C   0.72562916625578      0.07924089803278      0.43703222063290
  C   -1.20200477211854     -0.14300654416559     -1.21893510387615
  H   -0.63170914162749      0.42802123969737     -1.94922078883322
  H   -1.22836047615061     -1.18224413615155     -1.55837932772214
  H   -2.22501445488053      0.23173027225346     -1.17665348809688
  C   -1.47726039123739     -0.22249651294299      1.26505185371830
  N   -2.24409308725803     -0.34830565542683      2.15084432780464
  C   1.26012331944661      0.16226022766558      1.75339754067245
  N   1.69623614040845      0.21276190812700      2.84600837477719
  N   1.72351390568010      0.24342169910009     -0.63731058963760
  O   1.60159748581633     -0.46974169138986     -1.62815637964955
  O   2.59084418389888      1.08705708655741     -0.43598565472818
