13
Coordinates from ORCA-job run
  C   -0.54035792307912     -0.12547520170707      0.05764972082744
  C   0.81004931944387     -0.05151704798634      0.02469661348699
  C   -1.42741452404188      0.82685165137726     -0.69142877766493
  H   -2.06396633576104      0.26403169056240     -1.37930206370177
  H   -2.08332626296438      1.34763114824530      0.01108567358789
  H   -0.85083915333484      1.55928094352369     -1.25573776663630
  C   -1.21659102449788     -1.11716106762223      0.83734592148757
  N   -1.89336706546324     -1.86059786234187      1.45078910565125
  C   1.51897951584754      0.94586814890529     -0.70301729811182
  N   2.07355589420999      1.77205691870861     -1.33216611903102
  N   1.67426763963180     -0.96846489489969      0.80153341111158
  O   1.29403915124362     -2.12435741334906      0.93421078529166
  O   2.70297076876558     -0.46814701341628      1.24534079370145
