13
Coordinates from ORCA-job run
  C   -0.59103181268198     -0.07814460248588      0.14432234407802
  C   0.72474921224438      0.04297031991705      0.44545659672277
  C   -1.19521439389081     -0.06120084740203     -1.23110822243770
  H   -0.61250036210278      0.53846550146584     -1.92812315568379
  H   -2.21286633640236      0.32619257527841     -1.17651106655880
  H   -1.23413435089707     -1.08145838446095     -1.62333891931081
  C   -1.48923719710857     -0.26423240268558      1.24340168641054
  N   -2.26492875444099     -0.42270702880878      2.11622410141569
  C   1.25226458938422      0.04623267445591      1.76707563152684
  N   1.68294631357674      0.03095869668227      2.86281192590619
  N   1.73026413498636      0.25176987288657     -0.61364012252345
  O   1.60446686263575     -0.40338577163792     -1.64349737625248
  O   2.60522209469712      1.07453939679509     -0.36307342329302
