13
Coordinates from ORCA-job run
  C   -0.52205228281543     -0.15543081650924     -0.11746656144145
  C   0.77530409625518     -0.01646017326715      0.23773238908803
  C   -1.41992666712973      1.01283878095066     -0.40717415992961
  H   -0.89607943419434      1.96439773766295     -0.30434722870501
  H   -2.26265980960642      0.99108784096037      0.28917945513816
  H   -1.82469985447898      0.92834317100485     -1.41864275534401
  C   -1.12189454466737     -1.44694021997278     -0.25833180031505
  N   -1.72403952454799     -2.44278284611480     -0.44092137880164
  C   1.42596681870803      1.24540044403950      0.34839395856374
  N   1.93077786864196      2.30288863411893      0.46468200675519
  N   1.65820562184167     -1.17996239416966      0.47867323549259
  O   2.81562986914864     -1.04941126604306      0.09421788457672
  O   1.16546784284477     -2.15396889266056      1.03300495492233
