13
Coordinates from ORCA-job run
  C   -0.59420093124713     -0.05810238471997      0.15734158683204
  C   0.73353688143470      0.00792639297456      0.42526081567816
  C   -1.23015650258182     -0.04140364396834     -1.20399223062630
  H   -1.22281604818914     -1.04935528304693     -1.62781676217476
  H   -0.69090097690459      0.60690937801944     -1.89490558727617
  H   -2.26347249027066      0.29573932249223     -1.11891711839158
  C   -1.46725069828786     -0.16128517549435      1.28798250864658
  N   -2.21649785334141     -0.23390967215752      2.19379258690390
  C   1.28897374917222      0.02691011117620      1.73490774577956
  N   1.74759155417873      0.05010429596385      2.81972688888059
  N   1.72560946339189      0.14669538732937     -0.65862318194590
  O   1.51522192156525     -0.47582407123580     -1.69438688605432
  O   2.67536193107982      0.88559534266726     -0.42137036625180
