13
Coordinates from ORCA-job run
  C   -0.59288254816094     -0.03391028200661      0.15700971985303
  C   0.73543060766717     -0.03688943247073      0.42528769824440
  C   -1.22654350446884      0.09639388292660     -1.19858162738228
  H   -1.35840846926325     -0.89678720967228     -1.63682973818610
  H   -0.61317989866137      0.67999000699174     -1.88265426277258
  H   -2.20753561172680      0.56148796236562     -1.09806955041175
  C   -1.47447448132476     -0.19325292067268      1.27353729714543
  N   -2.23671285433670     -0.32599714229565      2.16219499220621
  C   1.29436922244420     -0.13485376554977      1.73035183865763
  N   1.74786582412730     -0.23250642866187      2.81261780358008
  N   1.72996973478639      0.12947413899519     -0.65194099764305
  O   1.52249391631779     -0.46990182109332     -1.70233076586945
  O   2.68160806259981      0.85875301114374     -0.39259240742156
