13
Coordinates from ORCA-job run
  C   -0.59274686140422     -0.04805193180054      0.15484103296760
  C   0.73588846098489     -0.06967856672968      0.42072403742602
  C   -1.22814888350523      0.19056245145792     -1.18525550702401
  H   -1.35296123116568     -0.76390148496320     -1.70432120457269
  H   -0.61915238197795      0.83341045879779     -1.81833602439390
  H   -2.21231134985379      0.63891203102697     -1.04641767263192
  C   -1.47321472030073     -0.30210700917164      1.25477335300366
  N   -2.23406978110559     -0.50928572300858      2.13029454225615
  C   1.29720792802388     -0.27475290053183      1.71225894955000
  N   1.75352778503033     -0.46133140473653      2.78153646129583
  N   1.72810131465694      0.18889152731163     -0.64049399558546
  O   2.67677508893707      0.89873424459182     -0.32313832711405
  O   1.52110463168008     -0.32240169224413     -1.73646564517724
