15

C	0.0	0.0	0.0
C	-0.401422	0.141898	-1.461963
F	1.39914	0.0	0.0
H	-0.073086	-0.762252	-1.991782
H	-1.491013	0.200124	-1.494985
N	-0.400845	1.102946	0.832519
H	-0.194483	1.954568	0.318487
H	-1.416089	1.04274	0.909554
N	-0.451854	-1.259456	0.509809
H	-0.347724	-1.21711	1.519158
H	-1.454979	-1.310028	0.326047
N	0.170376	1.381754	-1.996449
H	-0.282122	1.608015	-2.87109
H	1.153695	1.236596	-2.181429
Br	-3.825383	0.0	0.0
