15

C	0.0	0.0	0.0
C	-0.417537	0.551865	-1.351546
F	1.421913	0.0	0.0
H	-0.087428	-0.141703	-2.142375
H	-1.510033	0.574724	-1.340529
N	-0.449051	0.764748	1.119314
H	-0.30914	1.741461	0.880499
H	-1.457795	0.607435	1.159327
N	-0.454614	-1.332707	0.154292
H	-0.032567	-1.934655	-0.538546
H	-0.226209	-1.656342	1.084842
N	0.11632	1.906981	-1.500868
H	-0.356806	2.37498	-2.262846
H	1.10313	1.853082	-1.721723
Br	-4.035418	0.0	0.0
