15

C	0.0	0.0	0.0
C	-0.478903	0.210331	-1.419453
F	1.452045	0.0	0.0
H	-1.569866	0.156381	-1.373189
H	-0.100275	-0.624809	-2.018985
N	-0.410558	1.092142	0.80913
H	-0.181642	1.948022	0.31792
H	0.062665	1.062074	1.70354
N	-0.415496	-1.286856	0.467678
H	-1.436981	-1.258328	0.472457
H	-0.119581	-1.391368	1.432954
N	-0.071143	1.529105	-1.910443
H	-0.772924	1.879689	-2.546421
H	0.806407	1.460871	-2.407815
Br	-4.025632	0.0	0.0
