15

C	0.0	0.0	0.0
C	-0.468986	-0.307642	-1.407297
F	1.451791	0.0	0.0
H	-1.557898	-0.216769	-1.379602
H	-0.054931	0.4679	-2.059598
N	-0.406651	1.325205	0.355139
H	-1.428045	1.297402	0.381456
H	-0.08559	1.523439	1.297126
N	-0.426783	-1.01815	0.884455
H	0.054839	-0.940356	1.770517
H	-0.25166	-1.914773	0.446479
N	-0.096652	-1.668114	-1.788961
H	-0.803865	-2.059046	-2.39232
H	0.788186	-1.668527	-2.277071
Br	-4.013159	0.0	0.0
