15

C	0.0	0.0	0.0
C	-0.395412	0.669614	-1.330963
F	1.408121	0.0	0.0
H	-0.437892	1.759321	-1.159489
H	0.427402	0.482381	-2.028853
N	-0.489477	0.738932	1.107927
H	-0.213129	0.283799	1.969107
H	-0.146787	1.688294	1.090041
N	-0.426931	-1.355441	0.163158
H	-1.421113	-1.319827	0.374487
H	-0.360675	-1.81693	-0.73662
N	-1.602783	0.075139	-1.87177
H	-1.841759	0.503161	-2.756379
H	-2.404123	0.200247	-1.248739
Br	-4.572284	0.0	0.0
