19

C	-0.399482	-0.127287	-1.444437
C	0.0	0.0	0.0
F	-0.053209	-1.31162	-1.963657
H	1.092462	0.0	0.0
N	-1.911652	0.00785	-1.625569
O	-2.350962	1.15267	-1.673133
O	-2.563738	-1.028389	-1.646938
N	0.159721	0.925646	-2.403591
O	0.70008	1.917654	-1.940896
O	-0.012686	0.663396	-3.590031
C	-0.441212	-1.256314	0.75656
H	-1.530289	-1.34269	0.821862
H	-0.037711	-1.193831	1.768778
H	-0.041493	-2.159886	0.298054
C	-0.51827	1.251544	0.702008
H	-1.601326	1.21303	0.854126
H	-0.037207	1.299097	1.681008
H	-0.267889	2.16254	0.165393
Cl	3.358808	0.0	0.0
