19

C	-0.374404	-0.091366	-1.455906
C	0.0	0.0	0.0
F	-0.242696	-1.337402	-1.946564
H	1.099961	0.0	0.0
N	-1.82278	0.281947	-1.809589
O	-2.035182	0.660708	-2.957535
O	-2.673646	0.075709	-0.949482
N	0.463222	0.82871	-2.338504
O	1.182718	0.304976	-3.17125
O	0.312227	2.024937	-2.125225
C	-0.436359	-1.24633	0.771076
H	-0.018131	-2.150366	0.328616
H	-0.033605	-1.165047	1.783062
H	-1.523157	-1.336637	0.830105
C	-0.449559	1.279672	0.703396
H	0.056029	1.312679	1.670967
H	-0.156983	2.172002	0.153236
H	-1.529066	1.293774	0.871575
Cl	3.352096	0.0	0.0
