19

C	-0.53155	-0.023237	-1.402413
C	0.0	0.0	0.0
F	-1.878998	-0.138633	-1.441614
H	1.091723	0.0	0.0
N	-0.173757	1.246321	-2.16325
O	0.967127	1.296978	-2.598969
O	-1.041069	2.108259	-2.232564
N	-0.008211	-1.137824	-2.303836
O	-0.517503	-1.159805	-3.42198
O	0.829677	-1.908429	-1.859905
C	-0.4989	-1.219614	0.776649
H	-0.179187	-2.150911	0.31062
H	-1.588422	-1.216657	0.877223
H	-0.057088	-1.188245	1.774665
C	-0.447069	1.295161	0.68523
H	0.030088	2.170262	0.240901
H	-1.532377	1.427849	0.653173
H	-0.127769	1.252637	1.728307
Cl	3.404253	0.0	0.0
