15

C	-0.510096	0.025658	-1.445126
C	0.0	0.0	0.0
Cl	0.052157	-1.462796	-2.282835
H	1.100779	0.0	0.0
H	-0.008107	0.847315	-1.959638
C	-2.018778	0.124599	-1.563016
H	-2.361585	1.068997	-1.132494
H	-2.324509	0.086192	-2.610354
H	-2.484026	-0.697053	-1.019054
N	-0.556197	-1.153565	0.731798
H	-0.24803	-1.06621	1.695378
H	-0.06814	-1.967515	0.368679
C	-0.451677	1.233403	0.652733
N	-0.826661	2.219753	1.168778
Cl	3.369163	0.0	0.0
