15

C	-0.367504	-0.022356	-1.474433
C	0.0	0.0	0.0
Cl	-2.164001	-0.069203	-1.683707
H	1.09673	0.0	0.0
H	-0.008782	-0.979304	-1.855077
C	0.225856	1.141773	-2.23706
H	0.027628	1.045782	-3.30641
H	-0.192384	2.088235	-1.887762
H	1.305732	1.142419	-2.06243
N	-0.441875	-1.21086	0.678387
H	0.144922	-1.355353	1.491096
H	-1.404278	-1.119469	0.982003
C	-0.466982	1.241473	0.639781
N	-0.83744	2.229984	1.15651
Cl	3.324057	0.0	0.0
