15

C	-0.503406	-0.069679	-1.446472
C	0.0	0.0	0.0
Cl	-0.321966	1.525058	-2.258775
H	1.100243	0.0	0.0
H	-1.577697	-0.27641	-1.437324
C	0.264478	-1.122709	-2.219442
H	1.326862	-0.872427	-2.216134
H	0.132711	-2.084728	-1.722151
H	-0.094328	-1.188567	-3.248411
N	-0.400485	-1.243378	0.678695
H	0.376196	-1.543712	1.258785
H	-1.208642	-1.090808	1.271449
C	-0.505831	1.179738	0.711546
N	-0.963791	2.054637	1.349084
Cl	3.345672	0.0	0.0
