15

C	-0.443967	-0.106252	-1.469446
C	0.0	0.0	0.0
Cl	-0.199188	1.449844	-2.327519
H	1.096103	0.0	0.0
H	-1.524077	-0.28904	-1.506113
C	0.333167	-1.19475	-2.18738
H	0.050987	-1.2398	-3.240993
H	1.402408	-0.990186	-2.098634
H	0.124334	-2.165999	-1.732123
N	-0.393628	-1.174915	0.778892
H	0.340097	-1.868234	0.715143
H	-1.266757	-1.569607	0.448432
C	-0.551179	1.198645	0.641442
N	-1.050023	2.132569	1.148807
Cl	3.350455	0.0	0.0
