15

C	-0.446229	0.007594	-1.478215
C	0.0	0.0	0.0
Cl	0.064639	-1.530966	-2.245962
H	1.095388	0.0	0.0
H	0.121067	0.790077	-1.987093
C	-1.937274	0.194746	-1.695551
H	-2.50772	-0.605541	-1.217137
H	-2.259456	1.152525	-1.280685
H	-2.171804	0.176265	-2.761524
N	-0.440814	-1.120963	0.816173
H	0.235181	-1.8652	0.704197
H	-1.347951	-1.460246	0.521185
C	-0.465721	1.260604	0.596856
N	-0.880278	2.273831	1.023169
Cl	3.333327	0.0	0.0
