15

C	-0.332043	-0.005411	-1.493433
C	0.0	0.0	0.0
Cl	-2.127074	-0.100197	-1.746636
H	1.097939	0.0	0.0
H	0.061618	-0.938816	-1.902675
C	0.240896	1.188818	-2.223372
H	-0.209884	2.11486	-1.861744
H	0.065725	1.109353	-3.298281
H	1.31751	1.215358	-2.029031
N	-0.444762	-1.154213	0.763861
H	-1.397107	-1.397318	0.510066
H	0.169052	-1.932891	0.550474
C	-0.491124	1.231723	0.627195
N	-0.885812	2.227879	1.107425
Cl	3.344655	0.0	0.0
