17

C	-0.334409	0.036607	-1.522211
C	0.0	0.0	0.0
Cl	0.018001	-1.592952	-2.203623
H	1.092698	0.0	0.0
C	-1.785799	0.356592	-1.821339
H	-2.445842	-0.363303	-1.336544
H	-1.939519	0.329146	-2.901115
H	-2.029939	1.354759	-1.448122
N	0.552279	0.975146	-2.159786
H	0.280374	1.912652	-1.878476
H	1.496945	0.804881	-1.791382
N	-0.566295	-1.145336	0.74547
O	0.116369	-2.16531	0.811457
O	-1.689218	-1.010413	1.252445
C	-0.458281	1.237558	0.603658
N	-0.751912	2.288836	1.042877
H	2.610154	0.0	0.0
