17

C	-0.388071	0.108691	-1.476814
C	0.0	0.0	0.0
Cl	0.383343	-1.292931	-2.41507
H	1.097258	0.0	0.0
C	-1.874858	0.046097	-1.760643
H	-2.057141	0.181894	-2.830671
H	-2.371954	0.848166	-1.209267
H	-2.27136	-0.921165	-1.457283
N	0.181954	1.347714	-1.893003
H	1.174146	1.342397	-1.652012
H	0.087378	1.451946	-2.89642
N	-0.427662	-1.192389	0.732505
O	-0.220305	-1.170437	1.952154
O	-0.860193	-2.174073	0.115758
C	-0.440781	1.167336	0.735182
N	-0.781515	2.122956	1.331302
H	2.448336	0.0	0.0
