17

C	-0.301163	-0.166302	-1.486368
C	0.0	0.0	0.0
Cl	-2.108756	-0.568793	-1.706712
H	1.106846	0.0	0.0
C	-0.082904	1.171381	-2.180508
H	0.951088	1.47583	-1.985169
H	-0.768444	1.943438	-1.833276
H	-0.224816	1.037381	-3.256637
N	0.494074	-1.205452	-2.04959
H	1.335956	-1.32974	-1.488884
H	0.760181	-0.957122	-2.994038
N	-0.34374	-1.140061	0.861412
O	-0.113087	-2.265618	0.421006
O	-0.718315	-0.897774	2.015019
C	-0.527222	1.220678	0.562513
N	-0.907465	2.253207	0.976715
H	2.477843	0.0	0.0
