17

C	-0.2622	-0.231711	-1.486511
C	0.0	0.0	0.0
Cl	-2.068197	-0.520207	-1.77586
H	1.093482	0.0	0.0
C	0.108259	1.038534	-2.238608
H	-0.528562	1.882485	-1.975284
H	1.151006	1.263506	-1.989953
H	0.021393	0.854144	-3.313026
N	0.469694	-1.382082	-1.916626
H	0.66931	-1.29572	-2.906294
H	1.354258	-1.403495	-1.401363
N	-0.421698	-1.111572	0.874236
O	-1.263228	-0.888133	1.75077
O	0.148723	-2.188063	0.702795
C	-0.536867	1.251593	0.484728
N	-0.888433	2.315289	0.84058
H	2.534511	0.0	0.0
