17

C	-0.29734	-0.030375	-1.49719
C	0.0	0.0	0.0
Cl	-2.103786	-0.442492	-1.745913
H	1.108152	0.0	0.0
C	-0.109139	1.366909	-2.068453
H	-0.248667	1.327152	-3.152427
H	-0.813697	2.086786	-1.6542
H	0.916394	1.679256	-1.844148
N	0.511579	-1.000035	-2.152645
H	1.333146	-1.204338	-1.58408
H	0.81284	-0.643769	-3.050105
N	-0.359912	-1.222837	0.728477
O	-0.934117	-1.116793	1.818874
O	0.031908	-2.283561	0.240792
C	-0.530512	1.162118	0.672494
N	-0.877901	2.164946	1.180235
H	2.481288	0.0	0.0
