15
Coordinates from ORCA-job run
  C   0.79379789675392      0.45677967710860     -0.12401515420485
  C   -0.39707756398560     -0.37229251548327     -0.58951651828379
  H   1.07527512227022      1.05408393188859     -0.99733818609642
  H   -0.14880618364778     -0.91887550578422     -1.49761245485375
  N   1.88476987088027     -0.44782789649732      0.18469918666498
  H   2.76971392845370      0.03901311722147      0.12708994071951
  H   1.77833436621307     -0.81271335988877      1.12321312871866
  C   0.42127073767730      1.40191124942881      0.94629700470791
  N   0.18490200669771      2.18042387378563      1.79361465129448
  N   -1.55740655217424      0.53331903378607     -0.90211016250192
  O   -1.36943732631081      1.25823465676772     -1.87250264743221
  O   -2.53633381818276      0.50246336676700     -0.16957873360858
  N   -0.84884313522047     -1.37818497640508      0.41807470388498
  O   -0.50313827406886     -1.21486341057958      1.58502496593807
  O   -1.54702107535567     -2.28247124211565     -0.02533972494707
