15
Coordinates from ORCA-job run
  C   -0.42802753837781     -0.04797750558337     -0.17322439216086
  C   1.05833981287208      0.13986818845266      0.11521175353943
  F   -0.55992095263627     -1.41057510217947     -0.55320243567473
  H   1.63935058764516      0.07051200023325     -0.80120948866799
  H   1.22909862935288      1.08864407830062      0.62421432749016
  N   -1.22227053731450      0.26707116695154      0.95336731823203
  H   -2.19869382784486      0.08625996826840      0.75916678241136
  H   -0.92908613147916     -0.26027446900142      1.76583183596524
  C   -0.84440341160183      0.77409814961117     -1.37456498636361
  H   -1.90885584091313      0.62028030126510     -1.56516896496900
  H   -0.29122383895980      0.45820763223168     -2.25970530653586
  H   -0.67370079734612      1.83523870997320     -1.18967564824255
  N   1.57801689196847     -0.93837158243615      1.00569413328498
  O   2.48962918791005     -1.63710763775051      0.57654074715578
  O   1.05974776672483     -1.04587389833672      2.11672432453563
