15
Coordinates from ORCA-job run
  C   -0.42652229802421     -0.18041365830410     -0.24930795322122
  C   1.01045917894080      0.21926659690372      0.12353578221242
  F   -0.28397021551625     -1.43240121474158     -0.85806262061530
  H   1.01136321125898      1.12543377141557      0.73005384410737
  H   1.62316813487331      0.33688743803099     -0.76793518182440
  N   -1.34417713491080     -0.32623802923202      0.82881215127109
  H   -0.90356542054256     -0.70794946515036      1.65512392766761
  H   -1.80912397472262      0.54178377508670      1.05014001575397
  C   -0.97608788225608      0.77683068557521     -1.28632580693049
  H   -0.36412909035624      0.74369920026369     -2.18793954796882
  H   -1.99015482654075      0.46485346202822     -1.53936590679430
  H   -0.99930786963079      1.80236950741013     -0.90962209747374
  N   1.65942934116888     -0.85000118865066      0.93070224645916
  O   1.20246991380811     -1.04803521039269      2.05808233548587
  O   2.59014893245019     -1.46508567024280      0.42210881187076
