15
Coordinates from ORCA-job run
  C   -0.51423525117084     -0.24121436293205     -0.30008996559700
  C   0.90138407797253     -0.77618999127399     -0.08633018111026
  F   -1.06647045552480     -1.19763544430386     -1.19937381849687
  H   0.85375648893058     -1.81461440756893      0.23797215040700
  H   1.48468337868417     -0.68518810367572     -1.00106729718293
  N   -1.20093825122466     -0.21003431714152      0.93206953287235
  H   -2.14692448245789      0.13034692461792      0.82501827388157
  H   -1.20842771456096     -1.11088611487482      1.39273706664542
  C   -0.58339808198718      1.09532761641139     -1.00123114968413
  H   -1.63049847458189      1.35314458916860     -1.17663079006525
  H   -0.11492768328007      1.87119258000326     -0.39881536302633
  H   -0.08126513220404      1.03540649615854     -1.96702905228628
  N   1.59887572935458     -0.01228867503001      0.97907338676229
  O   2.05350851916276      1.08731725964457      0.66866500262873
  O   1.65387733288773     -0.52468404920339      2.09403220425169
