15
Coordinates from ORCA-job run
  C   -0.52352145801829     -0.31960984764077     -0.03145458040007
  C   0.75670511933941     -0.47517158991278      0.78558390050168
  F   -0.67008730978095     -1.45386708596310     -0.81600537855044
  H   0.80595750795437     -1.49750073583321      1.15447688499771
  H   0.78123608170145      0.24524380979709      1.60120960849707
  N   -1.61053650017891     -0.36305787217421      0.92617554176033
  H   -1.72978294178338      0.54470861128946      1.36067272420498
  H   -2.46473129338451     -0.58624507891916      0.42757548163840
  C   -0.51787844137010      0.87252256452123     -0.96864265047085
  H   -0.33792380238753      1.79908403433232     -0.41977954394412
  H   0.25393242352537      0.76626362491315     -1.73225887442662
  H   -1.48864791356487      0.93152710838568     -1.46445664549541
  N   1.95689890229842     -0.22436077789574     -0.05117527398766
  O   2.35549942056156     -1.15106326233733     -0.75249130359277
  O   2.43188020508797      0.91152649743738     -0.02042989073222
