15
Coordinates from ORCA-job run
  C   -0.49818886770761     -0.17059058833790     -0.08692086881556
  C   0.73024303292922     -0.31982302426230      0.80761904279173
  F   -0.40529307823862     -1.20965097170245     -1.04146328305991
  H   0.82733429014047      0.54291616530219      1.46412121749905
  H   0.66610238503770     -1.24519183261688      1.37839448452350
  N   -1.63585114395924     -0.33090903703680      0.74819129550030
  H   -2.48815491363929     -0.14295820571190      0.23582788703389
  H   -1.67993303231387     -1.27171124176905      1.12086024343262
  C   -0.57303779038360      1.12841407337510     -0.85610613105033
  H   -1.47298454063764      1.11788964476904     -1.47550784142224
  H   0.29260201777750      1.24033406855080     -1.50492750367025
  H   -0.61978797133090      1.97476681883683     -0.17037048161873
  N   1.97590272545775     -0.41602582093379     -0.00016954466113
  O   2.46728668023199     -1.53056937412702     -0.15233145639621
  O   2.41476020663611      0.63410932566415     -0.46821706008674
