15
Coordinates from ORCA-job run
  C   -0.55499755505608     -0.32626858870020     -0.37211864729263
  C   0.85942563828188     -0.85539250479142     -0.13164324102375
  F   -0.99552856229386     -1.09304567329571     -1.46520367243913
  H   1.42167480186662     -0.83593710501819     -1.06139942058215
  H   0.80322269556934     -1.86326306007621      0.27942390050100
  N   -1.38591156852039     -0.61672791250551      0.74497852146932
  H   -0.86940816662117     -0.63841197411335      1.61302174719434
  H   -2.16432158722323      0.02289026927632      0.82066991044105
  C   -0.57960832978140      1.11703259297783     -0.83715311131243
  H   -0.25204701007824      1.78968142038058     -0.04277402031877
  H   -1.60504156979827      1.37410513314459     -1.11316133621054
  H   0.05678771195720      1.26079052693342     -1.71175361166784
  N   1.58304873623911     -0.00116458165026      0.84377626303124
  O   2.41809066104098      0.78607127531396      0.40498941673156
  O   1.26661410441748     -0.11835981787583      2.02934730147875
