15
Coordinates from ORCA-job run
  C   -0.45030984347993      0.04901780263938     -0.10091725396093
  C   1.05873541484849     -0.17093510771596     -0.05450577215973
  F   -1.01336389931762     -1.25533096831195     -0.07638947203579
  H   1.41042698892587     -0.61961146628572     -0.98036908378917
  H   1.57292850600732      0.76746847708780      0.15379957200939
  N   -0.89630519146776      0.83879797645754      0.98358561436140
  H   -0.60236899217924      0.44460374031284      1.86806806616273
  H   -1.90384361300721      0.92961555089951      0.96436563564533
  C   -0.85667240864252      0.66613259500223     -1.42243104099946
  H   -0.37124418648502      1.63319472281324     -1.55871648291917
  H   -1.93867551063606      0.81501000022939     -1.43406600887094
  H   -0.59558961141615      0.00092991943546     -2.24619496605180
  N   1.43286163004582     -1.12866189105625      1.02659768149051
  O   2.02056608701005     -2.15316662597724      0.69740997293055
  O   1.13185462979398     -0.81806472553028      2.17876353818706
