15
Coordinates from ORCA-job run
  C   -0.51773139373084     -0.24281148490591     -0.29247915800625
  C   0.91096504652893     -0.76000640174743     -0.12994954890134
  F   -1.07645450748743     -1.18114971014076     -1.20650438341647
  H   1.46544981623527     -0.64113031083653     -1.05928419762596
  H   0.88843474117782     -1.80588649241097      0.17259305303118
  N   -1.17405514617713     -0.25974535860826      0.95631534696164
  H   -1.15465873426630     -1.17313170376901      1.39111707308439
  H   -2.12795382273784      0.06722834053431      0.88315048402737
  C   -0.62724152544373      1.11283112144154     -0.95074513918386
  H   -1.68281965310374      1.34823245976194     -1.10592092276523
  H   -0.17172582819395      1.88132951892808     -0.32931531897812
  H   -0.13563476731457      1.09739988440828     -1.92364181083954
  N   1.62782088238526     -0.00819776170835      0.93086839363562
  O   1.71992775309496     -0.54104239774419      2.03372767749905
  O   2.05567713903329      1.10508029679727      0.63106845147751
