16

C	-0.492021	-0.004323	-1.448399
C	0.0	0.0	0.0
F	-1.893224	0.009098	-1.456095
H	1.095795	0.0	0.0
C	-0.049926	1.196288	-2.17667
N	0.26141	2.162171	-2.766417
C	-0.080518	-1.211247	-2.188915
N	0.230802	-2.167364	-2.795219
C	-0.485106	-1.242977	0.736135
H	-0.095216	-1.20932	1.755535
H	-0.112947	-2.158851	0.271284
H	-1.578668	-1.281858	0.773291
N	-0.450693	1.256205	0.586677
H	0.305123	1.64969	1.130942
H	-1.253289	1.114696	1.185092
Cl	3.338068	0.0	0.0
