16

C	-0.493681	0.02105	-1.446577
C	0.0	0.0	0.0
F	-1.895271	0.009409	-1.453415
H	1.100676	0.0	0.0
C	-0.076756	1.246796	-2.148302
N	0.197412	2.213601	-2.75483
C	-0.062777	-1.16103	-2.215742
N	0.230517	-2.117731	-2.830202
C	-0.482789	-1.255266	0.716503
H	-0.127439	-2.163728	0.224727
H	-0.074707	-1.247718	1.729138
H	-1.575714	-1.285891	0.771757
N	-0.448931	1.245762	0.610274
H	0.310427	1.633334	1.155161
H	-1.247959	1.09364	1.211649
Cl	3.339177	0.0	0.0
