16

C	-0.406535	-0.112548	-1.488449
C	0.0	0.0	0.0
F	0.066469	-1.281142	-2.0499
H	1.098748	0.0	0.0
C	-1.882799	-0.121175	-1.607628
N	-3.057229	-0.123275	-1.634303
C	0.101947	1.034567	-2.263311
N	0.450785	1.96997	-2.881113
C	-0.522517	-1.191327	0.780907
H	-0.0811	-1.150955	1.776663
H	-0.229442	-2.130354	0.309216
H	-1.613294	-1.16156	0.881132
N	-0.445745	1.245589	0.588543
H	-1.421608	1.447411	0.407042
H	0.134958	2.017046	0.288847
Cl	3.370307	0.0	0.0
