16

C	-0.495572	0.025018	-1.446413
C	0.0	0.0	0.0
F	-1.896053	0.003346	-1.452127
H	1.100491	0.0	0.0
C	-0.087826	1.257701	-2.141164
N	0.179613	2.238615	-2.727597
C	-0.05622	-1.149919	-2.222056
N	0.235458	-2.102883	-2.843607
C	-0.481388	-1.258196	0.71221
H	-1.574096	-1.286575	0.773389
H	-0.1311	-2.165182	0.214055
H	-0.067515	-1.256586	1.722622
N	-0.450026	1.241531	0.618037
H	0.316086	1.637324	1.147858
H	-1.235329	1.081344	1.236403
Cl	3.337647	0.0	0.0
