16

C	-0.485496	-0.058381	-1.455147
C	0.0	0.0	0.0
F	-0.066037	-1.221153	-2.075339
H	1.101026	0.0	0.0
C	-1.966468	-0.047363	-1.491552
N	-3.139009	-0.115286	-1.492941
C	0.005397	1.094291	-2.23259
N	0.357823	2.002352	-2.887786
C	-0.490346	-1.205748	0.781383
H	-1.579486	-1.190135	0.908738
H	-0.204987	-2.133801	0.283894
H	-0.016487	-1.194261	1.765463
N	-0.48505	1.275196	0.519889
H	0.303419	1.838816	0.816159
H	-1.10434	1.139473	1.307228
Cl	3.358824	0.0	0.0
