16

C	-0.434377	0.008019	-1.476856
C	0.0	0.0	0.0
F	-1.838214	0.047826	-1.543251
H	1.096886	0.0	0.0
C	0.041979	1.218753	-2.166545
N	0.361212	2.197204	-2.732258
C	-0.011767	-1.190592	-2.216556
N	0.270054	-2.16465	-2.808536
C	-0.519785	-1.246261	0.699383
H	-0.162827	-1.214889	1.728625
H	-1.613654	-1.272939	0.707349
H	-0.141506	-2.157725	0.231261
N	-0.45087	1.202103	0.679726
H	-1.392333	1.455071	0.401013
H	0.178537	1.970854	0.481106
Cl	3.359742	0.0	0.0
