16

C	-0.425329	-0.18005	-1.466907
C	0.0	0.0	0.0
F	-1.829544	-0.156139	-1.545945
H	1.10535	0.0	0.0
C	0.04954	0.938901	-2.298483
N	0.360852	1.860688	-2.955767
C	0.007785	-1.460624	-2.046556
N	0.293455	-2.502547	-2.50701
C	-0.521725	-1.147607	0.850606
H	-0.162532	-0.988417	1.867217
H	-0.147609	-2.112089	0.49995
H	-1.615656	-1.168681	0.864012
N	-0.451099	1.279591	0.52011
H	-1.379238	1.511002	0.186719
H	0.196266	2.01	0.25067
Cl	3.347694	0.0	0.0
