14

C	-0.458618	0.040409	-1.46527
C	0.0	0.0	0.0
Cl	-2.254431	0.202632	-1.566733
H	1.093394	0.0	0.0
C	0.145581	1.12384	-2.245511
N	0.555538	1.958957	-2.962512
C	-0.101421	-1.23434	-2.094183
N	0.134668	-2.258324	-2.620104
C	-0.520505	-1.171993	0.67883
N	-0.94281	-2.140188	1.194406
N	-0.397427	1.238307	0.746699
O	-0.503837	1.134541	1.96188
O	-0.509502	2.26974	0.091911
Cl	3.047672	0.0	0.0
