14

C	-0.472076	-0.000612	-1.46915
C	0.0	0.0	0.0
Cl	0.016245	-1.578096	-2.172061
H	1.091917	0.0	0.0
C	-1.931873	0.107506	-1.565784
N	-3.103191	0.164899	-1.645564
C	0.15662	1.056732	-2.266318
N	0.591817	1.878777	-2.984511
C	-0.534476	-1.131332	0.736515
N	-0.976043	-2.048918	1.323165
N	-0.420565	1.26544	0.693284
O	-0.294331	1.283376	1.909525
O	-0.80992	2.192898	-0.014236
Cl	3.063106	0.0	0.0
