14

C	-0.458272	0.034315	-1.465942
C	0.0	0.0	0.0
Cl	-2.251733	0.221304	-1.563189
H	1.094207	0.0	0.0
C	0.161867	1.102069	-2.257006
N	0.597689	1.900059	-3.002253
C	-0.120525	-1.252487	-2.085144
N	0.109614	-2.277979	-2.612034
C	-0.521544	-1.170138	0.681615
N	-0.932183	-2.131373	1.218591
N	-0.400158	1.244296	0.734673
O	-0.562541	1.142883	1.945109
O	-0.463413	2.276818	0.076445
Cl	3.046792	0.0	0.0
