14

C	-0.459901	0.048549	-1.46532
C	0.0	0.0	0.0
Cl	-2.254018	0.231686	-1.560531
H	1.09428	0.0	0.0
C	0.158765	1.126534	-2.243254
N	0.620128	1.931064	-2.965865
C	-0.11912	-1.230635	-2.09755
N	0.114199	-2.259118	-2.616605
C	-0.521625	-1.175336	0.671711
N	-0.927469	-2.141658	1.20295
N	-0.396178	1.237483	0.747466
O	-0.536955	1.126907	1.958963
O	-0.47594	2.274354	0.09818
Cl	3.046973	0.0	0.0
