14

C	-0.462627	-0.010415	-1.465532
C	0.0	0.0	0.0
Cl	-2.257765	0.160325	-1.56272
H	1.096754	0.0	0.0
C	0.154419	1.038399	-2.282811
N	0.65121	1.812428	-3.014216
C	-0.115016	-1.310779	-2.048741
N	0.111668	-2.351681	-2.545636
C	-0.517547	-1.151399	0.716857
N	-0.924258	-2.102841	1.273604
N	-0.39982	1.26253	0.699995
O	-0.489654	2.273169	0.012727
O	-0.537584	1.198298	1.914725
Cl	3.046166	0.0	0.0
