14

C	0.0	0.0	0.0
C	-0.619313	0.217995	-1.352089
F	1.330294	0.0	0.0
H	-1.709833	0.339308	-1.184975
H	-0.455442	-0.687489	-1.93966
N	-0.355384	1.119806	0.983279
O	-1.028753	2.04557	0.556378
O	0.177224	1.03461	2.083503
N	-0.430352	-1.354108	0.565958
O	-0.164402	-2.287595	-0.185376
O	-0.910451	-1.415779	1.684432
C	-0.015705	1.355252	-2.031488
N	0.484502	2.240726	-2.617857
Cl	-3.570052	0.0	0.0
