14

C	0.0	0.0	0.0
C	-0.635332	0.429957	-1.290588
F	1.325293	0.0	0.0
H	-0.463169	-0.361159	-2.023471
H	-1.727923	0.502143	-1.096159
N	-0.35908	0.931379	1.161717
O	0.188795	0.66085	2.225142
O	-1.067307	1.89683	0.91356
N	-0.430815	-1.42784	0.342902
O	-0.11708	-2.237199	-0.524715
O	-0.965356	-1.657147	1.413084
C	-0.061244	1.677764	-1.772658
N	0.414149	2.661893	-2.200525
Cl	-3.599803	0.0	0.0
