16

C	0.0	0.0	0.0
C	-0.582825	-0.376396	-1.371561
Cl	1.745008	0.0	0.0
H	-1.614878	0.003757	-1.348962
N	-0.322247	1.522211	0.250412
O	-0.463704	2.254072	-0.720244
O	-0.347193	1.8647	1.426075
N	-0.55414	-0.803976	1.005175
H	-1.578772	-0.700527	0.941326
H	-0.246418	-0.47426	1.911781
N	-0.508909	-1.831393	-1.532371
H	-0.857688	-2.240728	-0.671955
H	-1.164189	-2.080415	-2.265599
C	0.134247	0.238904	-2.491899
N	0.677513	0.62057	-3.459492
Br	-3.705965	0.0	0.0
