16

C	0.0	0.0	0.0
C	-0.305062	0.024817	-1.522922
Cl	1.803871	0.0	0.0
H	0.323154	-0.803505	-1.873284
N	-0.422776	1.232319	0.788587
O	-0.71849	2.243935	0.17169
O	-0.38207	1.11465	2.006594
N	-0.557016	-1.096792	0.62135
H	-0.570309	-1.063716	1.626923
H	-0.341925	-1.992011	0.218253
N	0.213129	1.219018	-2.18036
H	-0.42427	1.982984	-1.992771
H	0.188154	1.036759	-3.177148
C	-1.640042	-0.347257	-2.057207
N	-2.264651	-0.668951	-3.009197
Br	-3.698856	0.0	0.0
