16

C	0.0	0.0	0.0
C	-0.302536	0.129016	-1.527775
Cl	1.803883	0.0	0.0
H	0.419283	-0.582681	-1.943504
N	-0.449689	1.148294	0.890044
O	-0.426319	0.91489	2.092161
O	-0.745693	2.21214	0.371245
N	-0.554842	-1.160212	0.515448
H	-0.639108	-1.180163	1.519167
H	-0.208448	-2.01322	0.108844
N	0.067778	1.422718	-2.079086
H	0.076038	1.330032	-3.088034
H	-0.644522	2.097838	-1.830654
C	-1.580382	-0.400555	-2.065443
N	-2.217826	-0.87695	-2.936684
Br	-3.774955	0.0	0.0
