16

C	-0.524738	0.024051	-1.396343
C	0.0	0.0	0.0
F	-1.86799	0.19489	-1.454513
H	1.090202	0.0	0.0
H	-0.325251	0.938088	0.458088
N	0.040932	1.139206	-2.261028
O	-0.210854	1.048127	-3.459376
O	0.610939	2.059002	-1.691126
N	-0.197199	-1.262793	-2.130285
O	-1.113927	-2.05824	-2.296139
O	0.979311	-1.403627	-2.428173
C	-0.52201	-1.207655	0.773252
H	-0.221413	-1.107593	1.817503
H	-0.075965	-2.131004	0.398418
H	-1.609947	-1.296781	0.727247
Br	3.558584	0.0	0.0
