16

C	-0.568057	-0.075319	-1.379501
C	0.0	0.0	0.0
F	-1.916489	-0.148431	-1.377197
H	1.089144	0.0	0.0
H	-0.32843	0.971162	0.389867
N	-0.186939	1.150351	-2.198592
O	0.953883	1.153473	-2.635582
O	-1.037178	2.025044	-2.307187
N	-0.099475	-1.246978	-2.229151
O	-0.650653	-1.33097	-3.32315
O	0.749462	-1.995608	-1.768694
C	-0.508007	-1.124577	0.900987
H	-0.136479	-2.088648	0.555105
H	-0.112789	-0.965835	1.905812
H	-1.598315	-1.153051	0.955866
Br	3.612174	0.0	0.0
