16

C	-0.423933	0.001207	-1.428402
C	0.0	0.0	0.0
F	-0.0857	-1.103935	-2.091353
H	1.09521	0.0	0.0
H	-0.340348	0.929197	0.454765
N	-1.942884	0.169983	-1.622764
O	-2.564026	0.740317	-0.733606
O	-2.402788	-0.26032	-2.67587
N	0.137102	1.200513	-2.193904
O	-0.136535	2.292401	-1.708472
O	0.770254	0.971354	-3.211294
C	-0.5119	-1.226925	0.745504
H	-0.094878	-1.21962	1.753631
H	-1.602136	-1.243938	0.823005
H	-0.170871	-2.142191	0.259695
Br	3.538694	0.0	0.0
