16

C	-0.429346	0.00553	-1.42659
C	0.0	0.0	0.0
F	-0.087503	1.110677	-2.087525
H	1.095233	0.0	0.0
H	-0.341062	-0.930152	0.452209
N	0.120495	-1.194544	-2.199308
O	-0.155744	-2.286134	-1.714637
O	0.748139	-0.966827	-3.220732
N	-1.949692	-0.153005	-1.613814
O	-2.569883	-0.726764	-0.726186
O	-2.413964	0.289418	-2.660189
C	-0.50801	1.224896	0.751587
H	-0.087133	1.213694	1.758137
H	-0.167391	2.141416	0.267825
H	-1.597924	1.243322	0.833188
Br	3.535695	0.0	0.0
