16

C	-0.432305	-0.111152	-1.423335
C	0.0	0.0	0.0
F	0.111733	0.841807	-2.193064
H	1.097045	0.0	0.0
H	-0.323245	0.993158	0.323872
N	-0.113696	-1.459578	-2.04711
O	0.790214	-1.50947	-2.86412
O	-0.811447	-2.385917	-1.643859
N	-1.944856	0.031579	-1.654753
O	-2.327709	-0.198061	-2.797353
O	-2.635263	0.426164	-0.722138
C	-0.492881	-1.07806	0.958633
H	-1.578402	-1.179576	0.963639
H	-0.046699	-2.043981	0.724354
H	-0.162021	-0.803953	1.962142
Br	3.539353	0.0	0.0
