16

C	-0.430791	0.077959	-1.424464
C	0.0	0.0	0.0
F	0.041888	1.143072	-2.068009
H	1.098897	0.0	0.0
H	-0.346498	-0.946824	0.412223
N	-0.070306	-1.155492	-2.253384
O	0.098053	-2.207534	-1.654151
O	-0.030653	-0.977869	-3.465913
N	-1.960738	0.134226	-1.530185
O	-2.55202	-0.863384	-1.130526
O	-2.462625	1.167704	-1.94984
C	-0.516109	1.194594	0.795629
H	-0.062985	1.173803	1.787652
H	-0.223978	2.132523	0.320908
H	-1.604007	1.182875	0.913922
Br	3.536231	0.0	0.0
