16

C	-0.425247	-0.233916	-1.408547
C	0.0	0.0	0.0
F	-0.060144	0.731737	-2.248099
H	1.094693	0.0	0.0
H	-0.343546	-0.839987	0.601469
N	0.098689	-1.561294	-1.963454
O	0.66651	-1.528281	-3.044206
O	-0.139297	-2.543986	-1.270998
N	-1.950646	-0.386815	-1.563241
O	-2.556151	-0.888473	-0.622434
O	-2.433249	-0.014891	-2.628459
C	-0.513251	1.333917	0.528625
H	-1.604056	1.363765	0.599197
H	-0.172004	2.155178	-0.103284
H	-0.09959	1.497022	1.524774
Br	3.536799	0.0	0.0
