16

C	-0.515022	0.094867	-1.404951
C	0.0	0.0	0.0
F	-1.787134	0.548698	-1.482095
H	1.090732	0.0	0.0
H	-0.322586	-0.972715	0.385698
N	0.271738	1.032538	-2.313757
O	0.359829	0.71652	-3.496484
O	0.651661	2.074797	-1.798374
N	-0.471821	-1.261598	-2.08672
O	-1.531845	-1.721467	-2.492845
O	0.632033	-1.779443	-2.133861
C	-0.507102	1.114464	0.912007
H	-1.59519	1.109178	1.008933
H	-0.06727	0.966961	1.900402
H	-0.183832	2.088556	0.548648
Br	3.549722	0.0	0.0
