16

C	-0.563443	-0.017844	-1.378322
C	0.0	0.0	0.0
F	-1.906894	-0.199972	-1.386075
H	1.088304	0.0	0.0
H	-0.318821	-0.937689	0.464667
N	-0.282181	1.278654	-2.11385
O	0.849751	1.402324	-2.554048
O	-1.192812	2.097748	-2.147138
N	-0.022221	-1.116562	-2.279121
O	-0.365482	-1.037389	-3.454871
O	0.630932	-2.008897	-1.756731
C	-0.508298	1.20567	0.789274
H	-0.181654	1.105376	1.825229
H	-0.074772	2.130629	0.404833
H	-1.596828	1.293727	0.767492
Br	3.553514	0.0	0.0
