16

C	-0.597325	0.009111	-1.367415
C	0.0	0.0	0.0
F	-1.943462	0.017486	-1.339623
H	1.095786	0.0	0.0
H	-0.319943	0.938695	0.466549
N	-0.178988	1.216247	-2.211594
O	0.92959	1.680871	-1.986679
O	-0.992393	1.590397	-3.050726
N	-0.190244	-1.188978	-2.227974
O	0.924418	-1.65014	-2.025299
O	-1.010371	-1.554785	-3.065357
C	-0.501796	-1.194661	0.809696
H	-1.591822	-1.234171	0.869218
H	-0.130648	-2.128974	0.384893
H	-0.098818	-1.122481	1.820929
Br	3.645952	0.0	0.0
