16

C	-0.421209	0.271348	-1.403417
C	0.0	0.0	0.0
F	0.003753	1.439509	-1.87496
H	1.09836	0.0	0.0
H	-0.348684	-0.993399	0.276325
N	0.036053	-0.820991	-2.376343
O	0.548887	-0.451714	-3.421332
O	-0.193604	-1.970975	-2.022574
N	-1.951536	0.260477	-1.57876
O	-2.56862	-0.578789	-0.932998
O	-2.426619	1.077634	-2.359915
C	-0.508172	1.074777	0.954327
H	-1.598232	1.071519	1.044939
H	-0.177556	2.064103	0.633252
H	-0.080663	0.89409	1.941853
Br	3.536954	0.0	0.0
