16

C	-0.426959	-0.227381	-1.409378
C	0.0	0.0	0.0
F	-0.011649	-1.384027	-1.916689
H	1.098274	0.0	0.0
H	-0.346964	0.985229	0.306809
N	-1.958794	-0.202975	-1.573748
O	-2.44733	-1.009153	-2.3569
O	-2.563459	0.634863	-0.914276
N	0.030392	0.889033	-2.353658
O	-0.170126	2.030666	-1.958404
O	0.512452	0.544493	-3.422458
C	-0.509112	-1.101761	0.922514
H	-1.598884	-1.096248	1.018374
H	-0.076524	-0.954393	1.913312
H	-0.185237	-2.082265	0.569191
Br	3.537586	0.0	0.0
