16

C	-0.441805	-0.139204	-1.421603
C	0.0	0.0	0.0
F	-0.136686	0.947493	-2.143802
H	1.09373	0.0	0.0
H	-0.311903	1.013804	0.274252
N	0.108327	-1.340584	-2.18013
O	0.047413	-1.255253	-3.40204
O	0.533368	-2.280199	-1.524787
N	-1.962399	-0.304881	-1.498119
O	-2.405265	-1.445941	-1.572009
O	-2.61097	0.727874	-1.398408
C	-0.572101	-1.010326	0.985351
H	-0.13289	-0.812592	1.964575
H	-1.659283	-0.927374	1.078284
H	-0.317172	-2.029135	0.703575
Br	3.534153	0.0	0.0
