16

C	-0.448724	0.037324	-1.426432
C	0.0	0.0	0.0
F	-0.201178	1.223909	-1.995882
H	1.098713	0.0	0.0
H	-0.318236	0.966962	0.403662
N	0.142637	-1.027313	-2.339556
O	0.565325	-2.047791	-1.816894
O	0.101302	-0.770061	-3.537261
N	-1.961113	-0.183336	-1.518963
O	-2.356809	-1.317728	-1.763325
O	-2.650766	0.794137	-1.259331
C	-0.558564	-1.135676	0.848051
H	-0.285997	-2.106036	0.439652
H	-0.124148	-1.057544	1.84593
H	-1.646833	-1.082705	0.947226
Br	3.529923	0.0	0.0
