18

C	0.061257	0.029973	-0.019175
C	-0.405398	-0.006661	-1.49507
F	1.436218	-0.306249	0.013762
H	0.35253	0.580452	-2.036177
C	-0.007613	1.426388	0.458131
N	-0.026711	2.53973	0.832031
C	-0.693218	-0.899043	0.904438
H	-0.444564	-0.686764	1.94757
H	-1.779413	-0.81431	0.735539
H	-0.395375	-1.924164	0.675487
N	-1.71573	0.561817	-1.722397
H	-2.437995	0.014836	-1.202625
H	-1.75802	1.517881	-1.384734
C	-0.397118	-1.437113	-2.019833
H	-1.240413	-1.985712	-1.595134
H	-0.529482	-1.408973	-3.103386
H	0.539593	-1.949678	-1.784975
H	-3.633456	-0.811989	-0.230228
