18

C	-0.305233	-0.00467	-1.511286
C	0.0	0.0	0.0
Cl	-2.110699	-0.105941	-1.759748
H	1.098352	0.0	0.0
C	0.199262	1.272647	-2.156725
H	0.038439	1.241413	-3.237117
H	1.271632	1.354116	-1.950506
H	-0.3091	2.148962	-1.751544
C	0.328094	-1.227494	-2.151514
H	1.405232	-1.195009	-1.95731
H	-0.082144	-2.149148	-1.736361
H	0.14804	-1.225382	-3.228881
N	-0.438433	-1.157019	0.762013
H	-1.32809	-1.497479	0.417456
H	0.261008	-1.882954	0.684219
C	-0.502081	1.225366	0.63204
N	-0.931765	2.200553	1.125764
Br	3.486868	0.0	0.0
