18

C	-0.360832	0.012995	-1.488726
C	0.0	0.0	0.0
Cl	-2.176909	-0.035536	-1.653966
H	1.099632	0.0	0.0
C	0.147795	1.285913	-2.139806
H	1.229527	1.339596	-1.979775
H	-0.319922	2.17097	-1.705397
H	-0.060827	1.270725	-3.212308
C	0.214224	-1.221713	-2.155839
H	-0.021638	-1.217625	-3.223109
H	-0.184274	-2.122435	-1.692455
H	1.299952	-1.205277	-2.017411
N	-0.436864	-1.217669	0.6696
H	-1.382363	-1.112797	1.015839
H	0.18131	-1.390038	1.452793
C	-0.462591	1.221823	0.677464
N	-0.83105	2.172786	1.26239
Br	3.480413	0.0	0.0
