18

C	-0.397383	-0.003561	-1.47891
C	0.0	0.0	0.0
Cl	-2.214843	0.038901	-1.587346
H	1.10021	0.0	0.0
C	0.157175	1.226961	-2.174705
H	-0.09035	1.204204	-3.238786
H	1.24536	1.229374	-2.052232
H	-0.247716	2.145029	-1.742793
C	0.088889	-1.288975	-2.122589
H	-0.352455	-2.148211	-1.618436
H	1.178273	-1.334723	-2.020761
H	-0.179978	-1.307639	-3.181624
N	-0.44224	-1.204377	0.707925
H	0.36468	-1.604128	1.170832
H	-1.134282	-0.980875	1.411042
C	-0.437971	1.227299	0.672211
N	-0.780283	2.201794	1.233099
Br	3.479958	0.0	0.0
