18

C	-0.355947	-0.039655	-1.490017
C	0.0	0.0	0.0
Cl	-2.169313	-0.092135	-1.665356
H	1.097319	0.0	0.0
C	0.160572	1.208995	-2.182075
H	-0.040234	1.156294	-3.254357
H	1.240898	1.266248	-2.016145
H	-0.308369	2.109788	-1.782805
C	0.221857	-1.297563	-2.110357
H	-0.004161	-1.328481	-3.178895
H	-0.182948	-2.181659	-1.621226
H	1.30586	-1.278861	-1.962525
N	-0.440836	-1.192435	0.709853
H	-1.394659	-1.08035	1.032465
H	0.163198	-1.330229	1.511414
C	-0.464504	1.245692	0.631617
N	-0.838161	2.21172	1.187724
Br	3.478911	0.0	0.0
