14

C	0.0	0.0	0.0
C	-0.444084	-0.2527	-1.458189
Cl	1.779937	0.0	0.0
H	0.13639	0.403427	-2.108744
H	-0.358811	-0.79733	0.650981
C	-0.465568	1.309962	0.43759
N	-0.736396	2.409988	0.747878
N	-1.81088	-0.196307	-1.766152
H	-2.493021	-0.409327	-1.025898
H	-2.077338	0.689133	-2.168609
N	0.069441	-1.649793	-1.809797
O	-0.144967	-2.545438	-0.997366
O	0.604785	-1.788227	-2.905593
Cl	-4.339879	0.0	0.0
