14

C	0.0	0.0	0.0
C	-0.443188	-0.002455	-1.479481
Cl	1.780458	0.0	0.0
H	0.134709	0.754657	-2.01156
H	-0.358708	-0.897079	0.505074
C	-0.464433	1.214712	0.6584
N	-0.759145	2.22885	1.172028
N	-1.809989	0.095249	-1.76831
H	-2.074881	1.013605	-2.087177
H	-2.495719	-0.199229	-1.059497
N	0.082261	-1.319192	-2.062677
O	0.609649	-1.265474	-3.169647
O	-0.119798	-2.341234	-1.413176
Cl	-4.341715	0.0	0.0
