16

C	-0.360243	-0.002772	-1.48493
C	0.0	0.0	0.0
Br	-2.335325	0.157162	-1.695921
H	1.096897	0.0	0.0
H	-0.33974	0.923629	0.476742
C	0.281726	1.207779	-2.142191
H	1.363977	1.138702	-1.987726
H	-0.077224	2.13562	-1.690475
H	0.060406	1.231522	-3.211886
C	0.085602	-1.295436	-2.144592
H	-0.412688	-2.160026	-1.702513
H	1.165493	-1.391213	-1.988208
H	-0.127426	-1.275838	-3.215835
C	-0.521758	-1.14359	0.73443
N	-0.957438	-2.06507	1.317702
Cl	3.364489	0.0	0.0
