16

C	-0.518479	0.038775	-1.44055
C	0.0	0.0	0.0
Br	0.015273	-1.630713	-2.346609
H	1.093488	0.0	0.0
H	-0.304174	0.941489	0.477684
C	-2.034841	0.12254	-1.50943
H	-2.373987	0.153107	-2.547336
H	-2.498123	-0.733774	-1.015453
H	-2.365904	1.037715	-1.005254
C	0.165085	1.189851	-2.164075
H	-0.147995	2.134244	-1.702288
H	1.250214	1.100182	-2.07108
H	-0.116823	1.208891	-3.219526
C	-0.550287	-1.096248	0.786546
N	-1.036373	-1.959784	1.416736
Cl	3.399573	0.0	0.0
