16

C	-0.492319	0.043983	-1.457221
C	0.0	0.0	0.0
Br	-0.066215	-1.72163	-2.238486
H	1.093573	0.0	0.0
H	-0.355096	-0.901726	0.505818
C	-1.997349	0.228054	-1.572163
H	-2.310472	0.179323	-2.617535
H	-2.530881	-0.545487	-1.014132
H	-2.276146	1.205365	-1.166564
C	0.286252	1.09547	-2.231499
H	1.358898	0.921417	-2.122144
H	0.053735	2.083437	-1.81821
H	0.011724	1.084634	-3.289166
C	-0.480889	1.173861	0.725477
N	-0.891136	2.128433	1.274124
Cl	3.393528	0.0	0.0
