16

C	-0.507675	0.063864	-1.445169
C	0.0	0.0	0.0
Br	-0.098235	-1.649428	-2.336112
H	1.093485	0.0	0.0
H	-0.297188	0.940886	0.483971
C	-2.013284	0.258635	-1.519203
H	-2.274584	1.207485	-1.036881
H	-2.348693	0.291871	-2.558314
H	-2.540318	-0.549115	-1.007625
C	0.261268	1.15456	-2.17519
H	-0.020489	1.191429	-3.230152
H	0.02661	2.121929	-1.715979
H	1.335493	0.98254	-2.082162
C	-0.569263	-1.092901	0.776052
N	-1.083934	-1.938525	1.407584
Cl	3.392456	0.0	0.0
