17

C	-0.553082	0.029966	-1.435286
C	0.0	0.0	0.0
Cl	0.276671	-1.337555	-2.373542
H	1.097731	0.0	0.0
N	-1.965312	-0.121344	-1.409574
H	-2.155961	-0.900792	-0.783668
H	-2.336643	-0.296816	-2.333351
C	-0.186026	1.25091	-2.155884
N	0.096882	2.234603	-2.731584
N	-0.51585	-1.234742	0.61763
H	0.154669	-1.970813	0.420214
H	-0.504296	-1.104266	1.622605
C	-0.487952	1.210725	0.780797
H	-1.574979	1.198099	0.894597
H	-0.191321	2.137782	0.288018
H	-0.015056	1.203474	1.767727
Br	3.585214	0.0	0.0
