17

C	-0.553622	0.020513	-1.435046
C	0.0	0.0	0.0
Cl	0.280876	-1.343299	-2.372448
H	1.097681	0.0	0.0
N	-1.965401	-0.134933	-1.406705
H	-2.335371	-0.317902	-2.330023
H	-2.152913	-0.91173	-0.777883
C	-0.198057	1.245124	-2.156757
N	0.070646	2.231073	-2.73549
N	-0.512457	-1.236027	0.62092
H	-0.506078	-1.101305	1.625582
H	0.162355	-1.969774	0.430193
C	-0.489841	1.211724	0.776682
H	-0.193597	2.137962	0.282172
H	-1.57597	1.198206	0.890952
H	-0.016001	1.20787	1.762118
Br	3.587563	0.0	0.0
