17

C	-0.52245	-0.018832	-1.443703
C	0.0	0.0	0.0
Cl	0.044123	-1.479187	-2.298192
H	1.095642	0.0	0.0
N	-1.983251	-0.04795	-1.450556
H	-2.317345	0.866185	-1.161111
H	-2.301954	-0.198515	-2.40204
C	-0.017015	1.139127	-2.208466
N	0.26538	2.115335	-2.799688
N	-0.425983	-1.217609	0.667574
H	-1.300385	-1.083359	1.158139
H	0.294221	-1.496187	1.320172
C	-0.444932	1.2794	0.713053
H	-0.163807	2.182593	0.164873
H	-1.526793	1.287186	0.894873
H	0.058792	1.316557	1.681154
Br	3.567743	0.0	0.0
