17

C	-0.381834	-0.053258	-1.493805
C	0.0	0.0	0.0
Cl	0.007654	1.50944	-2.294621
H	1.096392	0.0	0.0
N	0.320021	-1.099141	-2.208955
H	1.313326	-0.878504	-2.118626
H	0.169205	-1.935795	-1.648005
C	-1.835359	-0.255239	-1.619233
N	-2.996799	-0.430975	-1.645479
N	-0.402556	-1.304178	0.541605
H	0.31762	-1.628062	1.17588
H	-1.275109	-1.228866	1.051919
C	-0.561058	1.177545	0.775827
H	-0.240502	1.094965	1.817355
H	-1.657725	1.179825	0.74783
H	-0.198481	2.128977	0.387413
Br	3.547244	0.0	0.0
