17

C	-0.377979	-0.060762	-1.494694
C	0.0	0.0	0.0
Cl	-0.015334	1.508802	-2.295807
H	1.096419	0.0	0.0
N	0.346202	-1.093255	-2.207042
H	1.336323	-0.860979	-2.102018
H	0.198672	-1.935767	-1.654237
C	-1.827011	-0.290577	-1.62501
N	-2.98496	-0.487038	-1.657392
N	-0.397025	-1.3056	0.543005
H	-1.267719	-1.233947	1.055904
H	0.326348	-1.627658	1.173754
C	-0.56679	1.175761	0.773437
H	-1.663371	1.175787	0.740194
H	-0.204438	2.128237	0.387501
H	-0.251252	1.092918	1.81656
Br	3.540448	0.0	0.0
