17

C	-0.255762	0.047987	-1.525303
C	0.0	0.0	0.0
Cl	-2.012613	0.398676	-1.892687
H	1.099603	0.0	0.0
N	0.553832	1.078244	-2.1044
H	1.501871	0.989217	-1.731419
H	0.580868	0.997816	-3.112994
C	-0.029739	-1.290457	-2.108946
N	0.179662	-2.353607	-2.566837
N	-0.491435	-1.182718	0.672396
H	-1.459025	-1.358143	0.426826
H	0.061692	-1.988732	0.411379
C	-0.495503	1.25757	0.691072
H	-0.229547	2.148614	0.121512
H	-1.581162	1.229522	0.822081
H	-0.027185	1.304573	1.675264
Br	3.533977	0.0	0.0
