15
Coordinates from ORCA-job run
  C   0.81071933737065      0.42299353963558      0.79110541942609
  C   -0.60810989341023      0.01912056168589      0.39470728231515
  Br  1.41538620753060     -0.55738495374669      2.32373398724557
  H   -1.20790499806666      0.02347024840518      1.30789552576760
  H   0.85857787612398      1.48474964827297      1.02400588976036
  N   1.70752705061652      0.21309763752568     -0.40990753560008
  O   1.46700019442130      1.00688922882218     -1.31700012685611
  O   2.51314412395587     -0.70355368976654     -0.43163561757496
  C   -0.70104409942135     -1.30366439841014     -0.33069306595088
  H   -1.74435657203360     -1.56865961407786     -0.49679763196710
  H   -0.20950965903491     -1.25547719229198     -1.30207419144149
  H   -0.23141157462834     -2.08282812964441      0.27191337175372
  N   -1.20328906916682      1.15340455307374     -0.42209739538529
  O   -1.68029492931107      0.89036526120434     -1.51895494808831
  O   -1.18743399494595      2.25647729931207      0.11479903659572
