15
Coordinates from ORCA-job run
  C   0.80974940097490      0.65815402566091      0.37292764045861
  C   -0.50971053540632     -0.08759625710138      0.27187090848915
  Br  0.93160309674606      1.70190236440117      1.98270025547366
  H   -0.69600700305513     -0.63970437208654      1.19270550700104
  H   0.97230246560871      1.31677200240673     -0.47660614990199
  N   1.90670851202753     -0.36876742783413      0.34493832586149
  O   2.68201324931403     -0.30200352072019     -0.60524620960801
  O   1.90338926595513     -1.21436431224281      1.23172158120801
  C   -0.57581132698490     -0.98094135963955     -0.95703168562141
  H   0.12967749986078     -1.80734055978932     -0.86203754739531
  H   -0.34860646038492     -0.41350165258446     -1.86090423891075
  H   -1.57849296125421     -1.40339955822566     -1.04603133226233
  N   -1.60182609913481      0.93553250870393      0.17141190493552
  O   -1.46618282435656      1.80073457239115     -0.69049486605412
  O   -2.55880627991030      0.80652354666015      0.92807590632645
