15
Coordinates from ORCA-job run
  C   0.82509652409417      0.58914736065711      0.44704464914389
  C   -0.51725408239616     -0.09509493772005      0.25459354868774
  Br  0.95331593077943      1.46841669929457      2.15178545181140
  H   -0.73954044543170     -0.72637724292616      1.11456259351805
  H   1.02589645281086      1.32019206543081     -0.33216196212617
  N   1.88646386976067     -0.46911737757860      0.33658666776659
  O   2.68371855369468     -0.33696739165690     -0.58822531371473
  O   1.83551513101352     -1.39698508585956      1.13524709670145
  C   -0.59184208870172     -0.86271977223778     -1.05609343221507
  H   -0.33041626944228     -0.21873258427603     -1.89725672427610
  H   -1.60633259858291     -1.23957672661556     -1.19948057211415
  H   0.08408006503214     -1.71844135558294     -1.03219801985334
  N   -1.57145921393700      0.97160640893598      0.23748007041307
  O   -2.54700359025702      0.80406430195225      0.96220941820248
  O   -1.39023823843668      1.91058563818287     -0.53409347194510
