15
Coordinates from ORCA-job run
  C   0.81736890466035      0.40445892073100      0.76367428303220
  C   -0.61247277331101      0.00451083278057      0.40483348847886
  Br  1.50643147421960     -0.70136557968864      2.17865507982502
  H   -1.20005529688846      0.10476007483055      1.31879155620518
  H   0.85024437895275      1.43741918748374      1.10683628859843
  N   1.73347866354327      0.34654755803091     -0.43281088067480
  O   2.01577548602137     -0.75477265151820     -0.88485853513190
  O   2.09418896979697      1.43806282038115     -0.86479539397686
  C   -0.81459276984721     -1.34696834694709     -0.24667007113648
  H   -0.35759406759621     -1.37948663172607     -1.23251160072923
  H   -1.88538322091340     -1.53670564239478     -0.34321873784371
  H   -0.37635088794188     -2.13061653825165      0.37104168160662
  N   -1.13657797895261      1.09810068255914     -0.49521235067256
  O   -0.80474047842917      1.05374900911307     -1.67692560006536
  O   -1.83072040331439      1.96330630461630      0.03317079248457
