15
Coordinates from ORCA-job run
  C   0.98516078050451      0.01364225043177      0.37828719999813
  C   -0.51131485691852      0.00146121881919      0.09575812533704
  Br  1.98144644382431     -1.10235783025749     -0.81768507581731
  H   -0.94309619501603      0.82445658425191      0.67188834600662
  H   1.15485317056991     -0.35236272205170      1.39152959425917
  N   1.51826359349849      1.44538035167781      0.41490310229730
  O   0.92917170685677      2.14485482893376      1.23226568035021
  O   2.45620462856451      1.76936914667011     -0.28937575973400
  C   -1.17502697571400     -1.31487413616397      0.43390852425867
  H   -2.24489446657454     -1.25692056296564      0.23805606635534
  H   -1.02826845968165     -1.52840865771162      1.49528000010272
  H   -0.76244737753941     -2.13092594425835     -0.15746127381842
  N   -0.73430588338149      0.38929674446119     -1.34505098704697
  O   -0.20633493176171      1.44180888938074     -1.69393795655517
  O   -1.41841117723114     -0.34442016121770     -2.04936558599333
