12

C	-0.18241	0.041935	-1.425793
C	-0.077162	0.000142	0.087119
Cl	-1.933133	0.077612	-1.947919
H	1.002606	-0.06235	0.262171
H	0.177439	-0.923867	-1.802073
H	-0.571468	-0.890339	0.485066
N	0.524358	1.182665	-1.901668
H	1.505566	0.992089	-1.555968
H	0.567303	1.140161	-2.916094
C	-0.628514	1.18169	0.740699
N	-1.086028	2.088235	1.32961
H	2.762236	0.123948	-0.85195
