19

C	-0.430493	-0.064501	-1.460036
C	0.0	0.0	0.0
Cl	-2.219411	-0.3039	-1.622914
H	1.095259	0.0	0.0
N	-0.120667	1.275202	-2.123359
O	0.932143	1.34353	-2.753559
O	-0.896033	2.2109	-1.942866
C	0.293481	-1.166676	-2.189969
H	0.067828	-1.148662	-3.257937
H	-0.026297	-2.109493	-1.750367
H	1.365569	-1.034723	-2.016834
N	-0.356853	-1.279075	0.616575
H	-1.177179	-1.173364	1.201645
H	0.428358	-1.550699	1.200117
C	-0.486248	1.207874	0.781303
H	-0.090326	2.143102	0.383278
H	-1.579638	1.273442	0.802079
H	-0.113474	1.105494	1.804676
H	2.833214	0.0	0.0
