19

C	-0.606802	-0.033201	-1.396058
C	0.0	0.0	0.0
Cl	0.154555	1.207057	-2.444684
H	1.095088	0.0	0.0
N	-0.265806	-1.367357	-2.069932
O	0.682842	-2.004006	-1.634374
O	-0.956701	-1.696561	-3.034944
C	-2.108168	0.13741	-1.436754
H	-2.478089	0.033228	-2.454354
H	-2.553483	-0.626279	-0.795954
H	-2.366696	1.127716	-1.062625
N	-0.497839	-1.198623	0.705037
H	-0.719791	-0.941535	1.659667
H	0.286787	-1.843029	0.750175
C	-0.405212	1.258458	0.753611
H	-1.457386	1.242729	1.062344
H	0.226956	1.320472	1.644536
H	-0.219126	2.158052	0.163791
H	2.91989	0.0	0.0
