19

C	-0.449692	0.038166	-1.459303
C	0.0	0.0	0.0
Cl	0.344547	-1.284147	-2.338981
H	1.093991	0.0	0.0
N	-1.96175	-0.199259	-1.52142
O	-2.639859	0.734147	-1.081121
O	-2.421381	-1.252833	-1.937915
C	-0.133589	1.342644	-2.160823
H	0.932158	1.536664	-2.019137
H	-0.351735	1.263297	-3.228254
H	-0.722029	2.153377	-1.734756
N	-0.45469	-1.257141	0.602887
H	0.373204	-1.792957	0.842764
H	-0.957727	-1.067768	1.460527
C	-0.410989	1.201762	0.836683
H	-1.488286	1.236085	1.024542
H	0.123604	1.116585	1.787595
H	-0.102591	2.1461	0.385416
H	2.85528	0.0	0.0
