12

C	-0.484805	0.005534	-1.460488
C	0.0	0.0	0.0
Cl	0.155921	1.444027	-2.30933
H	1.093148	0.0	0.0
H	-0.335614	-0.929556	0.471665
C	-0.01927	-1.204594	-2.147581
N	0.336804	-2.168179	-2.717622
C	-1.951543	0.043558	-1.536643
N	-3.125862	0.066018	-1.576846
C	-0.536427	1.138248	0.731871
N	-0.989368	2.040725	1.330753
Br	3.388783	0.0	0.0
