12

C	-0.489366	-0.00518	-1.459183
C	0.0	0.0	0.0
Cl	0.198641	-1.442722	-2.275201
H	1.09319	0.0	0.0
H	-0.336527	-0.926385	0.474182
C	-1.95347	-0.103974	-1.525872
N	-3.125044	-0.194942	-1.546919
C	-0.066982	1.20131	-2.177978
N	0.239801	2.158213	-2.786828
C	-0.538404	1.148185	0.716089
N	-0.991706	2.069145	1.286924
Br	3.397446	0.0	0.0
