12

C	-0.486397	-0.011858	-1.460267
C	0.0	0.0	0.0
Cl	0.189896	1.42503	-2.287604
H	1.09313	0.0	0.0
H	-0.339549	0.930103	0.464435
C	-0.050219	-1.220472	-2.167062
N	0.267519	-2.179629	-2.766718
C	-1.951087	0.072341	-1.530957
N	-3.123526	0.151416	-1.550466
C	-0.535353	-1.143078	0.726958
N	-0.982485	-2.059549	1.309767
Br	3.389778	0.0	0.0
