12

C	-0.484116	0.035529	-1.460039
C	0.0	0.0	0.0
Cl	0.159467	1.489138	-2.281227
H	1.093114	0.0	0.0
H	-0.335551	-0.938893	0.452886
C	-0.021214	-1.161921	-2.170258
N	0.332436	-2.115014	-2.759059
C	-1.950884	0.077633	-1.536148
N	-3.125054	0.104471	-1.579171
C	-0.535596	1.123652	0.754756
N	-0.984258	2.016374	1.371538
Br	3.387185	0.0	0.0
