12

C	-0.484479	-0.005338	-1.460422
C	0.0	0.0	0.0
Cl	0.156247	-1.443142	-2.310659
H	1.092992	0.0	0.0
H	-0.335676	0.929287	0.472204
C	-1.951349	-0.042947	-1.536256
N	-3.125713	-0.065603	-1.576182
C	-0.019001	1.205185	-2.146625
N	0.337794	2.16866	-2.716389
C	-0.535444	-1.139333	0.731111
N	-0.985137	-2.044131	1.329245
Br	3.389198	0.0	0.0
