12

C	-0.486761	-0.038531	-1.459401
C	0.0	0.0	0.0
Cl	0.148993	-1.497561	-2.276922
H	1.093117	0.0	0.0
H	-0.334919	0.940465	0.449923
C	-1.953476	-0.073619	-1.532749
N	-3.12801	-0.092843	-1.571939
C	-0.018423	1.153895	-2.173318
N	0.333322	2.107198	-2.761661
C	-0.536983	-1.120858	0.757351
N	-0.986148	-2.014597	1.371926
Br	3.389766	0.0	0.0
