12

C	-0.471437	0.005541	-1.458265
C	0.0	0.0	0.0
Cl	-2.277223	0.133282	-1.531723
H	1.094476	0.0	0.0
H	-0.3378	0.925778	0.47376
C	0.072065	1.170557	-2.162554
N	0.497652	2.099371	-2.742475
C	-0.091526	-1.223224	-2.160098
N	0.178406	-2.204683	-2.746893
C	-0.526642	-1.149109	0.720735
N	-0.960934	-2.069702	1.30589
Br	3.371533	0.0	0.0
