12

C	-0.490229	-0.018092	-1.458718
C	0.0	0.0	0.0
Cl	0.194656	-1.463924	-2.262652
H	1.093199	0.0	0.0
H	-0.336191	-0.922313	0.48242
C	-1.954472	-0.115168	-1.523729
N	-3.126223	-0.201375	-1.548269
C	-0.067454	1.181177	-2.189036
N	0.239049	2.132841	-2.806727
C	-0.538436	1.154358	0.706242
N	-0.994631	2.079958	1.267158
Br	3.39393	0.0	0.0
