13

C	-0.504938	0.094093	-1.40658
C	0.0	0.0	0.0
F	-1.878463	0.101437	-1.445466
H	1.089669	0.0	0.0
H	-0.124099	0.953965	-1.949116
H	-0.395165	-0.87688	0.505944
N	-0.078363	-1.131774	-2.169376
O	-0.403951	-2.214471	-1.689611
O	0.510003	-0.952087	-3.231755
N	-0.449259	1.194286	0.75729
O	-0.747167	1.030084	1.937609
O	-0.460565	2.27367	0.166684
Br	3.408167	0.0	0.0
