13

C	-0.485823	-0.017084	-1.420715
C	0.0	0.0	0.0
F	-0.21514	1.137324	-2.067101
H	1.088478	0.0	0.0
H	-0.017849	-0.84913	-1.952481
H	-0.360441	-0.881582	0.530083
N	-1.979033	-0.28114	-1.525341
O	-2.368328	-1.271102	-0.912609
O	-2.655681	0.44471	-2.235861
N	-0.524429	1.183702	0.733902
O	0.142461	1.61081	1.668255
O	-1.621083	1.623931	0.379421
Br	3.470082	0.0	0.0
