13

C	-0.482477	0.001191	-1.422543
C	0.0	0.0	0.0
F	-0.238642	1.174389	-2.045159
H	1.088496	0.0	0.0
H	0.008104	-0.808562	-1.969042
H	-0.35178	-0.89717	0.509891
N	-1.968636	-0.29812	-1.53578
O	-2.336396	-1.304453	-0.936356
O	-2.65936	0.419547	-2.241528
N	-0.542242	1.158299	0.757213
O	-1.643821	1.590251	0.405555
O	0.113066	1.572772	1.705597
Br	3.479793	0.0	0.0
