13

C	-0.468798	0.021562	-1.425549
C	0.0	0.0	0.0
F	-0.224934	1.258147	-1.953518
H	1.090955	0.0	0.0
H	-0.021993	-0.741662	-2.05557
H	-0.389756	0.845693	0.55972
N	-1.966587	-0.166559	-1.532941
O	-2.6592	0.301289	-0.632034
O	-2.381505	-0.715847	-2.550177
N	-0.458676	-1.234557	0.669915
O	-0.700248	-2.208395	-0.049032
O	-0.535836	-1.221409	1.892824
Br	3.417361	0.0	0.0
