13

C	-0.587223	0.151956	-1.373171
C	0.0	0.0	0.0
F	-1.925062	0.422554	-1.305583
H	1.089506	0.0	0.0
H	-0.081595	0.968753	-1.891388
H	-0.321929	0.859333	0.589261
N	-0.402886	-1.050898	-2.276345
O	-1.405714	-1.608365	-2.699151
O	0.760126	-1.316139	-2.537562
N	-0.500941	-1.193761	0.724133
O	-0.711968	-1.0652	1.927842
O	-0.63618	-2.236063	0.086075
Br	3.433744	0.0	0.0
