16

C	-0.170112	-0.1596	-1.528777
C	0.0	0.0	0.0
Cl	-1.705789	-1.014661	-2.003695
H	1.092116	0.0	0.0
N	-0.412633	1.284446	-2.165781
O	-1.428261	1.893024	-1.863365
O	0.45614	1.670441	-2.939896
N	0.951473	-0.768276	-2.029714
H	1.789715	-0.554746	-1.44833
H	1.071006	-0.647289	-3.023975
N	-0.449251	-1.243406	0.698324
O	0.118446	-2.281106	0.382583
O	-1.336843	-1.145193	1.544767
C	-0.574266	1.165982	0.629768
N	-0.941528	2.127582	1.198882
F	2.547188	0.0	0.0
