16

C	-0.145242	-0.157885	-1.519419
C	0.0	0.0	0.0
Cl	-1.784574	-0.715866	-2.0146
H	1.107227	0.0	0.0
N	0.008758	1.254159	-2.196214
O	-0.196093	1.287198	-3.405458
O	0.462304	2.170744	-1.522103
N	0.866192	-0.997302	-1.981993
H	1.732073	-0.789987	-1.447442
H	0.965333	-0.952159	-2.986619
N	-0.435571	-1.270923	0.667405
O	0.250101	-2.266268	0.463717
O	-1.430772	-1.232655	1.392535
C	-0.701133	1.114864	0.589048
N	-1.267727	2.00287	1.111887
F	2.529548	0.0	0.0
