16

C	-0.563765	-0.071174	-1.407069
C	0.0	0.0	0.0
Cl	0.208787	1.21157	-2.373348
H	1.106759	0.0	0.0
N	-0.081618	-1.388888	-2.102146
O	-0.793246	-1.772124	-3.02883
O	0.950803	-1.908842	-1.720087
N	-1.96656	0.073574	-1.489072
H	-2.259976	-0.033652	-2.452729
H	-2.387358	-0.66572	-0.936518
N	-0.457238	-1.129753	0.837368
O	-1.089347	-2.047489	0.295832
O	-0.147816	-1.106234	2.02315
C	-0.401359	1.234389	0.643864
N	-0.687659	2.243519	1.174651
F	2.417356	0.0	0.0
