16

C	-0.424447	0.068891	-1.465853
C	0.0	0.0	0.0
Cl	0.342894	1.563479	-2.121029
H	1.094993	0.0	0.0
N	0.199858	-1.103187	-2.245753
O	0.462187	-2.103211	-1.593337
O	0.260112	-0.991069	-3.462583
N	-1.805664	-0.017551	-1.735848
H	-2.048244	0.436963	-2.604417
H	-2.368238	0.306313	-0.963421
N	-0.551363	-1.201689	0.726815
O	0.243908	-1.926376	1.3067
O	-1.777906	-1.341976	0.735387
C	-0.530192	1.156967	0.695307
N	-0.965969	2.085003	1.271501
F	2.454975	0.0	0.0
