16

C	-0.612695	0.047335	-1.389269
C	0.0	0.0	0.0
Cl	0.140531	1.492836	-2.232672
H	1.092917	0.0	0.0
N	-0.163912	-1.120775	-2.275968
O	-0.982811	-1.501341	-3.108161
O	0.975708	-1.521074	-2.143206
N	-2.016343	0.069751	-1.368194
H	-2.347052	0.885118	-0.866601
H	-2.400293	0.032234	-2.302917
N	-0.424024	-1.222776	0.726152
O	-0.430122	-1.170997	1.953742
O	-0.661101	-2.230218	0.062262
C	-0.451072	1.16089	0.741278
N	-0.837044	2.124959	1.293793
F	2.41898	0.0	0.0
