16

C	-0.550782	0.012631	-1.421671
C	0.0	0.0	0.0
Cl	0.047978	1.480367	-2.229607
H	1.09256	0.0	0.0
N	0.079625	-1.151938	-2.272008
O	-0.667844	-1.631956	-3.122912
O	1.240202	-1.45411	-2.074762
N	-1.962705	-0.01236	-1.495527
H	-2.271007	-0.902635	-1.116165
H	-2.245716	0.025719	-2.468643
N	-0.399568	-1.231814	0.71113
O	-0.271819	-1.251841	1.930379
O	-0.776169	-2.194275	0.02846
C	-0.478711	1.147817	0.739381
N	-0.849022	2.080322	1.352201
F	2.420032	0.0	0.0
