17

C	-0.375057	0.118558	-1.47193
C	0.0	0.0	0.0
F	-0.349541	-1.158704	-2.080484
H	1.096853	0.0	0.0
H	-1.407219	0.478193	-1.594042
C	0.633825	0.995638	-2.179383
H	0.47026	2.03475	-1.887139
H	0.542699	0.902976	-3.265568
H	1.625553	0.69764	-1.825178
C	-0.574201	-1.232859	0.670396
H	-0.250528	-1.264985	1.715495
H	-1.675335	-1.233196	0.649376
H	-0.224193	-2.140874	0.177839
N	-0.410554	1.263553	0.640946
H	-1.262758	1.125151	1.177533
H	0.326798	1.521792	1.288113
F	2.760746	0.0	0.0
