17

C	-0.298911	-0.0434	-1.483457
C	0.0	0.0	0.0
F	-1.631221	-0.425186	-1.774483
H	1.104138	0.0	0.0
H	-0.196403	0.972511	-1.886722
C	0.668051	-0.971226	-2.18976
H	0.603597	-0.864918	-3.277497
H	1.671452	-0.733614	-1.813088
H	0.439517	-2.010492	-1.9347
C	-0.549142	-1.204294	0.738672
H	-1.643545	-1.198077	0.734782
H	-0.195705	-2.135586	0.291054
H	-0.198048	-1.19395	1.776209
N	-0.563044	1.235756	0.597767
H	-0.366149	1.181067	1.594515
H	0.036989	1.991283	0.272398
F	2.794692	0.0	0.0
