17

C	-0.290257	-0.063167	-1.479916
C	0.0	0.0	0.0
F	-1.650079	-0.390902	-1.755331
H	1.097414	0.0	0.0
H	-0.148451	0.945351	-1.878266
C	0.628275	-1.044638	-2.177684
H	0.340758	-2.072308	-1.937568
H	0.593842	-0.926057	-3.264909
H	1.635372	-0.853194	-1.786171
C	-0.48088	-1.236957	0.750377
H	-0.168996	-1.166129	1.797015
H	-1.573474	-1.33372	0.714549
H	-0.04003	-2.14999	0.34151
N	-0.498251	1.255608	0.576341
H	0.128041	1.508032	1.332275
H	-1.418623	1.108514	0.979867
F	2.753171	0.0	0.0
