17

C	-0.523003	0.024182	-1.41949
C	0.0	0.0	0.0
F	0.01901	1.114751	-2.109172
H	1.095547	0.0	0.0
H	-0.166464	-0.872675	-1.942907
C	-2.028567	0.161718	-1.540015
H	-2.327175	1.070227	-1.015177
H	-2.320327	0.246264	-2.590675
H	-2.546286	-0.695985	-1.103302
C	-0.417407	-1.280631	0.712177
H	-0.158071	-2.167444	0.126788
H	-1.491836	-1.321832	0.934111
H	0.132767	-1.345784	1.650736
N	-0.439982	1.206576	0.723067
H	-1.106079	0.969346	1.448858
H	0.385078	1.581158	1.171973
F	2.698144	0.0	0.0
