15

C	-0.579285	0.033373	-1.366216
C	0.0	0.0	0.0
F	-1.937047	0.164477	-1.395958
H	1.088193	0.0	0.0
H	-0.344551	0.907957	0.51054
N	-0.082255	1.184394	-2.223906
O	0.437392	2.133444	-1.652075
O	-0.326388	1.10222	-3.426089
N	-0.240203	-1.222877	-2.141945
O	-1.143324	-2.019431	-2.348521
O	0.930734	-1.328906	-2.471373
N	-0.417938	-1.253267	0.629583
H	0.38237	-1.589795	1.149374
H	-1.194757	-1.126351	1.262328
F	2.586548	0.0	0.0
