15

C	-0.425583	-0.011053	-1.426238
C	0.0	0.0	0.0
F	0.205146	0.916295	-2.160564
H	1.092526	0.0	0.0
H	-0.348135	0.950652	0.426673
N	-0.186629	-1.363887	-2.079031
O	-1.14452	-2.124176	-2.163962
O	0.958208	-1.580703	-2.436974
N	-1.925684	0.249654	-1.66408
O	-2.674946	0.174205	-0.69489
O	-2.256719	0.533269	-2.810965
N	-0.44963	-1.201154	0.682666
H	0.277378	-1.466823	1.332619
H	-1.320853	-1.058258	1.172985
F	2.60197	0.0	0.0
