15

C	-0.358634	0.03972	-1.448704
C	0.0	0.0	0.0
F	0.102113	-1.011717	-2.132587
H	1.092556	0.0	0.0
H	-0.400106	0.888708	0.48878
N	-1.877817	0.053501	-1.663518
O	-2.417625	-1.033589	-1.858374
O	-2.44868	1.131224	-1.515715
N	0.102895	1.297855	-2.166847
O	0.217855	1.201391	-3.38489
O	0.269983	2.304096	-1.494072
N	-0.422413	-1.233538	0.64961
H	0.294538	-1.925333	0.478094
H	-1.307048	-1.590222	0.310249
F	2.57425	0.0	0.0
