15

C	-0.494724	-0.010608	-1.399681
C	0.0	0.0	0.0
F	0.022787	0.950495	-2.167049
H	1.09385	0.0	0.0
H	-0.372286	-0.891358	0.505533
N	-0.260889	-1.326777	-2.131048
O	-0.580097	-1.329463	-3.317238
O	0.203542	-2.26737	-1.504337
N	-2.017885	0.136741	-1.478482
O	-2.648508	-0.771766	-0.942624
O	-2.487748	1.121765	-2.026152
N	-0.456591	1.258948	0.613293
H	0.381075	1.742443	0.907708
H	-0.997016	1.070106	1.445135
F	2.595791	0.0	0.0
