17
Coordinates from ORCA-job run
  C   -0.67578290154380      0.20498861423986      0.25623935126474
  C   0.62397334326057     -0.61217416234470      0.12470033556731
  Br  -0.48996371739915      1.49222111701260      1.73403744076064
  H   0.41205025057855     -1.36193264823582     -0.65308976888861
  N   -1.72425669576536     -0.71309979413929      0.64862774151673
  H   -1.88607116865340     -1.37898037899527     -0.10158018260943
  H   -2.58829234781428     -0.21178966893393      0.82171770904029
  C   -0.97205966011098      1.00475764195524     -1.00765731445200
  H   -1.02141751062729      0.31904927564715     -1.86175520038834
  H   -0.22121861496822      1.76890411188559     -1.20915946407084
  H   -1.94000621696926      1.49931781674249     -0.90677868718182
  C   0.89828178081165     -1.35342730066546      1.35868633643505
  N   1.20192411228565     -1.95311827494058      2.32111034605153
  C   1.86113118744160      0.18141920802943     -0.30233507623532
  H   2.72796417477006     -0.48052299046662     -0.33759434204323
  H   1.72456769896758      0.61297443613541     -1.29457551501393
  H   2.06817628573608      0.98041299707393      0.41040629024723
