17
Coordinates from ORCA-job run
  C   -0.75815672517462      0.22815282890741      0.09696789077833
  C   0.68849427744147     -0.19485081457300      0.49336568787433
  Br  -1.95441280927183     -0.54133591049913      1.47172505462459
  H   0.88414368800034      0.18979010885030      1.50065766857303
  N   -1.21506983829609     -0.24976950793893     -1.17855562483767
  H   -0.71006457607726      0.21141249204496     -1.92776944430078
  H   -1.12077153182843     -1.25294234835630     -1.27010597559620
  C   -0.92133025412350      1.73800664787154      0.14946493475633
  H   -0.63016437027114      2.13064804404532      1.12492881999774
  H   -1.96275501082787      1.99357082864796     -0.04436431386534
  H   -0.29544640110407      2.20564336024386     -0.61668961506613
  C   1.60606403251368      0.47443211978634     -0.43505607024791
  N   2.31101369028813      0.99144557365904     -1.22002889810504
  C   0.96116786741349     -1.70111782696429      0.46736005514448
  H   1.98993317357419     -1.89602961180176      0.77542497714173
  H   0.83662557069417     -2.10563993414144     -0.53887423888983
  H   0.28972921704934     -2.22141604978190      1.14954909201832
