17
Coordinates from ORCA-job run
  C   -0.69841494983699      0.28199492801913      0.23517073892054
  C   0.54580326492387     -0.61329112182005     -0.01842410765930
  Br  -0.43342198927822      1.22595469899021      1.94662598520452
  H   0.33224327320578     -1.11046848546298     -0.97630748790973
  N   -1.92851079591564     -0.45834088747442      0.36617895700326
  H   -2.17233726519563     -0.88336394977758     -0.52246148695900
  H   -1.85292698082652     -1.18250378213083      1.07197259862487
  C   -0.86774959206555      1.31907636667785     -0.86158350069228
  H   -0.03032346731207      2.01360649079526     -0.90269084048022
  H   -1.78271580352670      1.88057022914223     -0.67405207207715
  H   -0.95624233482063      0.81480242167413     -1.83123355540620
  C   0.60526991336505     -1.67213841882027      0.99204782314542
  N   0.64210669255035     -2.52427603259419      1.79940865962648
  C   1.89534781695078      0.09930462153805     -0.13210870901063
  H   2.68107740663785     -0.62855397129298     -0.34410344738204
  H   1.87984637085262      0.82576379448006     -0.94539466646777
  H   2.13994844029165      0.61186309805638      0.79795511151925
