17
Coordinates from ORCA-job run
  C   -0.79700430588916      0.22915404823212      0.33681076226565
  C   0.55900451372181     -0.47394071308494      0.62919004023569
  Br  -1.51582631913112      0.75702539663434      2.10545010509108
  H   0.35091024301425     -1.27741855867513      1.34594365501648
  N   -1.77977271986972     -0.62855122425365     -0.26511634650692
  H   -1.84822031310474     -1.52364500728848      0.20402247419216
  H   -1.58917713705802     -0.76569198381775     -1.25011890080875
  C   -0.64391198353107      1.48451000916415     -0.50191761909639
  H   -1.62010042707148      1.95431665165776     -0.62170581526506
  H   0.03977283258769      2.19317857658803     -0.03477272831127
  H   -0.25930376292180      1.22739673251599     -1.49430981778770
  C   1.50846709606256      0.44365589521513      1.26064595521317
  N   2.30238672315394      1.18185933978368      1.71281911124711
  C   1.19786351426858     -1.08159831614607     -0.62639256878207
  H   0.51986347234802     -1.79765513191848     -1.09280083589054
  H   2.11217111956226     -1.61174502908305     -0.35399957458100
  H   1.46287745385800     -0.31185068552363     -1.35274789623163
