14

C	-0.364034	-0.00028	-1.487965
C	0.0	0.0	0.0
F	-1.753592	-0.026947	-1.638418
H	1.097306	0.0	0.0
H	0.021869	-0.931335	-1.913373
C	0.206009	1.200455	-2.202157
H	1.288823	1.226675	-2.048786
H	-0.013681	1.134495	-3.270873
H	-0.237192	2.118218	-1.809187
C	-0.501033	-1.199871	0.666661
N	-0.890565	-2.178102	1.186011
C	-0.493276	1.20235	0.669056
N	-0.877305	2.18383	1.186581
Cl	3.208369	0.0	0.0
