14

C	-0.362569	0.000127	-1.48836
C	0.0	0.0	0.0
F	-1.750641	-0.029859	-1.640948
H	1.097288	0.0	0.0
H	0.026184	-0.929664	-1.913848
C	0.20596	1.202462	-2.19966
H	-0.243721	2.118271	-1.810113
H	1.286276	1.234215	-2.039821
H	-0.006248	1.134895	-3.268758
C	-0.501617	-1.199957	0.665916
N	-0.892487	-2.178081	1.184501
C	-0.493609	1.202121	0.669392
N	-0.877589	2.181637	1.19077
Cl	3.204769	0.0	0.0
