14

C	-0.4539	0.013298	-1.47192
C	0.0	0.0	0.0
F	0.014658	-1.153445	-2.057118
H	1.096272	0.0	0.0
H	0.055424	0.851576	-1.958154
C	-1.953116	0.069202	-1.665324
H	-2.183233	0.049953	-2.732719
H	-2.419702	-0.799557	-1.19418
H	-2.37142	0.979698	-1.230463
C	-0.512396	-1.18343	0.68842
N	-0.955698	-2.133983	1.216391
C	-0.46713	1.214874	0.665605
N	-0.850438	2.212266	1.153407
Cl	3.210215	0.0	0.0
