14

C	-0.444857	-0.049058	-1.476276
C	0.0	0.0	0.0
F	-0.123298	1.177258	-2.043029
H	1.097062	0.0	0.0
H	-1.535088	-0.145081	-1.539767
C	0.272822	-1.14709	-2.224313
H	0.025014	-1.084403	-3.28619
H	-0.029083	-2.128068	-1.850475
H	1.349697	-1.029149	-2.086767
C	-0.473143	-1.200991	0.686055
N	-0.860356	-2.18718	1.192992
C	-0.517918	1.194758	0.663329
N	-0.964157	2.148595	1.182275
Cl	3.236935	0.0	0.0
