14

C	-0.446559	-0.063036	-1.476141
C	0.0	0.0	0.0
F	-0.156395	1.168891	-2.048044
H	1.097015	0.0	0.0
H	-1.534324	-0.18627	-1.53675
C	0.297238	-1.144868	-2.221699
H	0.029304	-2.131905	-1.837536
H	1.371023	-0.993836	-2.092611
H	0.039184	-1.098917	-3.282124
C	-0.470171	-1.197988	0.694227
N	-0.857094	-2.182516	1.204541
C	-0.521387	1.197467	0.655495
N	-0.971017	2.152758	1.168807
Cl	3.229231	0.0	0.0
