14

C	-0.452168	0.040407	-1.472127
C	0.0	0.0	0.0
F	-0.019121	-1.134868	-2.066959
H	1.096201	0.0	0.0
H	0.084535	0.865636	-1.950609
C	-1.947493	0.146992	-1.666988
H	-2.176476	0.127916	-2.734707
H	-2.446502	-0.699806	-1.189492
H	-2.332474	1.075431	-1.240131
C	-0.517603	-1.192169	0.66806
N	-0.942956	-2.160972	1.177031
C	-0.460607	1.206835	0.685165
N	-0.834265	2.199956	1.188867
Cl	3.203873	0.0	0.0
