15

C	0.0	0.0	0.0
C	-0.489775	0.136207	-1.453904
F	1.376805	0.0	0.0
H	-1.566014	-0.096376	-1.4182
C	-0.422928	1.133023	0.842596
N	-0.520719	2.087724	1.521257
C	-0.407947	-1.288091	0.594406
N	-0.522062	-2.357209	1.068411
C	0.213079	-0.847571	-2.27431
N	0.770495	-1.60919	-2.974193
C	-0.293989	1.554678	-1.989148
H	0.736024	1.894021	-1.855438
H	-0.537062	1.580604	-3.052834
H	-0.975115	2.22714	-1.464932
Br	-3.435037	0.0	0.0
