15

C	0.0	0.0	0.0
C	-0.50434	-0.022406	-1.454185
F	1.37616	0.0	0.0
H	-0.102053	-0.948252	-1.88541
C	-0.43202	1.221769	0.705565
N	-0.682263	2.223856	1.265792
C	-0.455321	-1.200251	0.718667
N	-0.718694	-2.191678	1.290383
C	0.103932	1.100701	-2.172034
N	0.580382	1.99553	-2.764756
C	-2.031322	-0.008078	-1.536158
H	-2.483914	-0.845214	-1.003642
H	-2.468582	0.891231	-1.102614
H	-2.335708	-0.068117	-2.583165
Br	-5.075044	0.0	0.0
