15

C	0.0	0.0	0.0
C	-0.481488	-0.00865	-1.461836
F	1.377619	0.0	0.0
H	-1.569733	-0.178947	-1.40994
C	-0.434096	1.213692	0.715945
N	-0.566441	2.233233	1.286604
C	-0.412495	-1.21852	0.722615
N	-0.545553	-2.233434	1.299061
C	0.168085	-1.116895	-2.158679
N	0.684176	-1.981107	-2.764528
C	-0.195542	1.32505	-2.155046
H	0.856177	1.606615	-2.056508
H	-0.826384	2.100989	-1.716322
H	-0.4375	1.245125	-3.215583
Br	-3.430876	0.0	0.0
