15

C	-0.363965	0.042267	-1.492866
C	0.0	0.0	0.0
Cl	0.051753	-1.577819	-2.248961
H	1.103521	0.0	0.0
C	-1.804362	0.216755	-1.709589
N	-2.951811	0.353354	-1.917089
N	0.366489	1.121168	-2.053683
H	0.202506	1.204077	-3.047941
H	1.360129	0.984578	-1.867132
C	-0.532515	-1.179406	0.672244
N	-0.933985	-2.118048	1.252083
N	-0.55318	1.206709	0.629598
H	-0.258591	1.201812	1.601258
H	-0.085801	1.992657	0.187925
Cl	3.32442	0.0	0.0
