15

C	-0.542988	0.036528	-1.441983
C	0.0	0.0	0.0
Cl	0.012145	1.516869	-2.256305
H	1.094356	0.0	0.0
C	-0.0318	-1.109308	-2.217837
N	0.262531	-2.073853	-2.821923
N	-1.998374	0.059955	-1.40557
H	-2.323364	-0.842697	-1.068529
H	-2.352129	0.185636	-2.347814
C	-0.476611	-1.258175	0.604752
N	-0.933766	-2.215168	1.114011
N	-0.427608	1.176744	0.725795
H	0.249307	1.372411	1.45138
H	-1.350205	1.065729	1.121303
Cl	3.261457	0.0	0.0
