15

C	-0.315989	-0.062001	-1.500003
C	0.0	0.0	0.0
Cl	-2.083726	-0.361712	-1.774509
H	1.097329	0.0	0.0
C	-0.047001	1.25212	-2.115951
N	0.223544	2.247455	-2.679201
N	0.435812	-1.145323	-2.056792
H	1.409839	-1.047091	-1.762665
H	0.38163	-1.141715	-3.06839
C	-0.452028	-1.231985	0.659173
N	-0.830456	-2.155499	1.279685
N	-0.494483	1.213613	0.610195
H	-1.406345	1.073186	1.024875
H	0.156894	1.514248	1.323536
Cl	3.247269	0.0	0.0
