15

C	-0.315323	-0.063388	-1.500969
C	0.0	0.0	0.0
Cl	-2.084302	-0.365282	-1.776678
H	1.097385	0.0	0.0
C	-0.050873	1.25186	-2.116278
N	0.212365	2.248808	-2.680539
N	0.439755	-1.14421	-2.057485
H	0.399369	-1.135232	-3.069473
H	1.409816	-1.050063	-1.75041
C	-0.452765	-1.231218	0.659994
N	-0.836459	-2.153407	1.279248
N	-0.493877	1.214666	0.610132
H	-1.401236	1.07184	1.033733
H	0.163907	1.519999	1.315561
Cl	3.244702	0.0	0.0
