15

C	-0.545449	0.047303	-1.439991
C	0.0	0.0	0.0
Cl	0.010756	1.534032	-2.244642
H	1.094465	0.0	0.0
C	-0.035782	-1.092795	-2.226078
N	0.268303	-2.054282	-2.830755
N	-2.000095	0.073459	-1.401251
H	-2.355587	0.211462	-2.341109
H	-2.327079	-0.831382	-1.073153
C	-0.477439	-1.262181	0.597303
N	-0.932853	-2.223547	1.099474
N	-0.425599	1.172946	0.734159
H	0.250188	1.358216	1.463386
H	-1.349831	1.063243	1.12659
Cl	3.263157	0.0	0.0
