16

C	-0.446367	-0.022101	-1.434812
C	0.0	0.0	0.0
F	-1.808249	-0.132781	-1.567243
H	1.092029	0.0	0.0
H	0.035729	-0.819559	-1.993125
N	-0.044444	1.266184	-2.102848
O	-0.845303	2.196577	-2.079461
O	1.077396	1.288723	-2.598345
N	-0.35775	-1.286067	0.57548
O	-0.728141	-1.331002	1.759923
O	-0.147005	-2.297074	-0.118377
C	-0.488967	1.165198	0.824242
H	-0.098089	1.059764	1.835736
H	-1.57919	1.224325	0.865684
H	-0.093178	2.09274	0.406701
H	2.509527	0.0	0.0
