16

C	-0.56096	0.067722	-1.404564
C	0.0	0.0	0.0
F	-0.282737	1.273196	-1.965447
H	1.090891	0.0	0.0
H	-1.640822	-0.102131	-1.439278
N	0.031411	-1.007941	-2.287231
O	0.859366	-0.696706	-3.127987
O	-0.415401	-2.132839	-2.069593
N	-0.534187	-1.244531	0.629167
O	-1.726278	-1.235337	0.960094
O	0.224292	-2.194737	0.788678
C	-0.455364	1.204131	0.802087
H	0.053868	2.083318	0.405873
H	-1.537241	1.349437	0.780866
H	-0.129589	1.075647	1.836616
H	2.768736	0.0	0.0
