16

C	-0.363225	0.03734	-1.459453
C	0.0	0.0	0.0
F	-0.099554	-1.090787	-2.157583
H	1.091883	0.0	0.0
H	0.150122	0.88093	-1.926891
N	-1.841943	0.317734	-1.632646
O	-2.162126	1.493435	-1.816416
O	-2.615701	-0.629362	-1.530166
N	-0.469864	-1.209141	0.682098
O	-0.147655	-2.29833	0.200402
O	-1.085236	-1.080548	1.752266
C	-0.43054	1.261344	0.716201
H	-1.512152	1.347766	0.830585
H	0.029601	1.271555	1.703859
H	-0.055464	2.125691	0.162378
H	2.570763	0.0	0.0
