16

C	-0.577671	0.092083	-1.395912
C	0.0	0.0	0.0
F	-0.356487	1.324657	-1.92178
H	1.090924	0.0	0.0
H	-1.650229	-0.120398	-1.420665
N	0.044119	-0.930951	-2.318147
O	0.786465	-0.549904	-3.210177
O	-0.298777	-2.08797	-2.082202
N	-0.542607	-1.24674	0.621206
O	0.218449	-2.184701	0.823599
O	-1.74569	-1.244718	0.907576
C	-0.439809	1.196499	0.825642
H	-1.517243	1.366583	0.793775
H	0.093248	2.072456	0.455516
H	-0.131986	1.037901	1.861156
H	2.77126	0.0	0.0
