16

C	-0.452754	-0.006965	-1.43195
C	0.0	0.0	0.0
F	-1.819061	-0.079862	-1.557834
H	1.092049	0.0	0.0
H	0.004589	-0.813157	-1.998022
N	-0.020819	1.272501	-2.100776
O	1.068925	1.245375	-2.665849
O	-0.773723	2.241994	-2.018054
N	-0.349958	-1.293435	0.570426
O	-0.212439	-2.295708	-0.152752
O	-0.630009	-1.355563	1.776639
C	-0.481598	1.157312	0.839298
H	-0.083431	1.041608	1.846124
H	-0.088698	2.087899	0.427125
H	-1.571037	1.217328	0.886265
H	2.519367	0.0	0.0
