18

C	-0.400817	-0.008996	-1.485822
C	0.0	0.0	0.0
Cl	0.019178	-1.617791	-2.198617
H	1.095657	0.0	0.0
C	-1.848353	0.156996	-1.643369
N	-3.00529	0.343122	-1.739875
C	0.373509	1.041263	-2.276297
H	0.184921	0.926152	-3.345011
H	1.437936	0.908822	-2.065641
H	0.066942	2.044501	-1.975594
N	-0.590971	-1.153	0.682115
H	-0.014912	-1.965412	0.486736
H	-0.51165	-0.988312	1.681595
C	-0.481986	1.269007	0.689989
H	-0.088811	1.274099	1.711762
H	-0.104215	2.16929	0.203727
H	-1.576196	1.303566	0.73337
Br	3.62209	0.0	0.0
