18

C	-0.522558	-0.023085	-1.451042
C	0.0	0.0	0.0
Cl	0.263068	1.288445	-2.401963
H	1.100126	0.0	0.0
C	-0.153789	-1.295065	-2.079469
N	0.087647	-2.346471	-2.544178
C	-2.035054	0.146246	-1.544813
H	-2.367642	0.020236	-2.576523
H	-2.503304	-0.605358	-0.907425
H	-2.316967	1.144133	-1.208115
N	-0.521878	-1.217212	0.650299
H	-0.472369	-1.073	1.653808
H	0.129869	-1.971358	0.451883
C	-0.475434	1.223043	0.765248
H	0.085014	1.281362	1.701948
H	-0.276401	2.141856	0.212409
H	-1.542705	1.159717	0.998722
Br	3.610785	0.0	0.0
