18

C	-0.395122	-0.013557	-1.484697
C	0.0	0.0	0.0
Cl	-2.214353	-0.088206	-1.641358
H	1.098195	0.0	0.0
C	0.011491	1.227023	-2.1485
N	0.326436	2.224315	-2.685476
C	0.198954	-1.216443	-2.197653
H	1.286617	-1.17167	-2.084604
H	-0.176996	-2.114391	-1.709485
H	-0.072659	-1.215622	-3.254974
N	-0.423745	-1.256003	0.613684
H	0.33033	-1.590043	1.201337
H	-1.242997	-1.108552	1.19079
C	-0.476496	1.237884	0.744799
H	-1.568963	1.262064	0.818153
H	-0.054748	1.219406	1.752632
H	-0.137144	2.155993	0.26001
Br	3.517431	0.0	0.0
