18

C	-0.359376	0.039931	-1.513799
C	0.0	0.0	0.0
Cl	0.117941	-1.529915	-2.27238
H	1.096772	0.0	0.0
C	-1.808379	0.161213	-1.694263
N	-2.974245	0.285809	-1.78464
C	0.398029	1.143034	-2.245382
H	0.042722	2.122932	-1.922632
H	1.458788	1.040829	-2.000498
H	0.254186	1.056351	-3.323808
N	-0.484514	-1.160168	0.720965
H	0.042849	-1.976476	0.441302
H	-1.465386	-1.326437	0.521072
C	-0.488606	1.260577	0.703612
H	-0.069988	2.169409	0.269269
H	-0.156124	1.198103	1.740126
H	-1.582482	1.330268	0.695392
Br	3.613027	0.0	0.0
