18

C	-0.471256	-0.003435	-1.480746
C	0.0	0.0	0.0
Cl	0.37207	1.297327	-2.397512
H	1.095469	0.0	0.0
C	-0.11616	-1.282281	-2.10327
N	0.105394	-2.339313	-2.566578
C	-1.97347	0.218836	-1.65073
H	-2.249431	0.144538	-2.703997
H	-2.24252	1.210474	-1.287573
H	-2.536798	-0.533984	-1.091956
N	-0.400847	-1.206465	0.713457
H	-1.360746	-1.470498	0.526559
H	0.208568	-1.973312	0.457214
C	-0.49523	1.225028	0.752807
H	-1.567174	1.159424	0.968342
H	-0.292032	2.149043	0.208116
H	0.039083	1.260968	1.70248
Br	3.591037	0.0	0.0
