15
Coordinates from ORCA-job run
  C   0.53388004559802      0.01560868686341     -0.10855294762481
  C   -0.84437566115273      0.09135320397903     -0.10296352559924
  C   1.32837727189085     -0.92303732878835      0.74346258451709
  H   1.68819675852832     -0.45077247676298      1.66196220297524
  H   0.74061374829470     -1.80990022243343      0.99738162738651
  H   2.20878082088625     -1.26790148748817      0.19974690189936
  N   1.30915914108448      1.01502727955056     -0.78416166569153
  O   2.51746476604091      1.06007680495151     -0.52492694475223
  O   0.78765367599198      1.73872910730844     -1.65513227074800
  N   -1.61951117731270      0.81983863547533     -0.96488949248366
  H   -1.09229208454838      1.46926675503946     -1.53334411793004
  H   -2.46383037676361      1.18467862956438     -0.55108013149417
  N   -1.59316756574392     -0.63624031889862      0.79791582479286
  H   -1.08502109149247     -1.23980014657856      1.41959621572097
  H   -2.41592827130170     -1.06792712178202      0.40698573903164
