15
Coordinates from ORCA-job run
  C   0.52938781371190      0.20919594936761     -0.00221710063861
  C   -0.83174457907077      0.00255963868714     -0.08797283542042
  C   1.53418858231153     -0.78416775806280     -0.49419325078289
  H   2.42359857498549     -0.26389168101054     -0.84951519733327
  H   1.11876940291218     -1.35661487040207     -1.32573341181668
  H   1.86582309417262     -1.47642218106332      0.28752045700776
  N   1.05372031490353      1.32507018178413      0.71183297472485
  O   2.25586125185527      1.29769984732934      1.00050161053695
  O   0.31630745500506      2.28437451720925      1.01667816987963
  N   -1.29415971221134     -1.18955620309489     -0.61084216318978
  H   -2.29332377418213     -1.29916790050462     -0.65959916591036
  H   -0.79255540606197     -2.02242288163255     -0.35485364546086
  N   -1.80148267788682      0.92672613210467      0.18127444938549
  H   -2.64829056791983      0.56924578192286      0.59486221489616
  H   -1.43709977252471      1.77637142736577      0.59225689412204
