15
Coordinates from ORCA-job run
  C   0.49465459356751      0.10249366281215      0.21159921509052
  C   -0.84690383504481     -0.00471810348388     -0.08208724612086
  C   1.53725965028279     -0.84577709285531     -0.29713639735021
  H   1.13589114079096     -1.85840986751727     -0.38160380944378
  H   1.94871115353701     -0.54621321343045     -1.26635807670826
  H   2.37083136219325     -0.88280441664335      0.40332022400349
  N   0.99829817802919      1.26561485268488      0.87558255199461
  O   0.22346415954851      2.02599982461116      1.48597776330737
  O   2.21722497962257      1.46345777940311      0.82325902329899
  N   -1.30589830372650     -0.93860495559166     -0.99521463449333
  H   -0.61552217170033     -1.55688592636298     -1.38451953358008
  H   -2.15139581397229     -1.41048071315459     -0.71153940256741
  N   -1.85919416125339      0.73572688321431      0.46296278445606
  H   -2.61097560688713      0.94368051984058     -0.17609514906088
  H   -1.53644532498733      1.50592076647333      1.03185268717376
