15
Coordinates from ORCA-job run
  C   0.50489534507933      0.12022205615889      0.13866911224971
  C   -0.82537890526119      0.08316859986412     -0.21736630474077
  C   1.48160643562018     -0.99492922622861     -0.07964034625347
  H   1.67812959072747     -1.57199817057938      0.82828943221127
  H   1.14128270906388     -1.66454176159078     -0.87115944346288
  H   2.43820326049955     -0.58048233025449     -0.40148085295267
  N   1.02574088786592      1.22407218427930      0.88856028280484
  O   2.13344118299139      1.06720638761410      1.41491849116406
  O   0.37758462738440      2.28249574362770      0.99779453399260
  N   -1.42926297130083     -1.08529841757100     -0.63456180892698
  H   -2.04975257391378     -0.99824899106391     -1.42390506075381
  H   -0.86760573679872     -1.91771032786860     -0.64083029145922
  N   -1.68585050920509      1.14864055575128     -0.23275171137589
  H   -1.29645235731993      1.97671316304155      0.19617786513768
  H   -2.62758098543258      0.91069053481985      0.03728610236554
