15
Coordinates from ORCA-job run
  C   0.49443521291716      0.02048140607520      0.19513240907969
  C   -0.84995462720501     -0.08406225993716     -0.08828205565002
  C   1.56677687304741      0.38618028113762     -0.78554851437742
  H   1.18136707751333      0.54162334124007     -1.79377526740461
  H   2.08919835317522      1.29439353013107     -0.47820710222072
  H   2.31825451019698     -0.40393369454076     -0.84267261961745
  N   0.99794117286367     -0.25015385970895      1.50921777323426
  O   2.22195377054470     -0.15755087596235      1.66534402258775
  O   0.23056026711158     -0.56327160585966      2.43898344265816
  N   -1.33948986030143      0.02891507540494     -1.38076091166455
  H   -0.69640483739844      0.40670586935401     -2.05628260345893
  H   -2.23573344617463      0.49303308828771     -1.42007438702938
  N   -1.84693234790903     -0.29991037945331      0.82712081127719
  H   -2.61755030820273     -0.84352320611315      0.46860727865240
  H   -1.51442181017879     -0.56892671005527      1.74219772393364
