15
Coordinates from ORCA-job run
  C   0.50818509732682      0.20431949173521     -0.00883946275648
  C   -0.85054007604030     -0.02136580257153      0.00758306384426
  C   1.51282871491019     -0.79603729608991     -0.49378104118309
  H   1.85178370020756     -1.47538988946757      0.29495699069304
  H   2.39528097867500     -0.27696215388983     -0.86600617756932
  H   1.10820699204652     -1.38703667688399     -1.31881808728965
  N   1.05659527424371      1.35930285593938      0.63373466745541
  O   2.26864407252130      1.35043590195539      0.87543732104017
  O   0.32580018525678      2.32706611393094      0.91738625580152
  N   -1.82304329286295      0.89527168604428      0.29859231128551
  H   -2.61635265900297      0.51417040671980      0.79093161720259
  H   -1.46078935946353      1.76873540443148      0.65497845401923
  N   -1.37160470463492     -1.26511596844076     -0.30583493269940
  H   -0.70937923308436     -1.96565171619795     -0.59077730642823
  H   -2.19461569009885     -1.23174235721493     -0.88854367341557
