15
Coordinates from ORCA-job run
  C   0.50735204048917      0.13626923202368      0.11851175069537
  C   -0.84205163728812      0.02609986243165     -0.14240428083741
  C   1.51881933267385     -0.94499939861955     -0.11631662576059
  H   1.13840650651111     -1.73695040501574     -0.76193378875332
  H   1.86240019585405     -1.39120922511016      0.82121080657382
  H   2.39746331624279     -0.52815736459585     -0.60923119321510
  N   1.05104833057109      1.32767450504386      0.69303881095551
  O   2.26293498193149      1.32976591962344      0.93874192809175
  O   0.32328820667526      2.30985300000484      0.93378685736887
  N   -1.79940440857713      0.95459248910459      0.16250308616132
  H   -2.56687965693622      0.99022811042499     -0.49043016357008
  H   -1.42146712720655      1.84603998764030      0.45026002190341
  N   -1.36955231388671     -1.09326542696930     -0.77001425608994
  H   -2.29272018642852     -1.32740737085027     -0.43569659920635
  H   -0.76863758062558     -1.89853391513649     -0.79402635431725
