15
Coordinates from ORCA-job run
  C   0.50874352024658      0.21527917119515      0.00829708072260
  C   -0.84661485828452     -0.03022078160846      0.02239829167309
  C   1.50331861033743     -0.71642850569329     -0.61557962189451
  H   1.78175909328958     -1.54651042288954      0.04241548827759
  H   1.11882570519563     -1.12438358256051     -1.55410538405879
  H   2.41784774923844     -0.17236254774781     -0.84501098799722
  N   1.05682367262056      1.29459109678228      0.77110001956399
  O   2.27371730831200      1.28194924836632      0.98519784854979
  O   0.31598863706750      2.20667686945497      1.18415589638950
  N   -1.82666630376383      0.82533531983123      0.44431288707819
  H   -1.46903148104551      1.65126464596227      0.90380980573112
  H   -2.60495971130724      0.37167055133082      0.89760242747024
  N   -1.35119800528543     -1.23571614961713     -0.43348399429469
  H   -2.19402774308486     -1.14822493120953     -0.98128253262284
  H   -0.68352619353633     -1.87391998159676     -0.83082722458808
