15
Coordinates from ORCA-job run
  C   0.50564515409997      0.06987133861626      0.25135274146576
  C   -0.83268547380339      0.00658964456712     -0.07592330777046
  C   1.48669813217957     -0.99449143774562     -0.12737839590433
  H   0.98290563121562     -1.96045661649819     -0.19634904127140
  H   1.99474631535080     -0.78602079193643     -1.07526153034374
  H   2.26273639183694     -1.06872929911957      0.63444684737135
  N   1.05795140493674      1.24438960213973      0.83959239565940
  O   2.28985082932405      1.35215779923012      0.83731782223384
  O   0.31331710485746      2.11240278186941      1.33836812160978
  N   -1.80954020709262      0.84761036175872      0.37788995323986
  H   -2.54674380563710      1.05884178405164     -0.27628134154594
  H   -1.44596890718863      1.63617126712983      0.89689555446388
  N   -1.28785706134735     -1.06166473151554     -0.82383109745308
  H   -0.69628485441830     -1.38062669635206     -1.57139384492041
  H   -2.27277065431375     -1.07704500619541     -1.02944487683452
