15
Coordinates from ORCA-job run
  C   0.54876366560447      0.04404780881318     -0.14357163002625
  C   -0.82887975457584     -0.02152456370488     -0.11033722639180
  C   1.42529178256307     -0.86277695219300      0.66132629670710
  H   1.70545523350642     -0.43367567236989      1.62962441369322
  H   0.92555601951785     -1.81935622927493      0.82530085564063
  H   2.35365771376521     -1.05178450472572      0.12236271985734
  N   1.21243520376606      1.09512642868283     -0.83966725790009
  O   2.41339929718999      1.26370062000313     -0.59777996287718
  O   0.59203492803456      1.80015824664678     -1.66136723999197
  N   -1.68337743346238      0.65218582844208     -0.93614106651708
  H   -2.55497790546919      0.94705768552459     -0.52500839305047
  H   -1.21830076000169      1.33486883940162     -1.52004154651846
  N   -1.43351120209795     -0.93190406053522      0.73390687270812
  H   -2.43937757057565     -0.95584276636420      0.72255553189285
  H   -1.01916921776495     -1.05928070834637      1.64083763277403
