15
Coordinates from ORCA-job run
  C   0.52321498206207      0.19497148627832      0.07493920208805
  C   -0.84026978886365      0.02527422693890     -0.04734934438110
  C   1.49928715882289     -0.72829318905981     -0.59043777913003
  H   1.25287041080592     -0.86117147901376     -1.64817374603228
  H   2.49766839717367     -0.30153643327003     -0.53265036195687
  H   1.54351588542036     -1.71575512395103     -0.11573799248896
  N   1.05459745822236      1.12298861449867      1.02091862488029
  O   2.24771280294844      1.02195921911778      1.32885961051984
  O   0.32153649497667      2.01023657377628      1.50067663910097
  N   -1.80787008127890      0.86791424229369      0.41808501950272
  H   -1.45284516363676      1.60994672501653      1.00622767826328
  H   -2.67010889999687      0.43089917119002      0.70247005394642
  N   -1.34340812342298     -1.07579394113795     -0.70985164135108
  H   -2.15274535436894     -0.90023614605606     -1.28452418184238
  H   -0.67515617886430     -1.70240394662154     -1.12345178111888
