15
Coordinates from ORCA-job run
  C   0.51435240176391      0.15735090950323      0.10203445715566
  C   -0.83577043306388      0.05565292827249     -0.15097183644131
  C   1.51321081621703     -0.89556898576555     -0.27043677021187
  H   1.64541727317201     -1.65177942090394      0.51005258225245
  H   2.48670767204258     -0.43445231215805     -0.43313351063937
  H   1.22740337000105     -1.39344367938106     -1.19998623058201
  N   1.01792487317458      1.21357791571954      0.92584668708614
  O   2.15853904654674      1.07997014197342      1.38269541982875
  O   0.32246192566311      2.22222331709978      1.14952715148876
  N   -1.77264949628476      1.03570320725583      0.02961113707817
  H   -2.67185239782286      0.69625329669379      0.33485941637657
  H   -1.41895023298986      1.84728554275529      0.51684817139127
  N   -1.38158265744226     -1.11229231897086     -0.65523388944519
  H   -0.73395114254179     -1.85119964250001     -0.86741730366761
  H   -2.07426101843558     -0.96728089959389     -1.37429548167040
