15
Coordinates from ORCA-job run
  C   0.48511154416005      0.09376874918840      0.23666193107548
  C   -0.84169173600593     -0.09175598339638     -0.08436757924110
  C   1.53706383998099      0.47510639234364     -0.75990642038812
  H   1.99707258739383     -0.39111783524787     -1.24629921170549
  H   2.33706258344982      1.01760282162124     -0.25743487782742
  H   1.12609534322901      1.13452956204013     -1.52796356523970
  N   0.97169578221819     -0.26454680949038      1.53346540984033
  O   0.17821178492622     -0.42819369102597      2.47946558847565
  O   2.19455496567720     -0.38760319828528      1.66482564337353
  N   -1.26750905782480     -0.06869915017408     -1.40174090608213
  H   -0.56721691310144      0.14365421835477     -2.09100634902072
  H   -2.13270174275427      0.43054059907482     -1.54456338148071
  N   -1.86886861419148     -0.29665683937330      0.79456037951335
  H   -2.58537580558946     -0.92076187751595      0.45713228410353
  H   -1.56350456156794     -0.44586695811379      1.74617105460353
