15
Coordinates from ORCA-job run
  C   0.50282211142374      0.10782679011867      0.18925264457526
  C   -0.84781818735823      0.02028147936785     -0.06656109590856
  C   1.49590473801618     -0.93996390467922     -0.21201088659867
  H   2.34447721878675     -0.92029351005696      0.47083456236701
  H   1.89439700825264     -0.78518375797428     -1.21985663034466
  H   1.05401848147104     -1.93762365814917     -0.15630619936167
  N   1.06579477945747      1.32401576245570      0.69072830773706
  O   0.33449933027313      2.18724493043159      1.21136745939503
  O   2.28997901038457      1.46325134700352      0.59335238267034
  N   -1.81893594839212      0.86459668801942      0.39668701507000
  H   -2.57385960535082      1.02274644692671     -0.25292158221690
  H   -1.45344567438914      1.68650117481150      0.85712359367758
  N   -1.36225584908483     -1.00201607078048     -0.84530143588264
  H   -0.70488830501252     -1.69154330568089     -1.16589182576666
  H   -2.21968910847787     -1.39884041181396     -0.49149630941251
