15
Coordinates from ORCA-job run
  C   0.54802480777600     -0.03025067332775     -0.15116295131600
  C   -0.82637719913031      0.07702708345476     -0.10349957447073
  C   1.31529578997652     -1.01737603769663      0.67063743719024
  H   1.65521129578623     -0.60152270629228      1.62558996384853
  H   0.70308413964377     -1.90030227570347      0.86404629259593
  H   2.20795928316569     -1.33267851365083      0.13066081339420
  N   1.32815788775171      0.91439671924438     -0.87854103082775
  O   2.54278287164963      0.94199957652533     -0.64773417407217
  O   0.79097697928483      1.66779669699854     -1.71577913385470
  N   -1.60053757145927      0.83014238943119     -0.94000332617258
  H   -1.06098136035927      1.43417123471486     -1.54621267233657
  H   -2.42316298391450      1.24287321463275     -0.52925104135613
  N   -1.52925369388547     -0.73092213898270      0.76992699343965
  H   -1.12175610061041     -0.87766991593126      1.67736970080993
  H   -2.52942414567516     -0.61868465341690      0.77395270312814
