15
Coordinates from ORCA-job run
  C   0.51429949926176      0.17853703389654      0.08466805847459
  C   -0.84109122726784      0.03219342561964     -0.11478775854165
  C   1.52897352185566     -0.81662890096824     -0.38990115781302
  H   1.68696928122907     -1.63721092712377      0.31818429211274
  H   2.49182732077264     -0.32519186237083     -0.52243116892005
  H   1.23679582084635     -1.23603237668597     -1.35573726720001
  N   1.00917234569871      1.19788037631804      0.95744295300713
  O   0.29041349480570      2.16842015081877      1.26168321013908
  O   2.16484431871885      1.07108036266730      1.37759861333561
  N   -1.35903641261466     -1.12669237962607     -0.66366343308537
  H   -2.09283438320120     -0.97575576077597     -1.33933104622830
  H   -0.69126056610866     -1.82370735724627     -0.94421609458380
  N   -1.80576936893526      0.96264840324205      0.16095815088738
  H   -2.67445708371070      0.57036424962538      0.49109786415643
  H   -1.45884656135044      1.75809556260939      0.67943478425926
