15
Coordinates from ORCA-job run
  C   0.53363654896427      0.19163088929752      0.04583998782672
  C   -0.82477538758058      0.03520277721499     -0.13498520181235
  C   1.54084903802975     -0.78785323181666     -0.46837871390218
  H   2.46246088677087     -0.26720409567759     -0.72828517155983
  H   1.16088592535414     -1.27907177487911     -1.36620756418693
  H   1.80811669807360     -1.55055259195220      0.27131360342423
  N   1.04277832752909      1.22942492244691      0.87910485557615
  O   2.22334019906303      1.13973347105519      1.23620078421972
  O   0.31469811105158      2.18498915639282      1.21621996374334
  N   -1.78490656446856      0.96371148843320      0.15424091819648
  H   -2.66199168616600      0.59886835011798      0.49118075157323
  H   -1.42332876686631      1.76722183935298      0.65141845814780
  N   -1.28670805013672     -1.09607525517105     -0.77879433687930
  H   -2.28288359848391     -1.16817960662105     -0.90102746318512
  H   -0.82417168113426     -1.96284633819394     -0.56584087118197
