15
Coordinates from ORCA-job run
  C   0.52250209494595      0.18521693797211      0.06976967184751
  C   -0.83973568872697     -0.01634159392255      0.00349406976154
  C   1.50359330916626     -0.84258859530644     -0.41079244945301
  H   2.48786737562450     -0.38615005877082     -0.48103549704402
  H   1.25392792993305     -1.21055754193119     -1.41013449510810
  H   1.58246105996181     -1.69511046927990      0.27235802281546
  N   1.06171030381664      1.39561235301487      0.60967879305780
  O   2.28552528668402      1.55939945155768      0.57665811694031
  O   0.29385638683460      2.25789302296029      1.07913021618799
  N   -1.81880751425935      0.79767815751463      0.49682314312904
  H   -2.67453441201787      0.80138462615063     -0.03526997137541
  H   -1.47856013166282      1.69224749659832      0.81834789675547
  N   -1.34042870439469     -1.15276207135759     -0.61206214275604
  H   -0.66571994890885     -1.87314886800238     -0.80500105435706
  H   -2.17265734699629     -1.51277284719766     -0.16996432040149
