15
Coordinates from ORCA-job run
  C   0.51597322451514      0.12891186102341      0.13270452516987
  C   -0.84853456276979     -0.03798880181410      0.04570027293481
  C   1.50940118533230     -0.80030170233667     -0.49579203060575
  H   1.75230395060923     -0.52835016713201     -1.52807357517015
  H   2.44178297991157     -0.77380817394375      0.06688725949564
  H   1.14585041978658     -1.83053684566840     -0.47899867462673
  N   1.06300093239352      1.33403610638971      0.67594381089060
  O   2.25100914805390      1.57553868253162      0.43529461410701
  O   0.35541566675711      2.08805393826326      1.37037820725772
  N   -1.79961281852368      0.68452636095178      0.71096618017264
  H   -1.42942163919756      1.48742411938701      1.20024017896758
  H   -2.64595493636531      0.83928700116321      0.18502418654711
  N   -1.39692231900453     -1.02228020461554     -0.75916439223102
  H   -0.74446730443681     -1.62954518021654     -1.22395560002315
  H   -2.16982392706168     -1.51496699398298     -0.33715496288617
