15
Coordinates from ORCA-job run
  C   0.48693603341368      0.03420274821901      0.24947324546446
  C   -0.84466372989804     -0.01122669303191     -0.10005674547279
  C   1.58466781219239      0.40424358617794     -0.70081523190995
  H   1.97796841178897     -0.45590865658088     -1.25211580052805
  H   2.41857150907822      0.83418562202963     -0.14719362427784
  H   1.24441707481965      1.15692335318228     -1.41593457938316
  N   0.91935567217792     -0.47419924871235      1.51533898518051
  O   0.09865630468066     -0.64997998791184      2.43550725604010
  O   2.12498868010111     -0.71177121179824      1.64782975220382
  N   -1.24415863348384      0.15932559222390     -1.41447509272723
  H   -2.06247768081975      0.73910728959721     -1.52464328612199
  H   -0.51729911742681      0.36464369909258     -2.07776691193759
  N   -1.90108208218557     -0.20005101529647      0.74783090618629
  H   -1.62548544752574     -0.45513039871474      1.68597093997026
  H   -2.65939480691285     -0.73336467847612      0.35105018731316
