15
Coordinates from ORCA-job run
  C   0.51140772636872      0.19411592650168      0.03484689030292
  C   -0.85075025368215     -0.00475105693873     -0.01809319737084
  C   1.51307825228024     -0.73980482463159     -0.57315951932117
  H   1.12255945823548     -1.18788851671334     -1.48984802524038
  H   2.41403841988751     -0.18761045911490     -0.83785111348398
  H   1.81846453752361     -1.53937572342178      0.10952935805300
  N   1.05935891394089      1.22390766675599      0.86345660969284
  O   2.26376560996642      1.15315644097282      1.13190305384227
  O   0.33629835571360      2.15079439385263      1.27493691451881
  N   -1.81631120519829      0.87535358553790      0.38613397920790
  H   -1.45023349905918      1.67667748323205      0.88111404862473
  H   -2.62916718257866      0.43933289455239      0.79353588575541
  N   -1.38129604165343     -1.17524810310019     -0.53197630297183
  H   -0.72259578494543     -1.83823332039946     -0.90198104574747
  H   -2.18861730679933     -1.03942638708547     -1.12154753586223
