15
Coordinates from ORCA-job run
  C   0.50750358576427      0.20541841708608     -0.00670928870119
  C   -0.85072909686322     -0.02440685921121      0.00687899032173
  C   1.51577154585909     -0.78517010492981     -0.50409605839473
  H   2.39428962240870     -0.25794542495376     -0.87431340610321
  H   1.86073573161559     -1.46993786546776      0.27725556739135
  H   1.11162882929810     -1.37035053736492     -1.33345578678511
  N   1.05261672111113      1.35356814198929      0.65097869968639
  O   0.31954901680931      2.31619891989462      0.94593600608914
  O   2.26447151727500      1.34398159585976      0.89387390759418
  N   -1.82548338400737      0.88606377208012      0.30931762723446
  H   -1.46578325850483      1.75646635104648      0.67558312687883
  H   -2.61803030780867      0.49771677497074      0.79717484649896
  N   -1.36875996627451     -1.26539845283322     -0.32182921574593
  H   -0.70497056017353     -1.96165617391692     -0.61344880223474
  H   -2.19180999650908     -1.22754855424949     -0.90414621373013
