15
Coordinates from ORCA-job run
  C   0.52824433105926      0.21103423303269     -0.00668698917887
  C   -0.83221785404548     -0.00312889200400     -0.08354565445990
  C   1.53607737273721     -0.78257956065910     -0.49199057496289
  H   1.87691969951520     -1.46225618253719      0.29680178311529
  H   1.11925649780005     -1.36899093640487     -1.31307413847704
  H   2.41985895574708     -0.26139198607565     -0.85970328391753
  N   1.05081315199800      1.33955761640085      0.68865513767580
  O   0.30972423039287      2.29837982640118      0.98613976741525
  O   2.25496326187916      1.32282847136416      0.96970848081854
  N   -1.80483839135793      0.91969145541612      0.17912720543951
  H   -2.64989400873523      0.56369095833390      0.59739244530564
  H   -1.44296577542251      1.77609972704612      0.57807708770480
  N   -1.29145452151029     -1.20378521425785     -0.59062308906781
  H   -2.29060442109611     -1.31991072064665     -0.62503171900209
  H   -0.78388252896129     -2.03023879540971     -0.32524645840869
