11

C	0.0	0.0	0.0
C	-0.174999	-0.766374	-1.339077
Br	1.940138	0.0	0.0
H	0.460188	-0.273626	-2.074482
H	-0.366797	1.019482	-0.031816
H	-0.387743	-0.534827	0.85873
H	0.172185	-1.788706	-1.197135
N	-1.457175	-0.904919	-2.105053
O	-1.787845	0.055044	-2.792406
O	-1.959614	-2.023069	-2.142083
Cl	-3.153613	0.0	0.0
