11

C	0.0	0.0	0.0
C	-0.288658	0.921128	-1.217811
Br	1.940137	0.0	0.0
H	0.548222	0.83478	-1.903323
H	-0.362883	-1.010336	-0.160309
H	-0.376686	0.403274	0.931485
H	-0.39899	1.957717	-0.90999
N	-1.448435	0.631736	-2.127261
O	-2.15942	1.574092	-2.441868
O	-1.488246	-0.488177	-2.616708
Cl	-3.25621	0.0	0.0
