11

C	0.0	0.0	0.0
C	-0.176521	-0.143467	-1.536309
Br	1.937154	0.0	0.0
H	0.42706	0.62977	-2.008125
H	-0.364281	0.944535	0.385904
H	-0.382908	-0.844809	0.561702
H	0.216582	-1.114204	-1.834148
N	-1.469549	-0.030512	-2.279362
O	-1.824556	1.104235	-2.58829
O	-1.962084	-1.082577	-2.67858
Cl	-3.172488	0.0	0.0
