11

C	0.0	0.0	0.0
C	-0.497549	-0.124703	-1.414733
Br	1.939738	0.0	0.0
H	-0.117105	0.65515	-2.073129
H	-0.338312	-0.841727	0.59549
H	-0.357421	0.926106	0.443602
H	-1.596598	-0.13541	-1.367882
N	-0.046952	-1.409298	-2.016617
O	-0.15497	-2.427729	-1.336282
O	0.388311	-1.374783	-3.169693
Cl	-3.454567	0.0	0.0
