16

C	0.0	0.0	0.0
C	-0.553762	0.106128	-1.439713
F	1.376262	0.0	0.0
H	-1.510029	0.624036	-1.344541
C	-0.3944	1.197498	0.774606
N	-0.546149	2.207349	1.354962
C	-0.412951	-1.226236	0.706311
N	-0.561451	-2.229191	1.298219
N	-0.72744	-1.246098	-1.962686
H	-0.839347	-1.183357	-2.968823
H	-1.618422	-1.578008	-1.594441
C	0.403046	0.910452	-2.303758
H	-0.076845	1.114523	-3.265571
H	1.329075	0.359993	-2.479488
H	0.642139	1.871867	-1.843059
Cl	-3.389147	0.0	0.0
