16

C	0.0	0.0	0.0
C	-0.382785	0.390367	-1.503154
F	1.386963	0.0	0.0
H	0.603356	0.69526	-1.872637
C	-0.413101	1.049427	0.943224
N	-0.538296	1.964538	1.669209
C	-0.430082	-1.330308	0.44705
N	-0.558155	-2.451847	0.773921
N	-1.277503	1.500283	-1.704405
H	-0.927458	2.323922	-1.227247
H	-2.180604	1.255931	-1.291474
C	-0.855899	-0.824539	-2.28794
H	-0.942911	-0.524769	-3.334517
H	-1.83351	-1.142371	-1.922912
H	-0.147764	-1.654952	-2.211799
Cl	-3.409616	0.0	0.0
