16

C	0.0	0.0	0.0
C	-0.388774	-0.218534	-1.528888
F	1.383551	0.0	0.0
H	0.534627	0.13088	-2.007445
C	-0.416211	1.335155	0.455
N	-0.576706	2.454755	0.771212
C	-0.444525	-1.047287	0.925015
N	-0.6579	-1.949531	1.646653
N	-1.479698	0.532181	-2.081086
H	-1.30221	1.526692	-1.993339
H	-2.341022	0.337648	-1.556625
C	-0.569642	-1.702705	-1.801837
H	0.272202	-2.287867	-1.418054
H	-1.494443	-2.0552	-1.339492
H	-0.641216	-1.846496	-2.881244
Cl	-3.737906	0.0	0.0
