16

C	0.0	0.0	0.0
C	-0.445575	0.772895	-1.2988
F	1.383584	0.0	0.0
H	0.34424	1.53363	-1.365981
C	-0.416644	0.740314	1.202527
N	-0.607354	1.380898	2.168378
C	-0.441602	-1.400046	0.057716
N	-0.625196	-2.560477	0.054571
N	-1.712494	1.437037	-1.276047
H	-1.73864	2.159696	-0.566527
H	-2.502791	0.81633	-1.066605
C	-0.34865	-0.160233	-2.496607
H	-1.157798	-0.894928	-2.466943
H	0.609025	-0.688181	-2.52034
H	-0.456001	0.43253	-3.405423
Cl	-4.225303	0.0	0.0
