16

C	0.0	0.0	0.0
C	-0.410414	0.579779	-1.427339
F	1.384032	0.0	0.0
H	0.55147	1.001554	-1.743534
C	-0.413448	0.912032	1.077143
N	-0.54249	1.690714	1.947283
C	-0.43057	-1.375587	0.278221
N	-0.633517	-2.519689	0.451642
N	-1.389567	1.629529	-1.47328
H	-1.109361	2.40794	-0.887273
H	-2.278413	1.270574	-1.111033
C	-0.799928	-0.549521	-2.368502
H	-0.036973	-1.332496	-2.394786
H	-1.751247	-0.982273	-2.048481
H	-0.920475	-0.135107	-3.371038
Cl	-3.620481	0.0	0.0
