17

C	0.0	0.0	0.0
C	-0.62904	-0.010014	-1.386084
Br	1.937165	0.0	0.0
H	-1.73438	-0.108376	-1.057231
C	-0.492475	1.163619	0.839873
H	-0.10359	1.079537	1.853261
H	-1.588142	1.076478	0.808352
H	-0.149842	2.100358	0.396734
N	-0.40651	-1.294131	0.722904
O	-0.159646	-1.341609	1.924763
O	-0.928983	-2.19133	0.077279
N	-0.122134	-1.070734	-2.252955
H	0.334203	-0.687255	-3.070009
H	-0.893956	-1.656592	-2.540215
C	-0.465796	1.29776	-2.010592
N	-0.325606	2.310026	-2.594771
F	-2.872131	0.0	0.0
