17

C	0.0	0.0	0.0
C	-0.62147	-0.121488	-1.386572
Br	1.949077	0.0	0.0
H	-1.73048	-0.164225	-1.060547
C	-0.491383	1.228898	0.736818
H	-0.143517	2.123936	0.219297
H	-1.586701	1.143179	0.709839
H	-0.107843	1.229227	1.755475
N	-0.403635	-1.23062	0.82268
O	-0.878407	-2.196719	0.24084
O	-0.197101	-1.170315	2.03093
N	-0.124769	-1.25772	-2.162644
H	-0.852469	-1.958824	-2.201482
H	0.12317	-0.970577	-3.100409
C	-0.408662	1.119492	-2.11873
N	-0.236616	2.083564	-2.770356
F	-2.866355	0.0	0.0
