13
Coordinates from ORCA-job run
  C   -0.45993211010024     -0.73144085543987      0.19353598919192
  C   0.70620643684996     -0.01031525363789      0.85415189369875
  Cl  0.16026897003680     -2.04999795533291     -0.84696426117640
  H   0.32422836666375      0.74017292595361      1.54848162741156
  H   -1.00125088924177     -1.22706094026810      1.00364147997664
  H   1.36403768454947     -0.71413490254797      1.35999158560324
  C   -1.40701803172085      0.15279173984999     -0.59476136318265
  H   -2.26098964103269     -0.43555743312248     -0.93230511440624
  H   -0.91564298579602      0.58444025731954     -1.46523880370030
  H   -1.76793211593343      0.97008961909635      0.03454571528741
  N   1.54697009073810      0.72254554903410     -0.13438503044279
  O   1.09140191591817      1.78073467996915     -0.56750963053214
  O   2.61965230906875      0.21673256912646     -0.45318408772901
