15

C	0.0	0.0	0.0
C	-0.576538	0.102654	-1.401887
F	1.349764	0.0	0.0
H	-1.673112	0.098721	-1.244802
H	-0.376511	0.799469	0.635433
N	-0.379113	-1.272443	0.726606
O	-0.721469	-1.148985	1.897328
O	-0.201013	-2.335575	0.136029
C	-0.156159	-0.974041	-2.407853
H	0.929651	-1.091154	-2.434291
H	-0.501791	-0.678671	-3.40127
H	-0.611256	-1.926072	-2.149904
C	-0.186205	1.421273	-1.905164
N	0.152445	2.458554	-2.340373
Cl	-3.511638	0.0	0.0
