15

C	0.0	0.0	0.0
C	-0.54107	0.29601	-1.388149
F	1.349764	0.0	0.0
H	-1.632875	0.160844	-1.301429
H	-0.384389	0.692622	0.748514
N	-0.356332	-1.384182	0.508147
O	-0.918951	-2.178986	-0.232618
O	0.03936	-1.610321	1.650257
C	0.062357	-0.548931	-2.513178
H	-0.305003	-0.182377	-3.474503
H	1.153465	-0.492397	-2.516187
H	-0.246969	-1.585557	-2.404442
C	-0.270537	1.71169	-1.643501
N	-0.008345	2.830473	-1.888352
Cl	-3.452841	0.0	0.0
