15

C	0.0	0.0	0.0
C	-0.527895	0.116874	-1.415879
F	1.352531	0.0	0.0
H	-0.180042	1.106531	-1.741524
H	-0.375913	0.79873	0.640472
N	-0.384773	-1.288455	0.693567
O	-0.72256	-2.246724	0.007027
O	-0.241651	-1.274682	1.913546
C	-2.05635	0.077531	-1.492052
H	-2.520777	0.767453	-0.787691
H	-2.457528	-0.903808	-1.257088
H	-2.382558	0.354229	-2.495146
C	0.116565	-0.851638	-2.309082
N	0.620392	-1.575867	-3.083654
Cl	-5.001389	0.0	0.0
