11

C	0.0	0.0	0.0
C	-0.585619	0.054622	-1.377019
Cl	1.779544	0.0	0.0
H	-0.301332	-0.790366	-2.003015
H	-0.35624	-0.904751	0.482478
H	-0.340802	0.857544	0.568641
H	-1.718623	0.080621	-1.059548
N	-0.185183	1.264454	-2.100533
O	-0.10611	2.323274	-1.472981
O	0.013038	1.176164	-3.318828
F	-2.722585	0.0	0.0
