16

C	-0.320577	-0.021105	-1.483102
C	0.0	0.0	0.0
Br	-2.270286	0.003244	-1.86407
H	1.09584	0.0	0.0
N	0.20393	1.259805	-2.138127
O	0.521982	2.183083	-1.400811
O	0.249501	1.271531	-3.363625
C	0.342909	-1.201023	-2.14629
H	-0.084925	-2.12869	-1.766975
H	1.4056	-1.150596	-1.862117
H	0.222324	-1.150746	-3.228464
C	-0.400325	-1.258307	0.604957
N	-0.663144	-2.296001	1.092165
C	-0.547785	1.098575	0.77131
N	-0.97847	1.939921	1.469877
H	2.463565	0.0	0.0
