16

C	-0.497441	-0.002399	-1.442548
C	0.0	0.0	0.0
Br	0.372687	1.474949	-2.404692
H	1.094203	0.0	0.0
N	-0.026519	-1.285606	-2.125846
O	0.785737	-1.984429	-1.529534
O	-0.487986	-1.5043	-3.244661
C	-1.996694	0.11346	-1.618892
H	-2.254838	0.143885	-2.676464
H	-2.347932	1.022373	-1.128619
H	-2.477186	-0.753131	-1.152461
C	-0.492771	-1.159265	0.723104
N	-0.872652	-2.092013	1.332366
C	-0.441342	1.209935	0.672654
N	-0.751066	2.19891	1.230065
H	2.469729	0.0	0.0
