16

C	-0.338701	-0.036756	-1.477542
C	0.0	0.0	0.0
Br	-2.292518	-0.044866	-1.829768
H	1.095804	0.0	0.0
N	0.169422	1.240908	-2.151114
O	0.544847	2.156409	-1.429119
O	0.160509	1.250179	-3.378961
C	0.335001	-1.211256	-2.14052
H	-0.071861	-2.143131	-1.749234
H	1.399848	-1.141807	-1.875279
H	0.195699	-1.170681	-3.218954
C	-0.399301	-1.249861	0.625486
N	-0.675182	-2.2806	1.121376
C	-0.544699	1.111397	0.759047
N	-0.974059	1.969524	1.438842
H	2.479978	0.0	0.0
