16

C	-0.294446	-0.009884	-1.48815
C	0.0	0.0	0.0
Br	-2.228029	0.117014	-1.912944
H	1.095992	0.0	0.0
N	0.311198	1.245527	-2.12791
O	0.560915	1.185008	-3.327745
O	0.476068	2.224053	-1.410823
C	0.319916	-1.224508	-2.13426
H	0.216353	-1.178328	-3.215413
H	1.380516	-1.21875	-1.845313
H	-0.15752	-2.12764	-1.755001
C	-0.414844	-1.254873	0.601688
N	-0.687773	-2.284214	1.102882
C	-0.540488	1.100827	0.775739
N	-0.960996	1.943078	1.481773
H	2.473003	0.0	0.0
