16

C	-0.503376	-0.010951	-1.440318
C	0.0	0.0	0.0
Br	0.410028	1.423285	-2.433945
H	1.094235	0.0	0.0
N	-0.072272	-1.313269	-2.107822
O	0.747067	-2.008814	-1.519707
O	-0.563663	-1.549629	-3.210407
C	-1.998293	0.14899	-1.615218
H	-2.316978	1.078923	-1.142143
H	-2.259428	0.167407	-2.672325
H	-2.505061	-0.6918	-1.129504
C	-0.505057	-1.141098	0.743746
N	-0.892589	-2.06394	1.36501
C	-0.425761	1.225215	0.657225
N	-0.722472	2.226432	1.200904
H	2.446644	0.0	0.0
