17

C	0.0	0.0	0.0
C	-0.245954	0.043334	-1.560418
F	1.417779	0.0	0.0
H	-0.002047	-0.943338	-1.933357
N	-0.408274	1.134728	0.683012
H	0.002394	2.010175	0.434655
H	-1.083784	1.08795	1.411716
C	-0.6202	-1.240279	0.568117
H	-0.372823	-1.290512	1.626669
H	-1.719617	-1.105359	0.435129
H	-0.248514	-2.136338	0.069578
N	0.797587	0.943079	-2.174097
O	1.607831	0.422426	-2.936813
O	0.802508	2.122768	-1.8424
C	-1.544029	0.459487	-2.121954
N	-2.36171	0.786381	-2.907422
H	-3.296178	0.0	0.0
