17

C	0.0	0.0	0.0
C	-0.437412	0.19872	-1.442589
F	1.403759	0.0	0.0
H	0.146001	-0.486269	-2.062245
N	-0.481884	1.083615	0.797022
H	-0.303468	0.849487	1.771984
H	-1.507122	1.036714	0.666143
C	-0.379053	-1.399608	0.435627
H	0.070758	-2.143546	-0.228106
H	-0.000478	-1.562232	1.45196
H	-1.463679	-1.49115	0.432416
N	0.017197	1.564031	-1.891901
O	1.196717	1.64648	-2.255701
O	-0.773011	2.500428	-1.842725
C	-1.909861	-0.022734	-1.724771
N	-2.506618	-0.257729	-2.738578
H	-2.679599	0.0	0.0
