15

C	0.0	0.0	0.0
C	-0.475111	-0.381797	-1.398976
F	1.349766	0.0	0.0
H	-1.572715	-0.439569	-1.314664
H	-0.376166	-0.726267	0.739193
N	-0.586764	1.271785	0.429745
O	-1.757141	1.440897	-0.133916
O	-0.316286	1.594043	1.61402
C	0.038273	-1.712636	-1.725971
N	0.444499	-2.774348	-2.024445
C	-0.051404	0.634185	-2.460588
H	1.035144	0.740993	-2.485088
H	-0.509754	1.590785	-2.21624
H	-0.390861	0.315044	-3.449354
H	-2.813195	0.0	0.0
