15

C	0.0	0.0	0.0
C	-0.473475	-0.393524	-1.396477
F	1.349833	0.0	0.0
H	-1.570876	-0.455134	-1.313253
H	-0.377869	-0.718726	0.746155
N	-0.586321	1.27473	0.418612
O	-1.759669	1.434048	-0.144619
O	-0.314712	1.605445	1.59935
C	0.045388	-1.726317	-1.713534
N	0.452707	-2.792716	-1.997916
C	-0.052497	0.617977	-2.464002
H	-0.516406	1.57343	-2.226471
H	1.033511	0.730947	-2.486718
H	-0.387869	0.291107	-3.451208
H	-2.810082	0.0	0.0
