16

C	0.0	0.0	0.0
C	-0.444998	-0.236594	-1.496206
Cl	1.792235	0.0	0.0
H	0.283727	0.316539	-2.100488
C	-0.376713	1.377631	0.340406
N	-0.589697	2.5023	0.605432
C	-0.593368	-0.98096	0.987025
H	-0.288612	-1.997349	0.733824
H	-1.6873	-0.878682	0.914421
H	-0.263916	-0.743644	2.000949
N	-1.770549	0.173889	-1.859903
H	-2.508262	-0.02503	-1.103393
H	-1.772457	1.184789	-1.954856
C	-0.230474	-1.662225	-1.811166
N	-0.035332	-2.792058	-2.06504
H	-3.511704	0.0	0.0
