16

C	0.0	0.0	0.0
C	-0.681417	0.098813	-1.36796
Cl	1.7932	0.0	0.0
H	-1.778394	0.239788	-1.002839
C	-0.355034	1.202807	0.776816
N	-0.542301	2.169864	1.418567
C	-0.484386	-1.2372	0.740575
H	-1.582951	-1.178675	0.73567
H	-0.137325	-2.135906	0.227589
H	-0.099427	-1.23976	1.762245
N	-0.665476	-1.096331	-2.18656
H	0.226124	-1.578295	-2.130229
H	-1.407353	-1.707191	-1.858041
C	-0.223013	1.259457	-2.118573
N	0.125753	2.200513	-2.73132
H	-3.039185	0.0	0.0
