16

C	0.0	0.0	0.0
C	-0.664575	0.065655	-1.379569
Cl	1.793133	0.0	0.0
H	-1.765091	0.191067	-1.035543
C	-0.358692	1.220183	0.743593
N	-0.545463	2.204718	1.357822
C	-0.491192	-1.219762	0.762653
H	-1.590243	-1.154752	0.749423
H	-0.143783	-2.128798	0.26911
H	-0.112118	-1.203089	1.78584
N	-0.596566	-1.133592	-2.184822
H	0.322716	-1.559404	-2.137694
H	-1.294064	-1.785353	-1.841877
C	-0.212985	1.225758	-2.137391
N	0.139162	2.16064	-2.757997
H	-3.03568	0.0	0.0
