16

C	0.0	0.0	0.0
C	-0.698551	-0.002095	-1.343301
Cl	1.796765	0.0	0.0
H	-1.827885	0.067222	-0.930617
C	-0.3564	1.245664	0.70343
N	-0.554709	2.245473	1.288398
C	-0.46317	-1.200033	0.814103
H	-1.559476	-1.145713	0.84154
H	-0.140968	-2.108528	0.307696
H	-0.046932	-1.155618	1.822322
N	-0.543083	-1.263862	-2.045807
H	-1.415083	-1.484557	-2.512255
H	0.193345	-1.206473	-2.737976
C	-0.378504	1.163432	-2.15213
N	-0.13814	2.068445	-2.867621
H	-3.006526	0.0	0.0
