16

C	0.0	0.0	0.0
C	-0.440288	0.055065	-1.515926
Cl	1.791835	0.0	0.0
H	0.281937	0.727004	-1.997126
C	-0.383336	1.285198	0.596711
N	-0.587535	2.359097	1.028248
C	-0.587495	-1.161552	0.772822
H	-1.681812	-1.052565	0.725691
H	-0.278771	-2.105191	0.319587
H	-0.25409	-1.13152	1.812899
N	-1.770298	0.510396	-1.801435
H	-2.506453	0.167789	-1.097863
H	-1.783371	1.521145	-1.703451
C	-0.202411	-1.280007	-2.10155
N	-0.006631	-2.331648	-2.587399
H	-3.5098	0.0	0.0
