18

C	-0.333847	0.001489	-1.487185
C	0.0	0.0	0.0
Br	0.057085	1.746612	-2.294505
H	1.097269	0.0	0.0
C	0.467034	-1.062388	-2.204143
H	1.518882	-0.896633	-1.932165
H	0.325141	-1.012818	-3.283363
H	0.158822	-2.048829	-1.850422
N	-1.835105	-0.185793	-1.740072
O	-2.168341	-0.930449	-2.661496
O	-2.612741	0.417174	-1.00352
C	-0.43321	-1.274754	0.555244
N	-0.779589	-2.300058	1.017873
C	-0.432525	1.153795	0.901462
H	-0.136103	2.102545	0.453199
H	-1.503489	1.164515	1.097377
H	0.115049	1.050537	1.842067
H	2.686781	0.0	0.0
