18

C	-0.352773	0.059158	-1.462559
C	0.0	0.0	0.0
Br	-2.331843	0.123244	-1.812179
H	1.097383	0.0	0.0
C	0.301985	1.238416	-2.136016
H	0.200068	1.174356	-3.218463
H	-0.163361	2.160892	-1.789766
H	1.36193	1.220483	-1.849628
N	0.127985	-1.2339	-2.125595
O	-0.395099	-2.281034	-1.764465
O	1.031595	-1.134955	-2.951551
C	-0.516791	-1.149787	0.716921
N	-0.900219	-2.01515	1.414828
C	-0.348267	1.278469	0.76485
H	-1.40989	1.532829	0.694101
H	-0.087224	1.12935	1.814757
H	0.264198	2.104715	0.399233
H	2.609394	0.0	0.0
