18

C	-0.312694	0.076613	-1.470149
C	0.0	0.0	0.0
Br	-2.280519	0.038495	-1.870814
H	1.097666	0.0	0.0
C	0.312077	1.292512	-2.105092
H	-0.160749	2.196874	-1.72364
H	0.205614	1.259287	-3.186561
H	1.374428	1.277052	-1.817485
N	0.217338	-1.172503	-2.193834
O	0.336706	-2.19962	-1.539357
O	0.461963	-1.062199	-3.391544
C	-0.561104	-1.137705	0.703745
N	-1.010168	-1.9803	1.390814
C	-0.365475	1.285158	0.750482
H	-1.403283	1.586209	0.58513
H	0.312909	2.086065	0.454555
H	-0.215949	1.116395	1.818293
H	2.629479	0.0	0.0
