18

C	-0.57667	-0.00422	-1.413402
C	0.0	0.0	0.0
Br	0.324781	-1.357176	-2.505666
H	1.093327	0.0	0.0
C	-2.069382	-0.253635	-1.504855
H	-2.275483	-1.267604	-1.162131
H	-2.412967	-0.147967	-2.536096
H	-2.610271	0.456225	-0.877109
N	-0.265032	1.36412	-2.022613
O	-1.180093	2.189091	-1.967904
O	0.859532	1.581885	-2.445814
C	-0.46312	-1.187576	0.693892
N	-0.835374	-2.136693	1.282461
C	-0.339032	1.263776	0.797976
H	0.187652	2.113966	0.359186
H	0.064084	1.130216	1.804449
H	-1.407161	1.485623	0.862794
H	2.643533	0.0	0.0
