18

C	-0.352039	0.064083	-1.459497
C	0.0	0.0	0.0
Br	-2.332522	0.099282	-1.7922
H	1.091036	0.0	0.0
C	0.304072	1.238306	-2.139834
H	1.369704	1.190013	-1.870142
H	0.16979	1.176775	-3.217844
H	-0.122155	2.172605	-1.777335
N	0.118423	-1.203384	-2.185847
O	0.53004	-2.133539	-1.503938
O	0.06302	-1.18913	-3.413025
C	-0.551905	-1.140458	0.708438
N	-1.014343	-1.988968	1.379045
C	-0.357071	1.282038	0.759895
H	-0.125489	1.127179	1.815562
H	-1.413192	1.547955	0.663538
H	0.273756	2.102224	0.413176
H	2.63735	0.0	0.0
