18

C	-0.562978	0.040603	-1.420523
C	0.0	0.0	0.0
Br	0.2434	-1.381723	-2.497895
H	1.097052	0.0	0.0
C	-2.0713	-0.092384	-1.525483
H	-2.36435	-1.074307	-1.152697
H	-2.559443	0.681579	-0.932405
H	-2.39231	0.005047	-2.565099
N	-0.143109	1.382975	-2.028591
O	0.961403	1.497493	-2.53442
O	-0.962522	2.293929	-1.890595
C	-0.480206	-1.198377	0.658396
N	-0.867248	-2.153801	1.226584
C	-0.331675	1.240976	0.836509
H	-1.398859	1.463573	0.910656
H	0.194425	2.103892	0.425519
H	0.072996	1.071337	1.836885
H	2.642163	0.0	0.0
