13
Coordinates from ORCA-job run
  C   0.50528145970581     -0.54753398572502     -0.62952730309090
  C   -0.60745011802650      0.32392615409744     -0.06559675678736
  F   0.52355870162115     -1.74490950981315     -0.00047443866881
  H   -0.54707795358703      1.28893595533288     -0.57519726029902
  H   0.43853685890284     -0.69396181062187     -1.70889620260814
  N   1.81068970287712      0.16855329210267     -0.37125656576033
  O   1.90772260996722      1.24407824851568     -0.95132888224775
  O   2.62930177828440     -0.36303333327451      0.35876211407969
  N   -0.35081540699242      0.52659829797724      1.34595129033466
  H   -0.48047146921180     -0.33661055091460      1.85915153463565
  H   -0.97316704100002      1.22643165890167      1.72779260493911
  C   -1.90668432686687     -0.29967390102292     -0.38901065001249
  N   -2.95142479567389     -0.79280051555550     -0.60136948451430
