13
Coordinates from ORCA-job run
  C   0.80597367992585      0.30166352612582     -0.34137540254312
  C   -0.64493138013560      0.02633723945223      0.03054930108923
  F   0.82935595069501      0.82234391834885     -1.59749114530270
  H   -1.02073940484390     -0.71000597192672     -0.69547351980711
  H   1.30385628741781      0.97287387315100      0.35644964134520
  N   1.56808368236677     -0.99313422095029     -0.35851632619914
  O   2.36580896136340     -1.16923419549053      0.55809634608136
  O   1.29871171375337     -1.76892439083699     -1.26951193925892
  N   -1.33867201455818      1.30746495092009      0.02542642738003
  H   -1.43324002486195      1.62884598156225     -0.93011885486704
  H   -2.26487093691103      1.20790024661383      0.42123785343839
  C   -0.70260239608235     -0.57382000964550      1.36583360600235
  N   -0.76873411812920     -1.05331094732406      2.43489401264147
