13
Coordinates from ORCA-job run
  C   0.73392194939964      0.31609281795290     -0.31480670656845
  C   -0.72119791813032     -0.03428972692056      0.01094059640967
  F   0.75328424754641      0.97965148875751     -1.50220533744333
  H   -1.06367183433002     -0.68258783535470     -0.80321270483053
  H   1.22771380665906      0.91135833641146      0.45375078118360
  N   1.52874707422327     -0.94875330567186     -0.47231753316813
  O   1.25066505370948     -1.64096398066430     -1.44608698314320
  O   2.35234012062082     -1.19277266344376      0.40514344200481
  N   -1.60182060782512      1.11273083308479      0.08695622464219
  H   -1.32355990312479      1.74291067312039      0.82924992395629
  H   -1.59515333075475      1.61256841232430     -0.79300904298266
  C   -0.76470047415336     -0.79543120210174      1.26382145208712
  N   -0.77556818384032     -1.37951384749444      2.28177588785263
