13
Coordinates from ORCA-job run
  C   0.46104634598392     -0.52706480130627     -0.61248217024042
  C   -0.72367762677327      0.27639329785682     -0.06142113304199
  F   0.55840268273689     -1.71090380365921      0.03223752696169
  H   -0.74688682747521      1.23116375590977     -0.59483098087764
  H   0.42427288327385     -0.68760513944623     -1.69147914872055
  N   1.70436670535802      0.28215402155357     -0.33877048601959
  O   2.50215174729167     -0.13484422447840      0.48794105717932
  O   1.76550145375556      1.33353502289879     -0.96942273287231
  N   -0.66047675491375      0.53772437339036      1.35927760678235
  H   0.03070593753142      1.24437105186534      1.57344912311907
  H   -0.45241233902343     -0.30704789164616      1.87686312929803
  C   -1.95044283462811     -0.46399737072708     -0.39102685758756
  N   -2.91255137311754     -1.07487829221129     -0.67033493398041
