19

C	-0.341003	-0.13693	-1.483625
C	0.0	0.0	0.0
Cl	-0.082334	1.666048	-2.30847
H	1.096157	0.0	0.0
N	0.557179	-1.017788	-2.090285
H	1.508608	-0.81697	-1.783086
H	0.505013	-0.983726	-3.100518
N	-1.691794	-0.477708	-1.752164
H	-2.29308	0.266216	-1.419886
H	-1.834456	-0.571319	-2.751489
C	-0.445509	-1.277566	0.718642
H	0.028964	-1.309097	1.702072
H	-0.137659	-2.161295	0.161493
H	-1.53062	-1.310579	0.845783
C	-0.538979	1.23179	0.708678
H	-1.631951	1.29984	0.637656
H	-0.283351	1.163697	1.769028
H	-0.105195	2.147104	0.312067
Br	3.637425	0.0	0.0
