19

C	-0.299298	0.035945	-1.488544
C	0.0	0.0	0.0
Cl	-2.145859	0.549987	-1.749472
H	1.099007	0.0	0.0
N	0.452369	1.090544	-2.089877
H	0.323336	1.095172	-3.097289
H	1.437288	0.93481	-1.86177
N	-0.096882	-1.223524	-2.104603
H	-0.725727	-1.923062	-1.734217
H	-0.236322	-1.156911	-3.104768
C	-0.497498	-1.259287	0.690785
H	-1.581241	-1.377778	0.569169
H	-0.285665	-1.190323	1.760797
H	0.014557	-2.149442	0.319121
C	-0.464886	1.262894	0.71238
H	-0.249538	2.146173	0.111298
H	0.074859	1.349621	1.658622
H	-1.53828	1.233081	0.919225
Br	3.663727	0.0	0.0
