19

C	-0.332038	-0.013159	-1.484082
C	0.0	0.0	0.0
Cl	-2.201279	-0.399531	-1.697367
H	1.099007	0.0	0.0
N	-0.066622	1.237333	-2.100227
H	-0.250065	1.193457	-3.094886
H	-0.616054	1.98325	-1.694474
N	0.332847	-1.11334	-2.113587
H	1.33292	-0.993109	-1.949209
H	0.142508	-1.124452	-3.110208
C	-0.470188	-1.259292	0.716732
H	0.064599	-1.346222	1.666526
H	-0.25538	-2.144155	0.117849
H	-1.544776	-1.22664	0.918586
C	-0.470725	1.25834	0.715547
H	-0.250141	1.167366	1.782064
H	0.060734	2.143251	0.358287
H	-1.551615	1.40458	0.604759
Br	3.606517	0.0	0.0
