19

C	-0.211147	0.018047	-1.516703
C	0.0	0.0	0.0
Cl	-2.009081	0.040153	-1.912225
H	1.102529	0.0	0.0
N	0.376941	1.213758	-2.049897
H	0.486926	1.075921	-3.049085
H	1.306629	1.302337	-1.639355
N	0.315307	-1.146812	-2.21121
H	-0.146386	-1.988253	-1.885761
H	1.299559	-1.20618	-1.947165
C	-0.492832	-1.268167	0.678574
H	0.011288	-2.158801	0.297465
H	-0.272012	-1.213432	1.748071
H	-1.574485	-1.390919	0.557513
C	-0.527482	1.243562	0.700305
H	-0.143377	1.276887	1.724362
H	-0.214361	2.151103	0.18483
H	-1.621901	1.231924	0.738767
Br	3.578219	0.0	0.0
