17

C	-0.547951	0.024164	-1.414042
C	0.0	0.0	0.0
F	0.131442	0.92061	-2.189053
H	1.086162	0.0	0.0
N	-0.177948	-1.323124	-2.109738
O	0.797165	-1.936904	-1.704524
O	-0.858749	-1.602399	-3.095791
N	-1.918208	0.303756	-1.497916
H	-2.235166	0.136232	-2.447235
H	-2.405156	-0.32206	-0.867302
N	-0.478357	-1.112377	0.75514
O	0.03412	-1.260836	1.879755
O	-1.275485	-1.92422	0.2221
N	-0.352056	1.26985	0.670014
O	-1.206674	1.270328	1.557764
O	0.244328	2.260204	0.247903
H	2.332086	0.0	0.0
