17

C	-0.403934	0.007677	-1.451338
C	0.0	0.0	0.0
F	0.037884	-1.17452	-2.000263
H	1.090041	0.0	0.0
N	-1.931803	-0.015226	-1.658156
O	-2.583926	0.644185	-0.860424
O	-2.36123	-0.615434	-2.636891
N	0.073803	1.136177	-2.127009
H	1.017358	1.34574	-1.809649
H	0.058722	0.959794	-3.125556
N	-0.46136	-1.204437	0.698088
O	0.127215	-1.459714	1.74944
O	-1.346096	-1.898395	0.18254
N	-0.368553	1.192457	0.773501
O	0.153827	2.239646	0.387897
O	-1.082519	1.071004	1.768353
H	2.452838	0.0	0.0
