17

C	-0.358153	-0.166117	-1.463296
C	0.0	0.0	0.0
F	-1.638762	-0.607853	-1.667338
H	1.088296	0.0	0.0
N	-0.316261	1.222539	-2.154089
O	-1.026954	1.366766	-3.143191
O	0.53306	2.004369	-1.751941
N	0.576054	-1.019179	-2.052769
H	1.501401	-0.880681	-1.625592
H	0.594518	-0.93176	-3.059444
N	-0.431084	-1.189774	0.760136
O	-1.335397	-1.06406	1.589458
O	0.16905	-2.23185	0.508617
N	-0.58527	1.178413	0.648712
O	-1.548752	1.733825	0.120826
O	-0.05996	1.508974	1.708854
H	2.511638	0.0	0.0
