17

C	-0.261784	-0.050677	-1.491806
C	0.0	0.0	0.0
F	-0.050261	-1.365625	-1.882437
H	1.090061	0.0	0.0
N	-1.709721	0.227256	-1.916526
O	-2.007175	-0.109684	-3.059524
O	-2.426418	0.827338	-1.12644
N	0.559626	0.850352	-2.15983
H	0.625611	0.592557	-3.136816
H	1.482649	0.841105	-1.708668
N	-0.551738	-1.164778	0.710666
O	-1.57798	-1.68887	0.273969
O	0.065604	-1.522712	1.711807
N	-0.413189	1.222726	0.696102
O	0.040402	2.271812	0.243648
O	-1.097663	1.114666	1.715346
H	2.504467	0.0	0.0
