17

C	-0.373297	-0.167526	-1.459269
C	0.0	0.0	0.0
F	-1.652673	-0.614208	-1.647866
H	1.08829	0.0	0.0
N	-0.342125	1.217609	-2.156666
O	-1.115789	1.390562	-3.091604
O	0.557515	1.971658	-1.806686
N	0.556736	-1.022963	-2.049582
H	1.490782	-0.873666	-1.644793
H	0.547687	-0.969131	-3.0591
N	-0.424798	-1.199533	0.757101
O	-1.367507	-1.093876	1.546461
O	0.217225	-2.223838	0.537948
N	-0.570773	1.172054	0.666374
O	-0.069473	1.445498	1.756975
O	-1.486802	1.791669	0.12214
H	2.50814	0.0	0.0
