17

C	-0.552158	0.023277	-1.410393
C	0.0	0.0	0.0
F	0.127878	0.921828	-2.180377
H	1.086151	0.0	0.0
N	-0.176826	-1.323023	-2.109125
O	-0.856724	-1.604425	-3.094597
O	0.79514	-1.938744	-1.701124
N	-1.922794	0.308366	-1.48958
H	-2.414139	-0.317221	-0.862024
H	-2.241404	0.149871	-2.438364
N	-0.475513	-1.111175	0.758644
O	0.045375	-1.259713	1.876764
O	-1.283036	-1.918002	0.236669
N	-0.349895	1.270944	0.672672
O	-1.185143	1.264274	1.580296
O	0.232021	2.264448	0.236621
H	2.355486	0.0	0.0
