17

C	-0.401234	-0.027738	-1.476249
C	0.0	0.0	0.0
F	-1.654362	-0.520846	-1.649019
H	1.086852	0.0	0.0
N	-0.395792	1.400367	-2.026487
O	0.629054	2.032405	-1.795191
O	-1.346241	1.758338	-2.703193
N	0.513035	-0.73723	-2.301476
H	0.4279	-1.713245	-2.035889
H	1.452307	-0.452841	-1.999997
N	-0.38665	-1.246857	0.648817
O	-0.952621	-1.226981	1.744253
O	-0.037307	-2.27693	0.054284
N	-0.506121	1.134126	0.779103
O	0.058645	1.344859	1.851196
O	-1.426039	1.812199	0.307664
H	2.430875	0.0	0.0
