13
Coordinates from ORCA-job run
  C   0.97360979372871      0.07707081557994      0.13995090493630
  C   -0.51632261036290     -0.10255274808422      0.53455026444644
  F   1.65605072052954      0.63021328952843      1.19907214364026
  H   -0.51857164634426     -0.75240100570451      1.41709815996195
  C   1.53886250000971     -1.24619386459724     -0.16323412501717
  N   1.97679245213901     -2.31883909416116     -0.35518300120288
  C   1.07769414188296      0.96209699903167     -1.02901716653999
  N   1.13840831294816      1.69296865574517     -1.94649448664277
  N   -1.20437972949642     -0.70968616085977     -0.58443140883393
  H   -1.87988170268693     -0.09313826924121     -1.01230284537338
  H   -1.64420141574507     -1.58232425660712     -0.33293295070482
  C   -1.06451760707804      1.20054930531709      0.92780352284885
  N   -1.53354320952446      2.24123633405294      1.20412098848114
