13
Coordinates from ORCA-job run
  C   0.96017416074587      0.08193233007968      0.17677015140168
  C   -0.52953899321090     -0.15478600366927      0.52343174763395
  F   1.57925247228504      0.67931205553798      1.24931656802494
  H   -0.53517772711569     -0.85921692055430      1.36137837468302
  C   1.60571900975947     -1.20987311629346     -0.09911214668489
  N   2.13459214645774     -2.24319877207376     -0.27635026482193
  C   1.05896167024026      0.96153919827389     -0.99905742090735
  N   1.08513279547516      1.66755574326564     -1.93764533050041
  N   -1.16243162157063     -0.76579715708444     -0.62276625174111
  H   -1.46046018707225     -0.07046152867335     -1.29645093482204
  H   -1.96291855125111     -1.31961633046070     -0.34980756193447
  C   -1.12579250200149      1.11391799377950      0.97776635321025
  N   -1.64751267274146      2.11869250787260      1.29152671645836
