13
Coordinates from ORCA-job run
  C   0.85999752044960     -0.36545403394808     -0.28957493435214
  C   -0.58874288880354     -0.38727879445389      0.26598883933610
  F   1.03553046253321     -1.49186618502441     -1.05125339443693
  H   -0.68938605695673     -1.35934056356938      0.76008262914088
  C   1.04467028477004      0.82741880117502     -1.13110699926235
  N   1.14151908335714      1.79173881114626     -1.79469765104269
  C   1.84001906205017     -0.37785719764340      0.80866673087366
  N   2.60509810136262     -0.41777899700811      1.69931188262419
  N   -1.51122721648481     -0.32021698427266     -0.84262781605896
  H   -1.70110518849763      0.63765091089464     -1.11130046108139
  H   -2.38473555056116     -0.77551630719577     -0.61579734549023
  C   -0.74119634860923      0.67968419997323      1.27163626794848
  N   -0.91044126460967      1.56081633992653      2.03067225180138
