13
Coordinates from ORCA-job run
  C   0.77834226294807      0.04765751545207     -0.41290543442056
  C   -0.51605037393195     -0.00640864970030      0.42811331068040
  F   0.41350997590235      0.13734007981116     -1.73999110708550
  H   -0.21911071879627     -0.11375453757825      1.47679911807722
  C   1.59225511081623      1.21982253314043     -0.05576034480521
  N   2.22770628851795      2.15660166869250      0.25848430656992
  C   1.55239550432714     -1.18559943112517     -0.20528293028003
  N   2.19882528847137     -2.14785354394290     -0.01886017956804
  N   -1.25318191648320     -1.18209359718827      0.02418085881417
  H   -1.69712837545702     -1.03473804531199     -0.87365413355935
  H   -1.96444515261736     -1.41244032098118      0.70562647421250
  C   -1.23998722163054      1.27103321091182      0.27487714086174
  N   -1.87313067206677      2.25143311782007      0.13937292050275
