13
Coordinates from ORCA-job run
  C   0.66008209574160      0.07571185048962     -0.48741514845372
  C   -0.52538512093037      0.06988345571816      0.53037487152603
  F   0.12752070987807      0.18718419806687     -1.75346507724662
  H   -0.09106143611851     -0.01231906791431      1.53326671021991
  C   1.57830247197806      1.19335671331378     -0.23742730744819
  N   2.29582088951287      2.09131515873726      0.00667844330010
  C   1.37209469676781     -1.20686388791630     -0.38031277032705
  N   1.89304890315689     -2.25126518109243     -0.24657359514106
  N   -1.46406359265761     -1.00224421669940      0.33511791235476
  H   -1.05945731783107     -1.90185588595111      0.56118848285781
  H   -1.82492262307371     -1.01120886056293     -0.61024271188197
  C   -1.20830166401862      1.36693754479216      0.42485036730144
  N   -1.75367801240542      2.40136817901864      0.32295982293855
