13
Coordinates from ORCA-job run
  C   0.79621531567624     -0.33677001226256     -0.32021575365904
  C   -0.60447416871840     -0.26309531632368      0.33003824705721
  F   0.78731770892437     -1.45392707830394     -1.13477704634246
  H   -0.69830515666845     -1.17988979793158      0.93327623752407
  C   1.05930274276755      0.85396951020207     -1.13881904062470
  N   1.29794857577222      1.80704353329887     -1.78185534539594
  C   1.83915407645069     -0.50748510060741      0.70223008251807
  N   2.64668139334785     -0.67327012181663      1.53910250900040
  N   -1.57459792334392     -0.12625903433010     -0.73776633370416
  H   -1.70987910516652     -1.01636509591111     -1.19975643504844
  H   -2.46363301457411      0.19945538626361     -0.38162571768225
  C   -0.65741980966827      0.88960126665053      1.23069457866625
  N   -0.71831063479927      1.80799186107198      1.95947401769100
