13
Coordinates from ORCA-job run
  C   0.73893509377212      0.28980285153526     -0.21929216678735
  C   -0.59149947278837     -0.29244179484939      0.35707756264342
  F   0.47031894045226      1.54865332525244     -0.71100489926621
  H   -0.36531061900562     -1.29097823882914      0.74804404424165
  C   1.78047520862923      0.37280194117987      0.81180850054542
  N   2.59030937820750      0.40553307169115      1.66273659200273
  C   1.18217186767145     -0.57087856355064     -1.32688793652285
  N   1.47876175905162     -1.29721644132575     -2.20126515578666
  N   -1.65587314151360     -0.39422842849822     -0.60527702322157
  H   -1.84010885586860      0.49649494559282     -1.04851747825662
  H   -1.46264517658525     -1.09786697883677     -1.30633061825466
  C   -1.00270946519490      0.56415336217289      1.47789551429163
  N   -1.32382551682782      1.26617094846545      2.36201306437109
