13
Coordinates from ORCA-job run
  C   0.96121983361571      0.05850123520812      0.18411837301917
  C   -0.52636190752849     -0.23806287026916      0.49190482154847
  F   1.57995017293678      0.48377087166266      1.33606535860549
  H   -0.52654604752584     -1.06946593898568      1.20405275307735
  C   1.61208369317225     -1.17141144921543     -0.29006910521449
  N   2.14161254402229     -2.16599817647604     -0.62074134974621
  C   1.05233438870271      1.11194877327355     -0.83944051578088
  N   1.06931280484973      1.95400485744840     -1.65838168591145
  N   -1.16076805041245     -0.65818042667797     -0.73632131113278
  H   -1.46145229222988      0.13595818203130     -1.28882586811657
  H   -1.95956047103885     -1.25041118185482     -0.55425272939110
  C   -1.12721443600866      0.93669254093322      1.14822804309280
  N   -1.65561023255531      1.87165358292184      1.62466321595020
