13
Coordinates from ORCA-job run
  C   0.82111612741247     -0.30870552858926     -0.28798112252220
  C   -0.60911018331560     -0.28881364680512      0.29927195645953
  F   0.88525506109545     -1.41612537677259     -1.11334873912007
  H   -0.69878552816837     -1.21583869228891      0.88717554258428
  C   1.08041557363233      0.89972540937974     -1.08154631979411
  N   1.31550922563860      1.87121557029939     -1.69795485532465
  C   1.82315655385906     -0.45641734427716      0.77812153159960
  N   2.59777381357102     -0.59554981548650      1.65031556628806
  N   -1.53420860042461     -0.17100499608430     -0.80987592563740
  H   -2.44545416881887      0.13325246244597     -0.49329041230380
  H   -1.62773410912149     -1.06191419449878     -1.28048554693337
  C   -0.74081061796397      0.85055529133358      1.20886474962535
  N   -0.86712314739605      1.76062086134394      1.93973357507878
