13
Coordinates from ORCA-job run
  C   0.93897804568199      0.07637393601373      0.26735224625133
  C   -0.56070050958111     -0.26600765675290      0.43984110108485
  F   1.44661000020421      0.48375374465341      1.47856862059664
  H   -0.59864436881979     -1.11383935252402      1.13140305918799
  C   1.66228295031938     -1.12169690675678     -0.18286551516763
  N   2.25305380916742     -2.08775244686926     -0.49405773247244
  C   1.08558604278133      1.16154654010832     -0.71581449672537
  N   1.14531081958522      2.02980476053669     -1.50482757667424
  N   -1.07610452053770     -0.67201457347031     -0.84747910860092
  H   -1.87112534227133     -1.28841009068146     -0.74776117477587
  H   -1.35052319520517      0.12753060271827     -1.40575048992076
  C   -1.24537226163155      0.87813255787264      1.06758455169145
  N   -1.83035146969291      1.79357888515167      1.51480651552497
