13
Coordinates from ORCA-job run
  C   0.80888924169606     -0.32975446100812     -0.29661399829946
  C   -0.60588070201965     -0.27003614934788      0.32372779735277
  F   0.83809613421383     -1.46496353472397     -1.08544070432064
  H   -0.69418423006291     -1.17630049669616      0.94341896010814
  C   1.06629027687045      0.84690316829353     -1.13719312280272
  N   1.30677439813142      1.78931545960761     -1.79544594049573
  C   1.83463360984527     -0.45584811416441      0.74951860563877
  N   2.62872640461940     -0.57515148357624      1.60701048537361
  N   -1.55642907553456     -0.17475543745788     -0.76596199293762
  H   -1.67417665685551     -1.07886661415551     -1.20501611936944
  H   -2.45495436171932      0.15326763946046     -0.43783599009487
  C   -0.69999279171492      0.89978912133863      1.19868880695546
  N   -0.79779224746955      1.83540090242995      1.90114321289174
