13
Coordinates from ORCA-job run
  C   0.97413824213896      0.03874911207868      0.09900474134715
  C   -0.49280113834530     -0.13145315822478      0.56253100858536
  F   1.70160440232151      0.60845358891112      1.11726230045578
  H   -0.46415253284762     -0.83790945404077      1.39831590656755
  C   1.53765347426690     -1.28115344644930     -0.21983522264169
  N   2.00389261159560     -2.33886962254745     -0.42693319439959
  C   1.01889900914485      0.91276367375350     -1.08415918453307
  N   0.99942016463691      1.61615883898259     -2.02482389336410
  N   -1.24100352195333     -0.70963712733662     -0.52994703433807
  H   -1.55825557688036      0.00064210640215     -1.17883894338660
  H   -2.04256820882887     -1.22628758625930     -0.19460009312021
  C   -0.99352141044427      1.16096532855700      1.06291270209639
  N   -1.44330551480498      2.18657774617317      1.41811090673110
