13
Coordinates from ORCA-job run
  C   0.97725721876299      0.03352844263606      0.04920879093528
  C   -0.46643226318361     -0.11603255200237      0.58680519016413
  F   1.75696578134376      0.62193168987694      1.01665028339414
  H   -0.40187371224262     -0.80314129448943      1.43660037682341
  C   1.51705826001583     -1.29747310563239     -0.26528363824068
  N   1.96478805368232     -2.36301739141640     -0.47312191307595
  C   0.96911599710331      0.88049312696311     -1.15437825661904
  N   0.91175663606286      1.57862485882288     -2.09744683200727
  N   -1.26959428605455     -0.71400196149260     -0.45495816810032
  H   -2.05594184731164     -1.21919149704091     -0.06986278776586
  H   -1.61525844393709     -0.01632293910985     -1.10299002250787
  C   -0.93463906261254      1.19068449619485      1.08139194738531
  N   -1.35320233162904      2.22491812669009      1.44938502961472
