13
Coordinates from ORCA-job run
  C   0.96166690487435      0.07493436079933      0.17237762597634
  C   -0.51827335291397     -0.23213406593037      0.50537524217794
  F   1.58787858659093      0.53719137720669      1.30585196133995
  H   -0.49940725086099     -1.04224129963172      1.24141143083402
  C   1.62382865145333     -1.15777884096737     -0.27867912098394
  N   2.17029990805884     -2.14901624779053     -0.59188958912038
  C   1.02715387411612      1.10345857596478     -0.87819968323288
  N   1.02408064949394      1.92847093777100     -1.71461968387233
  N   -1.16024006881523     -0.69649648090567     -0.70295851636195
  H   -1.47920876200829      0.07687023226519     -1.27424124909248
  H   -1.94785344959316     -1.29494348694638     -0.49501372682864
  C   -1.12763234575298      0.95389233287225      1.13247697409304
  N   -1.66229334464290      1.89979260529279      1.57910833507132
