13
Coordinates from ORCA-job run
  C   0.97068676082558      0.06130568479232      0.16299741700804
  C   -0.52938655888354     -0.11759308489935      0.51778826441956
  F   1.64228500262518      0.51888647939837      1.27339910385298
  H   -0.55406773555734     -0.79150209423577      1.38285697848558
  C   1.51374171682850     -1.24896372492377     -0.22675470250078
  N   1.92495300629585     -2.31611158398496     -0.49384738012408
  C   1.11850609248245      1.02698714188295     -0.93480969726080
  N   1.22266158304000      1.82934716299346     -1.78619769090467
  N   -1.20064259647162     -0.66687507094057     -0.64193942706633
  H   -1.54703814285648     -1.59956997781909     -0.47217876318193
  H   -1.94789531421220     -0.07824909381430     -0.97985520320143
  C   -1.07619138667412      1.17548237677813      0.93979334399498
  N   -1.53761242744228      2.20685578477259      1.25974775647889
