13
Coordinates from ORCA-job run
  C   0.90764682730954      0.05024490257536      0.20774486735553
  C   -0.59723012265244     -0.20240161958280      0.54805770038717
  F   1.57905809139464      0.39062081919628      1.35610069433542
  H   -0.59600961485089     -1.00010519429805      1.29983407182676
  C   1.47060964652882     -1.19335175190385     -0.34149343368568
  N   1.85189426061893     -2.21860259842698     -0.77030462485883
  C   1.01874610965876      1.13458451290613     -0.77860862023097
  N   1.04509929383048      2.01491658811615     -1.55637945583233
  N   -1.41700066450652     -0.59963020995425     -0.56277450669846
  H   -1.45654628327851      0.10357026119519     -1.28943028350563
  H   -1.14007447806260     -1.49423873889549     -0.94464714222373
  C   -1.12699739434542      1.01576723111490      1.17203716195281
  N   -1.53919567164478      2.00062579795741      1.65986357117794
