13
Coordinates from ORCA-job run
  C   0.77239040932172      0.06520684286341     -0.42175853765998
  C   -0.50922035476464     -0.02731224507240      0.43530426518756
  F   0.38786133136220      0.22913640148295     -1.73630941236676
  H   -0.19678140890897     -0.19467998295803      1.47155987187242
  C   1.59889618026256      1.21181662443721     -0.01455242132198
  N   2.24389971501617      2.12823259344008      0.33789610580162
  C   1.54138082682184     -1.18192473848097     -0.29421990445790
  N   2.18249852328941     -2.15775188739679     -0.17001282803609
  N   -1.26121393535220     -1.17409559050571     -0.02108494193598
  H   -1.96331197593642     -1.43752199033313      0.65781956345062
  H   -1.71778418553499     -0.97453027006874     -0.90236568774620
  C   -1.22602555065693      1.26136521021991      0.36411113416172
  N   -1.85358957491975      2.25205903237219      0.29261279305094
