13
Coordinates from ORCA-job run
  C   0.97417543093399      0.04838385341178      0.08602194358862
  C   -0.48535623512502     -0.13034247737986      0.56956097731817
  F   1.70914144736193      0.63497758073713      1.08910195352725
  H   -0.44029290087004     -0.82993896441859      1.41038078814619
  C   1.54569542066442     -1.26956683671284     -0.22661930278096
  N   2.01905761092299     -2.32489462387607     -0.42973568954011
  C   0.99623300848225      0.91006578227262     -1.10684648855810
  N   0.95980051212673      1.60076768655599     -2.05633158879436
  N   -1.24240986722553     -0.72347783654530     -0.50869590561689
  H   -2.03543047303776     -1.24388434330238     -0.15906909936691
  H   -1.57364291131460     -0.02107619830593     -1.15914669231369
  C   -0.98957261579320      1.16177259176216      1.06716867646483
  N   -1.43839842712615      2.18721378580130      1.42421042792595
