13
Coordinates from ORCA-job run
  C   0.95676089987405      0.01106048845260      0.20342566197184
  C   -0.54815001871394     -0.22903236724624      0.47342371237360
  F   1.56875434981725      0.37879444904885      1.37877027502011
  H   -0.59905771696069     -1.07839813212670      1.16220450767468
  C   1.56612782295975     -1.23254155529865     -0.29014450349470
  N   2.06824422115689     -2.23771853067834     -0.63148458701195
  C   1.11486020590454      1.08702441379043     -0.78806342953916
  N   1.18991435617254      1.95221749134899     -1.57904840374974
  N   -1.17348033098628     -0.58775762153682     -0.77875077543841
  H   -2.00052258467708     -1.14965271745929     -0.62954226620425
  H   -1.42924739259380      0.23355209007275     -1.31383259414288
  C   -1.11047547493215      0.95293500255220      1.15046797581239
  N   -1.60372833702108      1.89951698908021      1.64157442672847
