13
Coordinates from ORCA-job run
  C   0.95178068561928      0.05223904976157      0.22795756216063
  C   -0.54262582644951     -0.28687007283437      0.44668059726194
  F   1.51787435763396      0.37842609370743      1.43752226094246
  H   -0.55820952002497     -1.17654889290793      1.08413842791120
  C   1.63884034454062     -1.12250526060243     -0.32820724908706
  N   2.19861779162954     -2.07528412678067     -0.72546287217700
  C   1.06814473734982      1.19484417578047     -0.69233637607126
  N   1.10446026646682      2.10888186672713     -1.42946225567264
  N   -1.12100103715390     -0.60507165960350     -0.83804812951353
  H   -1.91628552738379     -1.22156389006655     -0.74261573262594
  H   -1.41170408649778      0.23034613641761     -1.33150151354013
  C   -1.18589221051097      0.81919754374103      1.17804168692292
  N   -1.74399997521913      1.70490903666022      1.71129359348842
