13
Coordinates from ORCA-job run
  C   0.73917578517900      0.43713697021596     -0.20232125039185
  C   -0.47392528648686     -0.43477588071285      0.18965577994953
  F   0.30134647769947      1.74015686037405     -0.31461626314098
  H   -0.12596879052144     -1.47187890789348      0.24188355300908
  C   1.79235479910053      0.36820377200266      0.82237221226288
  N   2.62150996863443      0.28472645346495      1.65039036784180
  C   1.26881876853662     -0.00938635688378     -1.49963161405573
  N   1.72569804355087     -0.38058930487595     -2.51552452725158
  N   -1.45680595399559     -0.31917739279343     -0.86352009244475
  H   -1.92856014104827      0.57523866086555     -0.81574292036184
  H   -2.14635547362151     -1.05611743881195     -0.79560322388599
  C   -0.94082609400148     -0.02890336227545      1.53021477170451
  N   -1.37646210302577      0.29736592732372      2.57144320676490
