13
Coordinates from ORCA-job run
  C   0.73145282742138      0.01445791794440     -0.49421563848589
  C   -0.46747486757574      0.01734208339183      0.47931824372664
  F   0.23153614845771      0.09641673110236     -1.77710574957511
  H   -0.06460401708465     -0.08388598355373      1.49269974019828
  C   1.61536844085711      1.16372511626233     -0.24556115496567
  N   2.30886763725480      2.08330093032428     -0.01422667953698
  C   1.48372744713059     -1.24060326892933     -0.34624591775967
  N   2.11579504807768     -2.22005903587340     -0.20575266239932
  N   -1.28155358788282     -1.13812191043985      0.17845661529881
  H   -1.81245351801701     -0.99018852958034     -0.67065328177516
  H   -1.92402085626308     -1.33299998606085      0.93498651953122
  C   -1.16187161150071      1.31639084790253      0.37834679229304
  N   -1.77576909087528      2.31422508750976      0.28995317344981
