13
Coordinates from ORCA-job run
  C   0.78559100752874      0.12728307186402     -0.37905663025971
  C   -0.52583034898155     -0.08267289948228      0.40895010743147
  F   0.44837307360644      0.40769839435732     -1.68707684710560
  H   -0.25169718992884     -0.33585724049723      1.43877238799909
  C   1.55941742068290      1.25075252658381      0.17113318406153
  N   2.16229063345193      2.14386128139114      0.63906797250245
  C   1.58873590565982     -1.10393071774087     -0.34058308465661
  N   2.25873657344759     -2.06664413481071     -0.28651294100318
  N   -1.22061567472509     -1.20255333906820     -0.18325857327010
  H   -1.93873307738306     -1.55090974973529      0.43787765464136
  H   -1.64841982058390     -0.93539594948995     -1.06099459678305
  C   -1.28069649508480      1.18650615024662      0.42508745586560
  N   -1.93715200769018      2.16086260638160      0.41759391057675
