13
Coordinates from ORCA-job run
  C   0.80429029048905     -0.31130126232044     -0.32814126141161
  C   -0.60465308936930     -0.29091697463006      0.30786757588186
  F   0.82096464830657     -1.38560462826729     -1.19856519608406
  H   -0.69179669833644     -1.23859478712503      0.86241980722675
  C   1.05915321573471      0.92356928963579     -1.08151999435145
  N   1.29085861278920      1.91659122613749     -1.66415245908723
  C   1.83848591936073     -0.51720272162440      0.69680735986373
  N   2.64084478053639     -0.68683465612404      1.53819626784626
  N   -1.56405903955442     -0.11350376696047     -0.76367981418346
  H   -1.67873602575558     -0.98019565949563     -1.27338093156732
  H   -2.46267694066064      0.17839580855891     -0.40219771245011
  C   -0.68538628914069      0.81348201617041      1.26538033807012
  N   -0.76828938439955      1.69111611604480      2.04096602024654
