13
Coordinates from ORCA-job run
  C   0.80309808243015      0.06452519001808     -0.35888182241854
  C   -0.54383334354122     -0.02642572214510      0.39140618057737
  F   0.52603605504131      0.22611775786784     -1.70039937355483
  H   -0.31686975308948     -0.18987027302566      1.45035363871519
  C   1.59442561621657      1.21126092409896      0.11288224886484
  N   2.21036018365702      2.12569232085208      0.51844488697101
  C   1.55990351190986     -1.18195492504326     -0.16797119665632
  N   2.18822903360983     -2.15883155149204      0.00364779677425
  N   -1.25542446710974     -1.17538754986422     -0.12052260391036
  H   -1.63758920388594     -0.98000667364585     -1.03741432177647
  H   -2.01126578434211     -1.43634406054253      0.49900014414211
  C   -1.25201679978740      1.26221686984782      0.25977713770236
  N   -1.86405313110880      2.25900769307384      0.14967728456941
