13
Coordinates from ORCA-job run
  C   0.79498929803359      0.27239191935124     -0.26570917389591
  C   -0.53630889163583     -0.32321326944499      0.24252255644077
  F   0.60164968209933      1.62347043421545     -0.46480066968348
  H   -0.38579384032282     -1.40111280319656      0.36506529659166
  C   1.87076908596937      0.07910913970917      0.71879089030159
  N   2.71372067982751     -0.09218895652696      1.51872222289673
  C   1.16139249348339     -0.35671797978123     -1.54355697296513
  N   1.47749626261673     -0.86647608011930     -2.55275848144364
  N   -1.53570626370495     -0.10031047997653     -0.77737544480855
  H   -1.82788931868568      0.86895294113746     -0.78582341678520
  H   -2.34675131950030     -0.68408348207732     -0.62050765866324
  C   -0.84559752330846      0.25797371756231      1.56402713375194
  N   -1.14297034487185      0.72220489914728      2.60140371826246
