13
Coordinates from ORCA-job run
  C   0.81601492331803     -0.30834702554414     -0.30328484663362
  C   -0.59993081155025     -0.28849713328881      0.31775201028487
  F   0.86748902629859     -1.42723849356837     -1.11405149317945
  H   -0.66967968050795     -1.20768856442879      0.92049126206876
  C   1.04839061766723      0.89006780511474     -1.11997487678179
  N   1.25920426034676      1.85497089196180     -1.75511049511015
  C   1.84444460727110     -0.43466493043427      0.74033071249526
  N   2.64243238642450     -0.55527134531882      1.59405966681655
  N   -1.55215583973348     -0.19203933770970     -0.77001153480595
  H   -2.45663651028341      0.11440620196381     -0.43672129229688
  H   -1.65332405064507     -1.09029539823518     -1.22444813889386
  C   -0.71655370378286      0.86255693476881      1.21447243462843
  N   -0.83069522482319      1.78204039471892      1.93549659140783
