13
Coordinates from ORCA-job run
  C   0.77221304442926      0.35433492458286     -0.23477105042238
  C   -0.50806388245348     -0.37255277259751      0.23188658203939
  F   0.42961522615727      1.65649711911758     -0.53469316646957
  H   -0.23632977242210     -1.41373257775104      0.43567139211949
  C   1.79534393584664      0.35611213266285      0.82217298052578
  N   2.60026746647706      0.33360379340367      1.67757112051883
  C   1.29803740923089     -0.29837314726167     -1.44322975138445
  N   1.74988649865772     -0.83385434951575     -2.38542695608275
  N   -1.45567316470366     -0.33734385336872     -0.85839827679616
  H   -1.86527405813122      0.58409938636149     -0.94727461210917
  H   -2.19579476550377     -1.01157613052819     -0.71495396390143
  C   -0.97555801122961      0.24423878183596      1.48922893185528
  N   -1.41066992635501      0.73854669305845      2.46221677010713
