13
Coordinates from ORCA-job run
  C   0.97483459028332      0.05016860105782      0.08522629132795
  C   -0.48200863444751     -0.15311510055677      0.56684220070346
  F   1.71019294372885      0.60375891694309      1.10673666267214
  H   -0.42997486876711     -0.87970965172075      1.38400609620758
  C   1.55195591061267     -1.25258370172911     -0.27697253194570
  N   2.02987856467438     -2.29745166203074     -0.51952080698019
  C   0.98863325299500      0.95531722475716     -1.07512119695895
  N   0.94432030078294      1.68317349541643     -1.99615794645239
  N   -1.23932498737857     -0.71453937499704     -0.52792423471173
  H   -1.57649611564802      0.00691300241627     -1.15407824467714
  H   -2.02814529041992     -1.25094395821488     -0.19336938027556
  C   -0.99268039164168      1.11922644342987      1.10718314246577
  N   -1.45018527477437      2.12978576522865      1.49414994862477
