13
Coordinates from ORCA-job run
  C   0.76940370505254     -0.00028944858472     -0.43164494740169
  C   -0.50741010152872      0.04331976825953      0.43621281656575
  F   0.37745162727659     -0.08161566308400     -1.75151113322721
  H   -0.18896938084092      0.06980564932236      1.48378714791861
  C   1.57893353743933      1.21327872048102     -0.24260992844591
  N   2.21136861584572      2.18733926532079     -0.06595244745363
  C   1.55963372510012     -1.19146757061814     -0.08592551791285
  N   2.21921224599156     -2.11647347490631      0.21085827989121
  N   -1.24240943330481     -1.17805191240839      0.19795687472270
  H   -1.70331596030311     -1.14761865715895     -0.70291760671762
  H   -1.93955247800173     -1.32467079544818      0.91614180749258
  C   -1.24510699771450      1.28729288086314      0.13963311712577
  N   -1.88923910501208      2.23915123796185     -0.10402846255770
