13
Coordinates from ORCA-job run
  C   0.68217343986533      0.09749025305959     -0.45062295645175
  C   -0.54857227482424      0.04218692385611      0.51096684875172
  F   0.20859107918967      0.29326296952651     -1.72945362850227
  H   -0.16125989492503     -0.11074395862895      1.52476365089319
  C   1.59826618896520      1.18630417325061     -0.09047558984601
  N   2.31371959206114      2.05812440841664      0.23962408982204
  C   1.37670284162411     -1.19763467237397     -0.39180646534249
  N   1.88004511512146     -2.25522055922294     -0.30162372923669
  N   -1.48876914344210     -1.00231628981118      0.20382446062344
  H   -1.10248800557172     -1.92056339039553      0.38417095504841
  H   -1.80765434713465     -0.94228014567700     -0.75493019399831
  C   -1.21230380790545      1.35221882938225      0.45880683240960
  N   -1.73945078302372      2.39917145861786      0.39775572582913
