13
Coordinates from ORCA-job run
  C   0.84010886968485     -0.37312601253998     -0.33628332840039
  C   -0.58561668958465     -0.38425561090138      0.27577027836705
  F   0.96080733738825     -1.47642607732629     -1.14124033127326
  H   -0.68803875939839     -1.37089893683195      0.73988590666922
  C   1.01762253902636      0.84337058316873     -1.14469666597920
  N   1.10929000097564      1.82782479897309     -1.77882237215209
  C   1.86240105218877     -0.44250562198854      0.72041151609153
  N   2.66312094966249     -0.52492251404443      1.57614726474871
  N   -1.54953288930311     -0.25950816916109     -0.79193394696913
  H   -1.72715911028398      0.71092419294936     -1.02118845738644
  H   -2.42385053754392     -0.70234716024789     -0.54449040543038
  C   -0.67640988137693      0.64882523725879      1.32356490731766
  N   -0.80274288143537      1.50204529069159      2.12187563439673
