13
Coordinates from ORCA-job run
  C   0.74449631185775      0.42755229483326     -0.20249408898618
  C   -0.47928041526283     -0.42951421566731      0.18858287859967
  F   0.32688498542922      1.73877458194541     -0.29490010969954
  H   -0.14784769475072     -1.47270167745526      0.22607690560126
  C   1.80466058868902      0.32828336522829      0.81252928409294
  N   2.63989541769997      0.21891039713986      1.63135161551720
  C   1.25677821438179     -0.01086488609827     -1.50951679106704
  N   1.70051448582366     -0.37539202205534     -2.53364268511805
  N   -1.46801100155288     -0.28657637425770     -0.85576188688625
  H   -1.92501853040375      0.61471128029029     -0.79424891788818
  H   -2.16902540830241     -1.01277410595834     -0.78981590037958
  C   -0.92996954781893     -0.03154122818134      1.53702371219243
  N   -1.35307740578990      0.29013259023646      2.58481598402132
