13
Coordinates from ORCA-job run
  C   0.75619996146412     -0.36108678542604     -0.28324710062350
  C   -0.64130090201361     -0.31139253257143      0.41252407945192
  F   0.75318971099126     -1.49283272959087     -1.07648896327904
  H   -0.69733217768985     -1.23201501256338      1.00568716115601
  C   0.93141148558460      0.81861862884990     -1.14041168282913
  N   1.01063048557492      1.77211514102626     -1.82219364468934
  C   1.84040168709540     -0.46803635158496      0.69970651476008
  N   2.67688553581981     -0.57523281655579      1.51804504501124
  N   -1.75328782434096     -0.27641758146820     -0.49781814610743
  H   -1.73586630371616     -1.07408021432182     -1.11996057786428
  H   -1.77773329446109      0.58130013428297     -1.03605451874037
  C   -0.67334031763668      0.84022069219067      1.31871115479768
  N   -0.68985804667176      1.77983942773269      2.02250067895617
