13
Coordinates from ORCA-job run
  C   0.94069309089553      0.06204751192973      0.25907139987191
  C   -0.55376246037201     -0.30439925941306      0.42305927733981
  F   1.46107172923426      0.37853597812730      1.49185707639207
  H   -0.57650199415014     -1.20486414315255      1.04522106188660
  C   1.66739079329887     -1.09146626232171     -0.29117998913476
  N   2.26592215892792     -2.02327884005106     -0.68192651818136
  C   1.06939555261052      1.22180073407609     -0.63774976443336
  N   1.12136960514633      2.15596723510368     -1.34807263763924
  N   -1.08353761822529     -0.61115480054330     -0.88582600857603
  H   -1.87292403821108     -1.23986142790885     -0.82520933380485
  H   -1.37153262949114      0.22800917531030     -1.37486088224022
  C   -1.23930749681504      0.77956826976914      1.14870642250809
  N   -1.82927669284874      1.64809582907427      1.67590989601134
