13
Coordinates from ORCA-job run
  C   0.77438621006404      0.35241198363244     -0.23201780655098
  C   -0.51003991913214     -0.37258259747402      0.22569470460228
  F   0.44374963536135      1.66493433670384     -0.49682507082431
  H   -0.24754327656622     -1.42108114845342      0.40273108162804
  C   1.80395404196888      0.31604272299616      0.81780781179107
  N   2.61210603023073      0.26118475925726      1.66858668766578
  C   1.28536720021958     -0.27480870580235     -1.46007322124015
  N   1.72883046265276     -0.78698646640189     -2.41908496430074
  N   -1.46466881216293     -0.30220198948509     -0.85729617614441
  H   -2.21277137260110     -0.96952225546490     -0.72153790867359
  H   -1.86373681158940      0.62608392672366     -0.92243895579782
  C   -0.96302233600960      0.21744957828555      1.50117967241305
  N   -1.38561105243596      0.68807585548275      2.49127414543178
