13
Coordinates from ORCA-job run
  C   0.77447599826777     -0.34501698102170     -0.25137016523333
  C   -0.65137177985759     -0.32553928708730      0.38625161445222
  F   0.82793826314387     -1.47608642740133     -1.04403844341219
  H   -0.71289497519467     -1.24859379908992      0.97508667389335
  C   0.95851930502651      0.83803953969870     -1.10201072700430
  N   1.03977416736523      1.78924524536134     -1.78679184158306
  C   1.81964311181826     -0.42981405763789      0.77505692432152
  N   2.62399146222397     -0.52080133049959      1.62699605649683
  N   -1.72512857194595     -0.31054788570260     -0.56924089953926
  H   -1.74647460496039      0.54899848792725     -1.10462038480880
  H   -1.66459914969070     -1.10449952696726     -1.19339789130218
  C   -0.74328744836083      0.82294784694831      1.29212169615042
  N   -0.80258577783547      1.76166817547199      1.99495738756879
