13
Coordinates from ORCA-job run
  C   0.92808087480054      0.03495570408281      0.07054620755502
  C   -0.51959323952796     -0.06830128345368      0.65080994444048
  F   1.76762594101444      0.53111971501445      1.03697404768145
  H   -0.43609704459098     -0.72043918158029      1.52783193821235
  C   1.36755098750578     -1.31542900539876     -0.31533261749543
  N   1.66356676900041     -2.42095395008685     -0.58076224402737
  C   0.93181265618677      0.92192565248392     -1.10199304964067
  N   0.87596945879178      1.64137509002499     -2.02923018316945
  N   -1.50149455305827     -0.60747143809596     -0.24855766071961
  H   -1.62256367023568     -0.04229691373491     -1.07912311170747
  H   -1.31206414056630     -1.57017063114908     -0.49351606752384
  C   -0.91678504899438      1.26884359807668      1.10748058894556
  N   -1.22500899032612      2.34684264381664      1.45487220744900
