18

C	-0.494094	-0.013523	-1.440666
C	0.0	0.0	0.0
F	-0.028831	1.141271	-2.052283
H	1.087479	0.0	0.0
N	0.167498	-1.137353	-2.241906
O	-0.133691	-1.151124	-3.433528
O	0.902154	-1.928698	-1.669199
N	-1.87434	-0.205765	-1.612411
H	-2.103345	-0.121704	-2.595217
H	-2.372026	0.476381	-1.054434
C	-0.552681	-1.112467	0.871064
H	-1.642224	-1.086136	0.906923
H	-0.142457	-1.005813	1.877395
H	-0.222457	-2.070069	0.473743
N	-0.43284	1.308215	0.604997
O	0.410076	1.98596	1.175069
O	-1.636255	1.595918	0.543607
Br	3.52059	0.0	0.0
