18

C	-0.368797	-0.047236	-1.473097
C	0.0	0.0	0.0
F	-1.63941	-0.489415	-1.702822
H	1.089521	0.0	0.0
N	-0.332923	1.361159	-2.1097
O	-1.041743	1.54083	-3.096678
O	0.495051	2.142808	-1.656136
N	0.549526	-0.895175	-2.121473
H	1.508421	-0.709803	-1.82105
H	0.455619	-0.845836	-3.127508
C	-0.492597	-1.239484	0.729538
H	-1.583646	-1.264122	0.769887
H	-0.079704	-1.236405	1.739208
H	-0.12901	-2.122343	0.204393
N	-0.550119	1.186582	0.700438
O	0.009655	1.529493	1.736488
O	-1.582271	1.688684	0.249332
Br	3.455554	0.0	0.0
