18

C	-0.313329	-0.030916	-1.49132
C	0.0	0.0	0.0
F	-0.007173	-1.312461	-1.921942
H	1.092671	0.0	0.0
N	-1.819675	0.082958	-1.790493
O	-2.485018	0.767256	-1.021089
O	-2.234206	-0.470206	-2.802773
N	0.324468	0.959848	-2.23445
H	1.257783	1.128408	-1.868805
H	0.358375	0.695668	-3.211312
C	-0.553195	-1.182369	0.76014
H	-0.200976	-1.141029	1.789489
H	-1.644075	-1.185809	0.768856
H	-0.17894	-2.09755	0.304896
N	-0.386598	1.297764	0.644536
O	-1.134879	1.257446	1.619707
O	0.119555	2.318916	0.191245
Br	3.409576	0.0	0.0
