18

C	-0.482291	-0.091839	-1.44491
C	0.0	0.0	0.0
F	-1.847089	-0.127528	-1.463657
H	1.091276	0.0	0.0
N	-0.062279	1.140254	-2.248994
O	1.105168	1.14812	-2.61177
O	-0.916187	1.987855	-2.472225
N	0.01098	-1.209216	-2.176176
H	-0.324873	-2.058034	-1.740147
H	1.02739	-1.194157	-2.13817
C	-0.482707	-1.178993	0.820421
H	-0.202902	-1.024025	1.861555
H	0.032857	-2.078492	0.481308
H	-1.56189	-1.311989	0.762666
N	-0.474287	1.289494	0.594646
O	0.068466	2.312774	0.190665
O	-1.378776	1.252788	1.430373
Br	3.427566	0.0	0.0
