18

C	-0.497928	0.010363	-1.45255
C	0.0	0.0	0.0
F	0.056081	1.099156	-2.053116
H	1.090082	0.0	0.0
N	0.115298	-1.226227	-2.132599
O	-0.560074	-2.257922	-2.096768
O	1.220217	-1.098453	-2.629007
N	-1.883918	-0.025355	-1.728776
H	-2.37939	0.514514	-1.030452
H	-2.21041	-0.980689	-1.742381
C	-0.54654	-1.144595	0.828997
H	-0.170696	-2.090457	0.439799
H	-0.188608	-1.04202	1.855014
H	-1.637449	-1.156948	0.826956
N	-0.442128	1.295738	0.610421
O	-1.664276	1.492061	0.682484
O	0.408118	2.067882	1.03091
Br	3.532578	0.0	0.0
