15
Coordinates from ORCA-job run
  C   -0.76183259524898     -0.03243833728239      0.38057056444705
  C   0.68816548923847      0.42172823956100      0.66568101434367
  H   -1.13846944513528     -0.42964813608229      1.33096106520572
  H   0.69516887020893      1.26770062858873      1.35665979657240
  C   -0.85570168184714     -1.12136211698333     -0.69269061486053
  H   -1.88353306838879     -1.48213237620697     -0.75072693182111
  H   -0.20423263953177     -1.96009485766779     -0.44150651744781
  H   -0.57062051628010     -0.73741325871471     -1.67218732281768
  C   -1.58778011004605      1.12626527095455      0.03205025857151
  N   -2.27427108921069      2.02940418154069     -0.27151233746968
  N   1.31185783885344      0.93531118643917     -0.61319481272067
  O   1.89221134811171      0.12187935955362     -1.32339237427552
  O   1.12884354994834      2.12530297721482     -0.84463526468631
  C   1.48000113226259     -0.68108504564961      1.19619915119575
  N   2.07919291706532     -1.58341771526550      1.64972432576323
