15
Coordinates from ORCA-job run
  C   -0.62857335508619     -0.16371538321954      0.32704375033989
  C   0.71216979562363      0.56733639360794      0.11776638587238
  H   -0.46660818863894     -0.92606255075941      1.09663620982474
  H   0.61250779036592      1.37083526383118     -0.61513768279824
  C   -1.12424340003260     -0.81913795693243     -0.96515875904624
  H   -1.20611119721721     -0.08476302095835     -1.76911933938030
  H   -0.44357116857736     -1.61282691221840     -1.27712164821599
  H   -2.10707753273627     -1.26192287057900     -0.79975394363525
  C   -1.59796778752391      0.81109699163022      0.82864057706401
  N   -2.38384837453281      1.60334079484477      1.19497896927675
  N   1.67717036906795     -0.42835990960189     -0.48319770403265
  O   1.96027322656085     -1.39440678190529      0.21518432932083
  O   2.04738335990275     -0.20865963492693     -1.63085028894554
  C   1.26365416259740      1.07064693283162      1.37039965649815
  N   1.68484230022679      1.47659864435549      2.38868948785746
