15
Coordinates from ORCA-job run
  C   -0.71166021457208      0.13174272369816      0.12635335847430
  C   0.79599472575338      0.13080415462809      0.43257232525363
  H   -1.16922283181794      0.81928117928471      0.84514892514501
  H   0.94792141738130     -0.16324414880456      1.47528690333845
  C   -1.30787047568582     -1.26926482488537      0.28193449012935
  H   -1.12804802196642     -1.64391102980746      1.29234742247099
  H   -0.86884415818380     -1.96228019762572     -0.43747500304609
  H   -2.38513230553050     -1.23441244272007      0.11429755041180
  C   -0.94123033414798      0.66377372020902     -1.21898330145030
  N   -1.13384881230714      1.07942716961076     -2.30047369731245
  N   1.30836827195459      1.55664808947752      0.34483261335133
  O   0.82872071328300      2.31483184636817      1.18023169094151
  O   2.11057677191310      1.83512488757332     -0.53558162253423
  C   1.54676769451526     -0.74652872247374     -0.45503107634287
  N   2.10850755941104     -1.51199240453282     -1.14646057883044
