16

C	0.0	0.0	0.0
C	-0.393278	-0.120871	-1.493322
Br	1.950944	0.0	0.0
H	0.228236	0.582504	-2.050464
H	-0.074841	-1.129179	-1.785888
N	-0.340547	1.396647	0.522257
O	-0.424777	2.299908	-0.304618
O	-0.4511	1.53255	1.735211
C	-0.614188	-1.034131	0.898484
H	-0.361924	-2.028482	0.523868
H	-0.270246	-0.929829	1.925995
H	-1.702597	-0.899234	0.869164
N	-1.761943	0.08578	-1.866163
H	-2.040789	1.04459	-1.704114
H	-2.441368	-0.4701	-1.354624
Br	-4.512295	0.0	0.0
