16

C	0.0	0.0	0.0
C	-0.529081	-0.03976	-1.442327
Br	1.948586	0.0	0.0
H	-0.311606	-1.054122	-1.793761
H	-1.618469	0.047337	-1.345594
N	-0.381842	1.29683	0.713137
O	-0.375429	1.283586	1.93772
O	-0.631692	2.278198	0.020217
C	-0.512819	-1.170734	0.804786
H	-0.142384	-1.13685	1.827574
H	-0.18493	-2.096305	0.327878
H	-1.607172	-1.11562	0.796723
N	-0.041493	0.904726	-2.426783
H	-0.346796	1.828781	-2.156401
H	0.971323	0.90398	-2.435501
Br	-3.920881	0.0	0.0
