16

C	0.0	0.0	0.0
C	-0.559037	0.011858	-1.415156
Br	1.936071	0.0	0.0
H	-1.648639	0.068706	-1.28278
H	-0.320931	-0.972229	-1.830795
N	-0.39504	1.283241	0.732917
O	-0.888656	2.188837	0.068575
O	-0.190143	1.322343	1.940793
C	-0.541116	-1.16717	0.797583
H	-1.634797	-1.091888	0.805345
H	-0.238105	-2.09905	0.317187
H	-0.158888	-1.142633	1.81692
N	0.005693	1.037649	-2.286264
H	-0.521573	1.888649	-2.145481
H	-0.125647	0.748825	-3.246361
Br	-4.033091	0.0	0.0
