16

C	0.0	0.0	0.0
C	-0.494741	0.25567	-1.433615
Br	1.950772	0.0	0.0
H	0.057497	1.100221	-1.846619
H	-1.547342	0.536336	-1.340136
N	-0.386032	1.17983	0.881774
O	-0.508322	0.977128	2.084249
O	-0.495165	2.268165	0.326697
C	-0.496188	-1.281371	0.620848
H	-0.104828	-1.398658	1.629832
H	-0.172839	-2.123832	0.010424
H	-1.587037	-1.226651	0.642012
N	-0.408758	-0.887667	-2.320395
H	-1.152853	-1.534671	-2.095431
H	0.480271	-1.362636	-2.225716
Br	-3.840885	0.0	0.0
