16

C	0.0	0.0	0.0
C	-0.536985	0.079683	-1.433671
Br	1.950933	0.0	0.0
H	-1.595133	0.343595	-1.329506
H	-0.024275	0.884935	-1.959659
N	-0.339132	1.309898	0.717225
O	-0.487225	1.271989	1.932882
O	-0.384738	2.321553	0.025174
C	-0.522095	-1.163792	0.798376
H	-1.615408	-1.084755	0.809717
H	-0.135044	-1.145629	1.814948
H	-0.222407	-2.094239	0.315595
N	-0.44872	-1.15222	-2.194987
H	-1.149832	-1.802076	-1.861133
H	0.467436	-1.575554	-2.101648
Br	-3.907944	0.0	0.0
