16

C	0.0	0.0	0.0
C	-0.533198	0.223957	-1.423347
Br	1.939204	0.0	0.0
H	-0.35409	-0.719574	-1.949377
H	-1.618578	0.330409	-1.305112
N	-0.369181	1.165043	0.92367
O	-0.263778	0.969656	2.129867
O	-0.704793	2.225359	0.40574
C	-0.538721	-1.273443	0.60396
H	-0.254694	-2.117149	-0.028723
H	-0.154204	-1.424356	1.610823
H	-1.631791	-1.181798	0.624894
N	-0.013724	1.310591	-2.230978
H	-0.25492	2.181702	-1.781038
H	0.995947	1.252603	-2.279353
Br	-3.947076	0.0	0.0
