17

C	0.0	0.0	0.0
C	-0.496907	0.099529	-1.437642
F	1.396177	0.0	0.0
H	-1.602424	0.051498	-1.321987
N	-0.496826	1.155911	0.687353
H	-1.527372	1.066303	0.595702
H	-0.290228	1.046414	1.676714
C	-0.416139	-1.321826	0.619198
H	-0.004868	-2.162471	0.0597
H	-1.510892	-1.349857	0.614326
H	-0.048568	-1.351017	1.650793
N	-0.020744	-1.022367	-2.245757
H	-0.508216	-1.014179	-3.133772
H	0.966551	-0.889851	-2.434397
C	-0.126737	1.397567	-2.030253
N	0.172719	2.361419	-2.633513
H	-3.105989	0.0	0.0
