17

C	0.0	0.0	0.0
C	-0.340319	-0.078789	-1.509803
F	1.410331	0.0	0.0
H	0.037189	0.871823	-1.921086
N	-0.470908	1.241925	0.507659
H	0.219328	1.967859	0.373398
H	-0.768297	1.186872	1.470806
C	-0.533149	-1.17036	0.783253
H	-0.131694	-1.128998	1.801104
H	-0.226795	-2.109259	0.319113
H	-1.627143	-1.102389	0.805968
N	-1.733971	-0.323423	-1.797675
H	-2.4	-0.17935	-0.984606
H	-2.050426	0.324738	-2.507328
C	0.487284	-1.139951	-2.138232
N	1.117646	-1.9773	-2.667826
H	-3.637968	0.0	0.0
