17

C	0.0	0.0	0.0
C	-0.453663	-0.012876	-1.468349
F	1.401765	0.0	0.0
H	-1.558146	-0.069696	-1.375495
N	-0.497498	1.129216	0.719896
H	-0.308722	1.980459	0.198622
H	-1.5246	0.988282	0.717442
C	-0.448103	-1.267169	0.693031
H	-0.034	-2.13809	0.185932
H	-0.100337	-1.224549	1.726857
H	-1.543146	-1.290333	0.665492
N	0.073217	-1.165345	-2.196021
H	1.077264	-1.055362	-2.294797
H	-0.332596	-1.192701	-3.125319
C	-0.096541	1.26339	-2.115513
N	0.232825	2.250836	-2.662446
H	-3.118434	0.0	0.0
