17

C	0.0	0.0	0.0
C	-0.454413	0.106186	-1.47333
F	1.420977	0.0	0.0
H	0.338997	0.687152	-1.96423
N	-0.420043	1.173661	0.71278
H	-0.814364	1.860782	0.082428
H	0.35538	1.533234	1.251609
C	-0.458989	-1.248481	0.713311
H	-0.135188	-1.184497	1.755578
H	-0.049089	-2.15133	0.255684
H	-1.552626	-1.256875	0.686185
N	-1.70868	0.826145	-1.565201
H	-2.060891	0.785153	-2.516109
H	-2.47775	0.428684	-0.923845
C	-0.425312	-1.224631	-2.126693
N	-0.392888	-2.241345	-2.717246
H	-3.639576	0.0	0.0
