17

C	0.0	0.0	0.0
C	-0.468799	0.067972	-1.465762
F	1.39996	0.0	0.0
H	-1.573972	0.104051	-1.360438
N	-0.482658	1.100263	0.779596
H	-1.510296	0.97513	0.776039
H	-0.283998	1.968451	0.2894
C	-0.449532	-1.290869	0.647383
H	-1.543797	-1.327363	0.593929
H	-0.127997	-1.272111	1.690295
H	0.000847	-2.152554	0.149871
N	-0.087524	-1.047514	-2.330538
H	0.855488	-1.334085	-2.091245
H	-0.710044	-1.820107	-2.12761
C	-0.005705	1.324146	-2.07056
N	0.370706	2.334562	-2.537373
H	-3.104666	0.0	0.0
