17

C	0.0	0.0	0.0
C	-0.498352	-0.100131	-1.436454
F	1.416739	0.0	0.0
H	-1.604388	-0.115088	-1.309296
N	-0.490857	1.239449	0.51972
H	-1.520622	1.141529	0.444438
H	-0.272578	1.281719	1.508711
C	-0.405886	-1.22644	0.79301
H	0.004578	-2.132354	0.345224
H	-1.500531	-1.257056	0.79732
H	-0.031484	-1.119614	1.81735
N	-0.053561	-1.334519	-2.081244
H	-0.588116	-1.46679	-2.932316
H	0.922293	-1.235695	-2.341859
C	-0.112556	1.09224	-2.211274
N	0.216581	1.949256	-2.945148
H	-3.102428	0.0	0.0
