15

C	-0.510009	0.02421	-1.436528
C	0.0	0.0	0.0
Cl	0.054058	1.473936	-2.274014
H	1.10296	0.0	0.0
H	-0.324506	0.948303	0.439794
N	-0.000904	-1.225257	-2.183457
O	1.00772	-1.136116	-2.857592
O	-0.664836	-2.237993	-1.970079
C	-1.971985	-0.015559	-1.509248
N	-3.147053	0.00368	-1.520646
C	-0.513028	-1.170918	0.829973
H	-0.153909	-1.036369	1.852098
H	-1.604634	-1.233335	0.850222
H	-0.117033	-2.11957	0.469675
Cl	3.404055	0.0	0.0
