19

C	0.0	0.0	0.0
C	-0.379119	-0.261236	-1.482873
F	1.362188	0.0	0.0
H	0.557643	-0.645633	-1.900288
N	-0.633097	1.068763	0.601534
H	-0.478094	1.04193	1.604054
H	-1.659163	0.900794	0.438975
N	-0.191964	-1.337052	0.849355
O	-0.673283	-1.234589	1.973856
O	0.258106	-2.374474	0.369337
C	-0.700376	1.069638	-2.167065
H	-1.672838	1.433719	-1.828913
H	-0.744032	0.912128	-3.250071
H	0.056334	1.829568	-1.954255
C	-1.473516	-1.287715	-1.780363
H	-1.161951	-2.294047	-1.498935
H	-2.388346	-1.009238	-1.245331
H	-1.663392	-1.278917	-2.860818
H	-3.290463	0.0	0.0
