14
Coordinates from ORCA-job run
  C   0.72915429202099     -0.55211929313115      0.42589967416499
  C   -0.58208443846436      0.24536957259857      0.27706671634476
  F   0.41944224251571     -1.82332775262100      0.85232940365379
  H   -1.01051326957327      0.39952253204026      1.26808692442287
  C   1.55999263017608      0.11405743586370      1.44027996882670
  N   2.20765613098765      0.64036238797877      2.26649364762114
  C   1.48032980672367     -0.62759480460404     -0.83716634480319
  N   2.11487139984410     -0.65993429801332     -1.82521277654530
  N   -1.56436804429048     -0.67638117938780     -0.43489488016792
  O   -2.53032940649704     -1.08480582301997      0.19963938080817
  O   -1.29979855224291     -0.90607704882784     -1.61321514035550
  N   -0.32790687657758      1.46550013118403     -0.38420170935598
  H   -1.07403536559834      2.13638260988130     -0.26523655282113
  H   -0.12441054902423      1.33004553005848     -1.36786831179340
