14
Coordinates from ORCA-job run
  C   0.90546731249313     -0.05531696043222     -0.08340598557623
  C   -0.62417408011373      0.07036533518441      0.23849042645968
  F   1.19210478587903      0.57081670051200     -1.26844293502717
  H   -0.79060881045768     -0.28494540515047      1.25747998974285
  C   1.33864493552750     -1.45483412417835     -0.16586452482090
  N   1.72548318867525     -2.56404490735315     -0.25300381568418
  C   1.63948368885471      0.64321220293873      0.98825001896347
  N   2.23952621251655      1.19929249872007      1.83203160882448
  N   -1.37698158631138     -0.87130188213480     -0.65395925212396
  O   -1.46549009279394     -0.50643414127742     -1.81949266926065
  O   -1.82567765100327     -1.90628256359380     -0.17093876406456
  N   -1.13729805174811      1.37530439036875      0.04247820509392
  H   -1.04566021658927      1.97410992541166      0.85097397190250
  H   -0.77481963492877      1.81005893098460     -0.79659627442926
