14
Coordinates from ORCA-job run
  C   0.97246427978277     -0.00911757137343      0.42642391788347
  C   -0.48675532658739      0.46853133483307      0.25644016657634
  F   1.64274307078920      1.02462676436329      1.04330363170068
  H   -0.82663706512198      0.83542241703091      1.22622712679385
  C   1.61287512032961     -0.26865587521646     -0.87077976230655
  N   2.13042018973525     -0.40756946619636     -1.91594823497646
  C   1.04730898218417     -1.19059651615239      1.29943865889960
  N   1.10025050008733     -2.09734467309142      2.04423339150073
  N   -1.37286420085686     -0.72802898521137     -0.05684222037022
  O   -2.53290062043823     -0.65710000998040      0.33497633200489
  O   -0.88195622532492     -1.61833118086488     -0.75051209648292
  N   -0.56419657393836      1.48916661175421     -0.71793338737741
  H   -0.41232550573094      1.15038664333992     -1.66040078250697
  H   -1.42842662490965      2.00961050676531     -0.65962674133905
