16

C	0.0	0.0	0.0
C	-0.427097	-0.025622	-1.480708
Cl	1.768915	0.0	0.0
H	0.03873	-0.941504	-1.867351
N	-0.462629	1.260421	0.697492
O	-0.702083	2.235573	-0.000611
O	-0.477223	1.228311	1.921842
C	-0.415875	-1.238848	0.775695
H	-1.498497	-1.203852	0.873256
H	0.087422	-1.244705	1.741564
H	-0.097514	-2.116871	0.206823
C	0.174702	1.060235	-2.268851
N	0.702932	1.853219	-2.955701
C	-1.876997	-0.135506	-1.817985
N	-2.610177	-0.323479	-2.730709
F	-2.564559	0.0	0.0
