16

C	0.0	0.0	0.0
C	-0.437485	0.288957	-1.448845
Cl	1.799209	0.0	0.0
H	0.123185	1.173093	-1.768127
N	-0.417545	1.167346	0.87111
O	-0.565538	0.953114	2.065283
O	-0.4809	2.263141	0.324066
C	-0.39781	-1.334551	0.596124
H	-0.012203	-2.126866	-0.049493
H	0.05315	-1.433431	1.582887
H	-1.483549	-1.346056	0.644249
C	-1.873011	0.583529	-1.726779
N	-2.61016	0.984058	-2.563133
C	-0.009033	-0.821532	-2.307242
N	0.351351	-1.694114	-3.005069
F	-2.54841	0.0	0.0
