16

C	0.0	0.0	0.0
C	-0.43701	0.235269	-1.455252
Cl	1.797031	0.0	0.0
H	-0.007141	-0.619713	-1.994891
N	-0.444777	1.122155	0.910933
O	-0.687709	2.20226	0.392021
O	-0.453745	0.881106	2.111682
C	-0.402264	-1.354954	0.552637
H	-0.021757	-2.124617	-0.123471
H	-1.488372	-1.365556	0.603774
H	0.052032	-1.491143	1.532809
C	0.189187	1.418553	-2.063544
N	0.707912	2.305661	-2.631727
C	-1.894028	0.231688	-1.787157
N	-2.635481	0.264736	-2.713186
F	-2.562806	0.0	0.0
