16

C	0.0	0.0	0.0
C	-0.509061	0.147324	-1.453779
Cl	1.799063	0.0	0.0
H	-0.480403	1.217538	-1.684142
N	-0.431413	1.189535	0.836051
O	-0.570233	0.996118	2.034944
O	-0.520806	2.273374	0.272371
C	-0.374743	-1.317238	0.65663
H	0.143846	-1.413813	1.609274
H	-0.048787	-2.123244	-0.006794
H	-1.453523	-1.327422	0.778852
C	-1.891187	-0.34879	-1.739877
N	-2.592524	-0.785836	-2.590619
C	0.3871	-0.542603	-2.392899
N	1.07226	-1.102467	-3.165728
F	-2.54235	0.0	0.0
