12

C	-0.58087	-0.043867	-1.404567
C	0.0	0.0	0.0
Cl	0.187499	-1.334519	-2.393177
H	1.098595	0.0	0.0
H	-1.640636	-0.310555	-1.36403
H	-0.375357	0.919734	0.467665
C	-0.454562	1.231162	-2.109827
N	-0.41516	2.271386	-2.653824
N	-0.481692	-1.19459	0.726291
H	0.348726	-1.755782	0.887013
H	-0.808742	-0.913037	1.642223
F	2.661378	0.0	0.0
