12

C	-0.58381	-0.002161	-1.398587
C	0.0	0.0	0.0
Cl	0.058003	-1.375553	-2.375856
H	1.098642	0.0	0.0
H	-1.662958	-0.171205	-1.355411
H	-0.376908	0.911132	0.482188
C	-0.329138	1.24461	-2.116498
N	-0.159068	2.271132	-2.659521
N	-0.552189	-1.172971	0.717229
H	0.100982	-1.928568	0.525194
H	-0.433065	-0.981056	1.70572
F	2.679523	0.0	0.0
