12

C	-0.462613	-0.053252	-1.449732
C	0.0	0.0	0.0
Cl	-0.105964	1.48442	-2.310639
H	1.091747	0.0	0.0
H	0.108921	-0.834513	-1.95213
H	-0.413561	0.893546	0.483774
C	-1.893581	-0.330856	-1.583898
N	-3.043804	-0.560014	-1.657669
N	-0.408679	-1.265574	0.620281
H	-1.181589	-1.144273	1.259953
H	0.393248	-1.607049	1.135274
F	2.66261	0.0	0.0
