12

C	-0.413596	0.077622	-1.445015
C	0.0	0.0	0.0
Cl	-2.197685	0.425459	-1.670647
H	1.100853	0.0	0.0
H	0.102662	0.910197	-1.926422
H	-0.338029	0.922156	0.490939
C	-0.120185	-1.148386	-2.182502
N	0.112019	-2.127981	-2.785253
N	-0.492503	-1.218667	0.632695
H	0.289639	-1.64078	1.114357
H	-1.215976	-1.025852	1.309087
F	2.64203	0.0	0.0
