13

C	0.0	0.0	0.0
C	-0.582146	-0.219039	-1.368081
Br	1.927726	0.0	0.0
H	-1.67633	-0.346453	-1.235766
H	-0.34921	-0.802282	0.644683
H	-0.354737	0.95246	0.383985
N	-0.017274	-1.455681	-1.990973
O	0.777997	-1.35128	-2.919407
O	-0.377882	-2.503476	-1.462926
N	-0.395537	0.921692	-2.312789
O	-0.889914	0.771558	-3.42567
O	0.189606	1.92483	-1.915929
Br	-3.554114	0.0	0.0
