13

C	0.0	0.0	0.0
C	-0.575292	-0.071474	-1.389971
Br	1.931537	0.0	0.0
H	-1.662467	0.125247	-1.298923
H	-0.356788	-0.850248	0.573751
H	-0.347506	0.923207	0.457089
N	-0.447923	-1.405025	-2.047092
O	-0.980568	-1.502199	-3.147801
O	0.12337	-2.307387	-1.439673
N	0.041913	0.967015	-2.271755
O	-0.202977	2.122174	-1.937709
O	0.759099	0.622111	-3.204695
Br	-3.534383	0.0	0.0
