13
Coordinates from ORCA-job run
  C   -0.70658300539229      0.14637242687328     -0.45734439344093
  C   0.79607397738957      0.43269245793464     -0.46253595467668
  H   -1.15620553571668      0.38857268709699     -1.42481753644457
  H   0.93204052944836      1.50151219207948     -0.67753785736280
  H   1.22765122449417     -0.13717927669069     -1.28621601700623
  C   -1.38000619632189      0.87384023105282      0.61256963040606
  N   -1.86134468252744      1.53370787718646      1.45581381834687
  N   -0.89963744983967     -1.34569947844824     -0.28220182711468
  O   -1.52999189250860     -1.74596256865945      0.68535301169916
  O   -0.38906557168426     -2.03017405789210     -1.16084022516894
  N   1.35861604520347     -0.02843878940033      0.79261619330947
  H   2.33592957949205     -0.26112338867951      0.68962001640819
  H   1.27152297796319      0.67287968754663      1.51652114104508
