13
Coordinates from ORCA-job run
  C   -0.60062898122905      0.01541793954353     -0.36119374002435
  C   0.87786966798852     -0.14131674161816      0.01986434929829
  H   -0.67851042015115      0.48253803170437     -1.34296771311665
  H   0.93155452093144     -0.71377776295955      0.95516527888995
  H   1.35282635123374     -0.72647963110733     -0.77133066911911
  C   -1.31842301220982      0.79589366805295      0.63966660279884
  N   -1.83694313739194      1.46214469261712      1.45533886397062
  N   -1.20466200786991     -1.35828073153413     -0.48079591259488
  O   -1.17350894494944     -1.85666571017003     -1.60186921599071
  O   -1.60255681505634     -1.89208477859044      0.54891026344480
  N   1.46898847766552      1.18463645602045      0.06509587817831
  H   1.31849661790832      1.61213026410079      0.97013225877165
  H   2.46549768313010      1.13584430394045     -0.09601624450678
