11

C	-0.459388	-0.042536	-1.461987
C	0.0	0.0	0.0
F	-0.120455	1.140948	-2.083177
H	1.096051	0.0	0.0
H	-1.544465	-0.164915	-1.534546
H	0.056445	-0.864571	-1.963079
C	-0.470094	-1.212214	0.670506
N	-0.855402	-2.208076	1.159154
C	-0.517191	1.186987	0.678482
N	-0.955497	2.139	1.207434
Cl	3.210191	0.0	0.0
