11

C	-0.459693	-0.041549	-1.461924
C	0.0	0.0	0.0
F	-0.121862	1.142703	-2.082088
H	1.096006	0.0	0.0
H	-1.544526	-0.164673	-1.534356
H	0.05661	-0.862439	-1.964046
C	-0.469235	-1.213355	0.669241
N	-0.853416	-2.21008	1.157013
C	-0.518251	1.185763	0.679856
N	-0.957476	2.136828	1.209786
Cl	3.211392	0.0	0.0
