15

C	0.0	0.0	0.0
C	-0.518988	-0.273116	-1.412052
Br	1.967079	0.0	0.0
H	-1.620053	-0.224397	-1.255229
H	-0.199245	0.516302	-2.097874
C	-0.428998	1.407252	0.413476
H	-0.036581	2.172225	-0.262407
H	-1.524014	1.368119	0.387131
H	-0.073696	1.621217	1.424658
N	-0.526017	-1.032929	0.849761
H	-0.303569	-0.799847	1.813129
H	-1.552295	-0.884385	0.717326
C	-0.123423	-1.566759	-1.951599
N	0.162792	-2.59454	-2.442666
F	-2.894899	0.0	0.0
