15

C	0.0	0.0	0.0
C	-0.619427	0.023205	-1.386072
Br	2.030197	0.0	0.0
H	-0.393264	-0.898818	-1.931326
H	-1.734145	0.024227	-1.059316
C	-0.495061	1.166169	0.822473
H	-1.591056	1.02274	0.793671
H	-0.200435	2.115796	0.371749
H	-0.096327	1.119057	1.840356
N	-0.382916	-1.231337	0.606821
H	0.151704	-2.008538	0.244295
H	-0.291037	-1.189686	1.611405
C	-0.253708	1.175282	-2.186373
N	0.023811	2.117881	-2.832133
F	-2.947021	0.0	0.0
