15

C	0.0	0.0	0.0
C	-0.279232	0.053615	-1.522105
Br	1.971176	0.0	0.0
H	0.2513	0.918842	-1.930374
H	0.193945	-0.836195	-1.948438
C	-0.433065	1.270414	0.720157
H	-1.52837	1.233093	0.672057
H	-0.031416	2.169467	0.243271
H	-0.08861	1.241956	1.75902
N	-0.538036	-1.213531	0.532501
H	-0.361633	-1.219941	1.533991
H	-1.567974	-1.004449	0.403889
C	-1.642633	0.10808	-2.079519
N	-2.463278	0.190855	-2.918995
F	-2.791334	0.0	0.0
