15

C	0.0	0.0	0.0
C	-0.503622	0.027438	-1.45337
Br	1.971133	0.0	0.0
H	-1.605255	0.030031	-1.287524
H	-0.197916	-0.889046	-1.968799
C	-0.42743	1.265052	0.731081
H	-0.076423	1.211093	1.763252
H	-1.521514	1.254003	0.690789
H	-0.017136	2.157573	0.254368
N	-0.520475	-1.133975	0.710205
H	-1.54828	-0.953506	0.641543
H	-0.315462	-1.978917	0.182273
C	-0.078129	1.17932	-2.234501
N	0.262013	2.112015	-2.863421
F	-2.884597	0.0	0.0
