15

C	0.0	0.0	0.0
C	-0.251085	-0.064198	-1.539641
Br	1.975127	0.0	0.0
H	0.336737	0.725059	-2.019373
H	0.17221	-1.011613	-1.893792
C	-0.447236	1.329587	0.581211
H	-1.541067	1.299704	0.513199
H	-0.125975	1.393075	1.622916
H	-0.026625	2.167618	0.01977
N	-0.563037	-1.0652	0.752769
H	-1.593157	-0.830543	0.640653
H	-0.385798	-1.94222	0.270267
C	-1.605104	0.038651	-2.11013
N	-2.449008	0.142061	-2.923807
F	-2.814037	0.0	0.0
