14
Coordinates from ORCA-job run
  C   -0.29236125062825      0.25831440912382      0.43063584279433
  C   0.67370812235112      0.28829044537083     -0.72342285853309
  F   0.24866173636029      0.75733318952914      1.54676951333842
  H   0.15699733255987     -0.09200303373851     -1.60223983408305
  H   0.93535509184515      1.33800443199393     -0.90825878641373
  N   -0.73422457021075     -1.17012163097526      0.70203918550433
  O   -1.31503809354393     -1.69581941417190     -0.23936610789031
  O   -0.47471952003564     -1.64573730573603      1.79229520839054
  N   -1.58010868933379      1.01896267420316      0.17273580433327
  O   -2.30833232741234      1.15814160431397      1.14732644687084
  O   -1.77583657804491      1.41618274728961     -0.97030716803621
  N   1.77387764296118     -0.59006636474854     -0.36887014805289
  H   2.24525359778207     -0.92470014411550     -1.19636475229536
  H   2.44676750534992     -0.11678160833872      0.21802765407292
