14
Coordinates from ORCA-job run
  C   -0.59647676923255      0.08865830916865     -0.12231665707691
  C   0.85164109917690      0.45244381023476     -0.35494531280484
  F   -1.26214857477612     -0.10642174013455     -1.26483802369504
  H   0.85864147158713      1.30800629345955     -1.03418834779343
  H   1.28165180179770      0.77540445279489      0.59277748660698
  N   -1.36872028781304      1.13642155644293      0.65747157211515
  O   -0.88258173049014      2.26234276395322      0.69226532288741
  O   -2.43883986339842      0.77346427525083      1.13031483471623
  N   -0.67883908932134     -1.16946985887292      0.71544268566734
  O   -0.08541908302602     -1.08437430347261      1.78504335081446
  O   -1.29647807490750     -2.11886852855041      0.26960528056319
  N   1.50518159186706     -0.72358471104061     -0.90278709822334
  H   2.27353581509647     -1.02338200935543     -0.32254346769987
  H   1.83885169343987     -0.56964030987830     -1.84130162607732
