14
Coordinates from ORCA-job run
  C   -0.55868262482358      0.13628070915247     -0.08222713302873
  C   0.90946538402919      0.33401245178510     -0.34953352595462
  F   -1.24899527766894     -0.06002885064307     -1.21031723263815
  H   1.39945579331284      0.52906444836893      0.60225964201763
  H   1.01348880256915      1.22852889697369     -0.97683974562393
  N   -1.21047886456864      1.29414230420285      0.65101642576267
  O   -0.47152761854213      2.17108540974065      1.08406610699555
  O   -2.43022638204869      1.23281767943289      0.74163093371416
  N   -0.76482508433139     -1.06247571030013      0.82818544243706
  O   -0.23827549748996     -0.94464014714350      1.92769208173661
  O   -1.40855354386251     -2.00001044490712      0.39361983184994
  N   1.39993667569217     -0.90699507825555     -0.92126529072573
  H   2.39410692427121     -1.00058308024015     -0.77371762205446
  H   1.21411131346131     -0.95219858816704     -1.91356991448800
