14
Coordinates from ORCA-job run
  C   -0.74066184286709      0.03506262943632     -0.14871986631878
  C   0.52417628930032      0.09937896723366     -0.97081088239922
  F   -1.82670922123878      0.26391294385780     -0.89952954760691
  H   0.50641669928984     -0.75037662195965     -1.66542904884344
  H   0.42665566706992      1.01814217141768     -1.55395682338592
  N   -0.68673198589211      1.08645173632316      0.94686785532350
  O   -0.49216899796954      0.70670773972590      2.09128593910122
  O   -0.81227885019621      2.23207617204032      0.54036724729152
  N   -0.94820107976105     -1.29570644151214      0.54749070506836
  O   0.02997457338911     -2.03109174508773      0.63527736598932
  O   -2.07934479148290     -1.51247368634033      0.95654514705465
  N   1.67863726244431      0.19840176199622     -0.10499353722610
  H   2.44087148531363      0.66538538986255     -0.57339287603106
  H   1.97936479260055     -0.71587101699377      0.19999832198286
