14
Coordinates from ORCA-job run
  C   -0.74200174242449      0.02758849701579     -0.14451873779261
  C   0.51750242882719      0.10483475235247     -0.97373434807792
  F   -1.83465607398225      0.24523369785650     -0.88894913895853
  H   0.50496262594305     -0.74504658838408     -1.66822974106090
  H   0.40802555262124      1.02257663364734     -1.55629224789765
  N   -0.69216502499660      1.07957921956100      0.95051028989221
  O   -0.48779430336562      0.70238363703422      2.09400304458755
  O   -0.83138918502803      2.22383173749907      0.54457535347011
  N   -0.93171768002226     -1.30500174905106      0.55280830304035
  O   -2.05797450485780     -1.53250324578694      0.96953916943883
  O   0.05368644495317     -2.03149068240615      0.63292774895313
  N   1.67554195182294      0.21488009298695     -0.11370915855996
  H   1.98790727617061     -0.69671968136871      0.18760250526463
  H   2.43007223433888      0.69085367904359     -0.58553304229925
