17

C	0.0	0.0	0.0
C	-0.564117	0.083364	-1.422138
Br	2.062536	0.0	0.0
H	-1.643758	0.179707	-1.215071
C	-0.262894	1.224084	0.763189
N	-0.433255	2.209382	1.380784
N	-0.501986	-1.114853	0.629878
H	-0.231085	-1.265795	1.586821
H	-0.512797	-1.923941	0.025431
N	-0.354995	-1.211714	-2.063392
H	-1.161419	-1.434112	-2.63282
H	0.471069	-1.186725	-2.650315
C	-0.074006	1.278975	-2.220187
H	-0.226086	2.212634	-1.67378
H	-0.641819	1.338353	-3.152308
H	0.989185	1.185159	-2.45897
Br	-3.945768	0.0	0.0
