17

C	0.0	0.0	0.0
C	-0.576388	0.103821	-1.41658
Br	2.062959	0.0	0.0
H	-1.650218	0.224882	-1.194885
C	-0.258808	1.215291	0.780103
N	-0.424492	2.192835	1.410558
N	-0.496719	-1.124037	0.621395
H	-0.199974	-1.295933	1.56711
H	-0.505036	-1.922793	0.002158
N	-0.405288	-1.187619	-2.071396
H	0.377705	-1.162442	-2.711724
H	-1.247736	-1.416549	-2.58058
C	-0.06907	1.294161	-2.210294
H	0.990728	1.182094	-2.457829
H	-0.199059	2.22684	-1.655796
H	-0.643625	1.371229	-3.137665
Br	-3.960442	0.0	0.0
