17

C	0.0	0.0	0.0
C	-0.569076	0.135647	-1.415927
Br	2.063442	0.0	0.0
H	-1.647719	0.21798	-1.201943
C	-0.258176	1.192782	0.812943
N	-0.42877	2.141004	1.485663
N	-0.492293	-1.142586	0.591695
H	-0.189117	-1.336803	1.531599
H	-0.491328	-1.926369	-0.045951
N	-0.353392	-1.131569	-2.10772
H	-1.156444	-1.33093	-2.690259
H	0.476681	-1.080407	-2.68798
C	-0.088531	1.365986	-2.165332
H	0.978004	1.296838	-2.39817
H	-0.649728	1.451565	-3.099923
H	-0.259747	2.277512	-1.586761
Br	-3.958963	0.0	0.0
