17

C	0.0	0.0	0.0
C	-0.336475	-0.231099	-1.524233
Br	2.05982	0.0	0.0
H	0.459483	0.281711	-2.069515
C	-0.253172	1.400857	0.342723
N	-0.440534	2.537101	0.580636
N	-0.600951	-0.885375	0.897983
H	-1.167944	-1.579789	0.432404
H	-1.15692	-0.427555	1.606898
N	-1.59015	0.318798	-1.96313
H	-1.602147	1.326574	-1.853226
H	-2.392315	-0.028925	-1.432543
C	-0.287259	-1.717636	-1.85648
H	-0.273797	-1.825334	-2.942163
H	0.590809	-2.208759	-1.43253
H	-1.193108	-2.220101	-1.504682
Br	-4.259133	0.0	0.0
