17

C	0.0	0.0	0.0
C	-0.35529	0.167772	-1.549375
Br	1.963057	0.0	0.0
H	0.469329	0.750629	-1.969327
C	-0.339626	1.259852	0.677462
N	-0.531714	2.323232	1.139991
N	-0.573839	-1.092022	0.719515
H	-0.496422	-1.937309	0.167991
H	-1.571346	-0.890267	0.84373
N	-1.570538	0.874988	-1.848615
H	-2.393399	0.434732	-1.432899
H	-1.535094	1.816573	-1.477437
C	-0.393845	-1.200057	-2.215853
H	0.49664	-1.795678	-1.994355
H	-1.290441	-1.741012	-1.90267
H	-0.462781	-1.054926	-3.295841
Br	-4.163611	0.0	0.0
