19

C	0.0	0.0	0.0
C	-0.443147	-0.047837	-1.494967
Br	1.971514	0.0	0.0
H	0.364141	0.389447	-2.091844
C	-0.420058	1.301575	0.671822
H	0.017951	1.35661	1.673167
H	-1.510807	1.306816	0.748773
H	-0.10552	2.170333	0.09205
C	-0.503084	-1.180236	0.80677
H	-0.178368	-1.088058	1.847538
H	-1.601535	-1.143561	0.774752
H	-0.141983	-2.124006	0.399386
N	-1.622877	0.775709	-1.683896
H	-2.40906	0.463126	-1.065745
H	-1.939357	0.649754	-2.640768
N	-0.534783	-1.457311	-1.924297
H	-1.421515	-1.805738	-1.563956
H	-0.627968	-1.452304	-2.935493
H	-3.617122	0.0	0.0
