19

C	0.0	0.0	0.0
C	-0.534093	0.05604	-1.432952
Br	1.986919	0.0	0.0
H	-1.623417	0.152162	-1.256145
C	-0.464248	1.227708	0.76255
H	-0.10644	1.201312	1.795862
H	-1.564692	1.178954	0.748304
H	-0.128908	2.141087	0.27334
C	-0.485581	-1.250992	0.702597
H	-0.170834	-1.249585	1.749431
H	-1.587006	-1.203326	0.649092
H	-0.118159	-2.164448	0.230125
N	-0.334251	-1.155435	-2.230258
H	-1.01955	-1.844636	-1.941112
H	0.590378	-1.537408	-2.051762
N	-0.062364	1.250809	-2.117502
H	-0.560888	1.281585	-3.000714
H	0.920044	1.117072	-2.344492
H	-3.341384	0.0	0.0
