19

C	0.0	0.0	0.0
C	-0.557582	0.012136	-1.430593
Br	1.970612	0.0	0.0
H	-1.64236	-0.122299	-1.247427
C	-0.482508	1.227121	0.749892
H	-0.087825	2.141862	0.304202
H	-0.174816	1.186963	1.798752
H	-1.582726	1.201448	0.691668
C	-0.475322	-1.251485	0.717466
H	-0.118219	-1.262662	1.750679
H	-1.575829	-1.210121	0.705142
H	-0.123884	-2.161246	0.224159
N	-0.098169	-1.054449	-2.305208
H	0.902185	-1.178074	-2.18292
H	-0.559843	-1.916621	-2.046809
N	-0.27367	1.284325	-2.101753
H	-0.969389	1.955094	-1.78904
H	-0.463811	1.107719	-3.082331
H	-3.376437	0.0	0.0
