19

C	0.0	0.0	0.0
C	-0.548242	-0.007005	-1.435926
Br	1.970912	0.0	0.0
H	-1.633053	0.136191	-1.262822
C	-0.477927	1.249074	0.71878
H	-0.123007	1.258857	1.752762
H	-0.127099	2.16071	0.228343
H	-1.578467	1.205598	0.704125
C	-0.485034	-1.229377	0.743478
H	-0.182879	-1.19201	1.794056
H	-0.087629	-2.14256	0.297077
H	-1.585123	-1.2034	0.680145
N	-0.267239	-1.28087	-2.104349
H	-0.965634	-1.948809	-1.792755
H	-0.453674	-1.105681	-3.085962
N	-0.071639	1.053135	-2.309499
H	0.933512	1.146913	-2.196208
H	-0.504182	1.927064	-2.03892
H	-3.376611	0.0	0.0
