14

C	-0.457121	-0.012924	-1.431158
C	0.0	0.0	0.0
F	-1.860437	-0.090612	-1.469125
H	1.091596	0.0	0.0
H	-0.189452	0.931985	-1.905692
H	-0.385516	-0.852837	0.55668
C	0.126727	-1.189615	-2.171705
H	-0.190624	-2.123713	-1.70283
H	-0.213846	-1.185804	-3.207445
H	1.214826	-1.135304	-2.140831
N	-0.481353	1.212168	0.710532
O	-0.387027	2.29205	0.131009
O	-0.936515	1.064185	1.843871
Br	3.532557	0.0	0.0
