14

C	-0.536488	-0.018343	-1.422111
C	0.0	0.0	0.0
F	-0.237678	1.236812	-1.959324
H	1.089792	0.0	0.0
H	0.006239	-0.758322	-2.011589
H	-0.385621	0.859104	0.547029
C	-2.033102	-0.217779	-1.523992
H	-2.553742	0.525693	-0.915348
H	-2.348241	-0.096889	-2.562596
H	-2.31485	-1.216905	-1.190094
N	-0.44156	-1.210475	0.72825
O	-0.34558	-2.287787	0.13786
O	-0.864782	-1.078575	1.876585
Br	3.523685	0.0	0.0
