14

C	-0.551489	0.032515	-1.418804
C	0.0	0.0	0.0
F	-0.245148	-1.201528	-1.994537
H	1.088344	0.0	0.0
H	-1.64493	0.095781	-1.391656
H	-0.394951	-0.870422	0.523938
C	0.057143	1.134617	-2.251306
H	-0.272917	1.040645	-3.288499
H	1.145828	1.070181	-2.199203
H	-0.252182	2.112714	-1.875054
N	-0.530391	1.190898	0.710883
O	0.206555	2.158567	0.883532
O	-1.72058	1.146522	1.044379
Br	3.579285	0.0	0.0
