14

C	-0.46087	-0.023011	-1.430066
C	0.0	0.0	0.0
F	-1.864817	-0.124182	-1.471558
H	1.091576	0.0	0.0
H	-0.204963	0.924264	-1.906873
H	-0.379969	-0.851812	0.562422
C	0.146524	-1.194546	-2.166201
H	1.236354	-1.128278	-2.118465
H	-0.168898	-2.132923	-1.70345
H	-0.178504	-1.195039	-3.20878
N	-0.474475	1.213103	0.713373
O	-0.866374	1.072369	1.871757
O	-0.427027	2.286854	0.116962
Br	3.512968	0.0	0.0
