14

C	-0.542768	-0.002382	-1.420168
C	0.0	0.0	0.0
F	-0.210151	1.237536	-1.967614
H	1.089778	0.0	0.0
H	-0.029009	-0.764855	-2.007417
H	-0.38759	0.851777	0.55715
C	-2.046214	-0.154227	-1.502374
H	-2.360892	-1.132454	-1.13629
H	-2.533274	0.623036	-0.908488
H	-2.370075	-0.05252	-2.540238
N	-0.463406	-1.219008	0.698454
O	-0.261058	-2.296377	0.136287
O	-1.032218	-1.093133	1.784415
Br	3.54368	0.0	0.0
