14

C	-0.454903	-0.074926	-1.438885
C	0.0	0.0	0.0
F	-1.861643	-0.046862	-1.489837
H	1.089189	0.0	0.0
H	-0.111054	0.858576	-1.89783
H	-0.385185	0.90018	0.475227
C	0.049101	-1.249157	-2.243273
H	-0.389202	-2.177702	-1.883279
H	1.135238	-1.311917	-2.143132
H	-0.215888	-1.107824	-3.29373
N	-0.493633	-1.126941	0.830024
O	-1.171906	-0.848235	1.821652
O	-0.190493	-2.271085	0.492672
Br	3.516968	0.0	0.0
