15

C	-0.361858	-0.107832	-1.456895
C	0.0	0.0	0.0
F	-0.305452	-1.422505	-1.835224
H	1.108899	0.0	0.0
N	-1.829094	0.300152	-1.732644
O	-2.073594	0.846039	-2.801477
O	-2.638687	-0.052347	-0.886664
C	0.50619	0.670805	-2.350042
N	1.198751	1.207152	-3.132863
C	-0.429464	-1.103851	0.813325
N	-0.692243	-2.036533	1.480297
N	-0.370184	1.27319	0.527659
O	-0.504201	2.189323	-0.311491
O	-0.365764	1.427212	1.756599
H	2.289499	0.0	0.0
