20

C	-0.38963	-6.5e-05	-1.475521
C	0.0	0.0	0.0
F	-1.812179	0.070509	-1.555166
H	1.097597	0.0	0.0
C	0.163629	1.220009	-2.180121
H	-0.192635	2.120522	-1.683821
H	-0.150997	1.220809	-3.228142
H	1.254878	1.19858	-2.122495
C	0.031069	-1.27783	-2.174468
H	-0.157194	-1.19718	-3.24838
H	-0.531305	-2.131771	-1.794117
H	1.097707	-1.44644	-2.008225
C	-0.488264	-1.242415	0.745711
H	-1.571547	-1.362403	0.631736
H	0.007353	-2.152248	0.400933
H	-0.259622	-1.133155	1.809261
N	-0.458976	1.247418	0.618458
H	0.082572	1.40161	1.461715
H	-1.433047	1.14259	0.884605
Cl	3.540327	0.0	0.0
