20

C	-0.456956	0.019002	-1.46385
C	0.0	0.0	0.0
F	-0.205667	-1.263307	-2.005937
H	1.096782	0.0	0.0
C	-1.947774	0.255216	-1.626435
H	-2.521892	-0.524293	-1.118771
H	-2.208742	0.227917	-2.688095
H	-2.220252	1.229195	-1.217722
C	0.375831	1.003888	-2.256903
H	1.433121	0.756243	-2.137989
H	0.101811	0.963765	-3.315898
H	0.211141	2.012281	-1.874617
C	-0.475851	-1.229603	0.763718
H	-1.567868	-1.242758	0.872266
H	-0.164545	-2.145684	0.261131
H	-0.031906	-1.221006	1.762773
N	-0.415008	1.268795	0.624927
H	0.322844	1.56615	1.253134
H	-1.249259	1.116899	1.18337
Cl	3.585137	0.0	0.0
