20

C	-0.43985	0.03346	-1.462941
C	0.0	0.0	0.0
F	-0.083186	1.317724	-1.950622
H	1.096461	0.0	0.0
C	0.344831	-0.958096	-2.297539
H	0.055046	-1.984516	-2.065595
H	0.148388	-0.777126	-3.357993
H	1.411138	-0.837071	-2.096978
C	-1.940442	-0.070274	-1.655068
H	-2.189444	0.159274	-2.694352
H	-2.297867	-1.076839	-1.427865
H	-2.440114	0.641646	-0.997145
C	-0.474539	-1.249387	0.727931
H	-0.034425	-1.268148	1.729275
H	-1.563085	-1.254332	0.833404
H	-0.149682	-2.161306	0.223137
N	-0.546526	1.182902	0.68923
H	-0.153072	1.994227	0.222141
H	-0.14159	1.188173	1.620617
Cl	3.606594	0.0	0.0
