20

C	-0.377058	0.016125	-1.482599
C	0.0	0.0	0.0
F	-1.760614	-0.253434	-1.628975
H	1.103411	0.0	0.0
C	-0.131538	1.381924	-2.091424
H	-0.770562	2.116877	-1.601582
H	-0.365043	1.363549	-3.159255
H	0.917876	1.659055	-1.961411
C	0.375839	-1.06002	-2.24415
H	0.147382	-0.986705	-3.311757
H	1.45127	-0.94003	-2.08679
H	0.081844	-2.055345	-1.904646
C	-0.525454	-1.229461	0.721408
H	-0.134099	-1.248759	1.743057
H	-1.617746	-1.202461	0.757144
H	-0.207658	-2.153944	0.239117
N	-0.5244	1.203136	0.681302
H	0.163338	1.940963	0.561324
H	-0.525363	1.00759	1.677292
Cl	3.560232	0.0	0.0
