13

C	0.0	0.0	0.0
C	-0.255353	-0.08643	-1.531617
Cl	1.77635	0.0	0.0
H	0.336302	0.7048	-1.995485
H	-0.376953	-0.886584	0.491274
C	-0.497864	1.189428	0.67633
N	-0.65692	2.112049	1.388812
N	-1.635446	0.107745	-2.10798
O	-1.930096	1.272308	-2.339458
O	-2.24405	-0.884408	-2.47634
C	0.259131	-1.371572	-2.020128
N	0.734703	-2.377762	-2.39447
F	-2.293863	0.0	0.0
