13

C	0.0	0.0	0.0
C	-0.457084	0.235392	-1.452142
Cl	1.777228	0.0	0.0
H	-0.204655	-0.660668	-2.026261
H	-0.362543	-0.972	0.318139
C	-0.422766	1.019746	0.960525
N	-0.548653	1.805055	1.825021
N	0.377033	1.322843	-2.093429
O	0.964009	1.038631	-3.1343
O	0.387991	2.412461	-1.535014
C	-1.871918	0.608897	-1.685728
N	-2.610714	1.05283	-2.502838
F	-2.408562	0.0	0.0
