13

C	0.0	0.0	0.0
C	-0.461926	0.064506	-1.46405
Cl	1.780968	0.0	0.0
H	-0.158695	-0.867722	-1.946143
H	-0.356467	-0.934015	0.42184
C	-0.443502	1.110796	0.84233
N	-0.601395	1.995925	1.598504
N	0.31322	1.124824	-2.207294
O	0.909206	0.774974	-3.223735
O	0.2764	2.261744	-1.751456
C	-1.897682	0.328697	-1.733476
N	-2.640984	0.630075	-2.60884
F	-2.423959	0.0	0.0
