11
Coordinates from ORCA-job run
  C   0.29337318929761     -0.29721006090333      0.48430381488475
  C   -0.60632408725533      0.20311338066359     -0.63465559841559
  Cl  -0.47629794144213     -0.14299783834195      2.05987189149351
  H   -0.91632081635223      1.22589981345212     -0.41329418135535
  H   0.60874521695022     -1.32999229625648      0.35179838194636
  H   -0.03921340736710      0.21697182632217     -1.57121614472268
  N   1.56145439545916      0.52157402904105      0.47896794641033
  O   2.61220593068652     -0.10557542154142      0.56333368273950
  O   1.43372479410659      1.73716247476338      0.38930852672781
  C   -1.77089697084546     -0.66228293733107     -0.78985333580823
  N   -2.69945030323785     -1.36766296986806     -0.91756498390041
