11
Coordinates from ORCA-job run
  C   0.53891362546646     -0.50612751884729      0.30643522182951
  C   -0.90003750320551     -0.49041034686327     -0.17656146415515
  Cl  0.69278489032056     -1.48055057801429      1.76708973646211
  H   -1.22134011966537     -1.51742600988287     -0.36598864404180
  H   1.23906748255710     -0.87896971619748     -0.43807690086570
  H   -1.53459967488811     -0.06587210593765      0.60328219313492
  N   0.98827372781641      0.90260332647664      0.61919544344752
  O   0.19648657437112      1.61191754468871      1.22812329653321
  O   2.11790235269533      1.20236686010786      0.24895049315399
  C   -1.02250849537744      0.29692474017541     -1.40169507775408
  N   -1.09494286009056      0.92554380429423     -2.38975429774453
