11
Coordinates from ORCA-job run
  C   0.41964126005591     -0.45573902245774      0.52850062896031
  C   -0.62626996532529     -0.62407465825168     -0.56077072533317
  Cl  -0.30756466923920     -0.33588128304172      2.12067279941724
  H   -0.13122779874737     -0.74785301943494     -1.52492143080542
  H   1.11097179528521     -1.30099305589812      0.53522396880396
  H   -1.19668174162701     -1.53076429614031     -0.34421745788580
  N   1.30160217647833      0.75928423132152      0.25070874685434
  O   1.33390642333965      1.13674107834119     -0.91649623337670
  O   1.95956782537894      1.19867303113299      1.18014371444484
  C   -1.54387897707906      0.51075325839234     -0.62513313490694
  N   -2.32006632852012      1.38985373603649     -0.64271087617268
