11
Coordinates from ORCA-job run
  C   0.31051356177641     -0.23112667670268      0.50807472724135
  C   -0.63686234249934      0.13101889410948     -0.62479253394233
  Cl  -0.34976900706965      0.21006487331477      2.07878802350341
  H   -0.12995236656761     -0.03292639848087     -1.58137805555831
  H   0.57378358727067     -1.28658793053108      0.52586804631148
  H   -0.88953344049277      1.19047452180876     -0.55434864241112
  N   1.60890654379942      0.51015634253898      0.29917673462738
  O   2.63567540823602     -0.14888344012185      0.42542123102147
  O   1.52682130348015      1.70083211179076      0.02078578828763
  C   -1.84391554256013     -0.68719627365094     -0.57192783411903
  N   -2.80666770537317     -1.35582602407533     -0.52666748496190
