11
Coordinates from ORCA-job run
  C   0.46894909514447     -0.51067861873533      0.49448595886326
  C   -0.68856800996618     -0.59062950742704     -0.49339481912663
  Cl  -0.07558649203595     -0.45614995732379      2.15422742993879
  H   -0.27888484563178     -0.68577819072934     -1.50203235720648
  H   1.13951999835662     -1.35889649007570      0.36370053579144
  H   -1.27797250677708     -1.48377428411627     -0.27317382440067
  N   1.30525573933618      0.70760019574379      0.12833060180286
  O   1.30787381530843      1.68526372601688      0.85736775379340
  O   1.89240424038665      0.57579940739014     -0.94168568057824
  C   -1.54890726457880      0.58786456121299     -0.42189803245263
  N   -2.24508376954259      1.53037915804373     -0.36492756642511
