17

C	0.0	0.0	0.0
C	-0.442779	-0.085849	-1.470809
F	1.400878	0.0	0.0
H	0.403928	-0.57125	-1.977853
H	-0.308184	0.955877	0.435799
C	-0.476762	-1.134751	0.872845
H	-1.564212	-1.07946	0.961217
H	-0.017318	-1.04315	1.862847
H	-0.204936	-2.09476	0.431041
C	-0.601666	1.327025	-2.045045
H	-0.77156	1.285011	-3.126818
H	-1.47025	1.801616	-1.582448
H	0.291861	1.937004	-1.863327
N	-1.61384	-0.937578	-1.62945
H	-2.40228	-0.573296	-1.047465
H	-1.923205	-0.875225	-2.595301
H	-3.636775	0.0	0.0
