17

C	0.0	0.0	0.0
C	-0.368846	0.174985	-1.480764
F	1.401852	0.0	0.0
H	-0.026537	-0.759698	-1.963875
H	-0.317599	0.884467	0.563579
C	-0.539699	-1.253157	0.634038
H	-0.231071	-2.129603	0.057221
H	-1.632638	-1.189416	0.652499
H	-0.165008	-1.356363	1.656521
C	0.434692	1.328309	-2.097814
H	1.516696	1.192365	-2.025562
H	0.147211	2.260291	-1.601142
H	0.150004	1.422162	-3.148057
N	-1.779332	0.429678	-1.713695
H	-2.439613	0.293557	-0.915008
H	-2.132823	-0.175637	-2.444527
H	-3.785352	0.0	0.0
