17

C	0.0	0.0	0.0
C	-0.349936	-0.002307	-1.487398
F	1.407439	0.0	0.0
H	0.152864	0.896331	-1.888949
H	-0.307902	0.953458	0.441639
C	-0.544812	-1.155967	0.79411
H	-0.139851	-1.135599	1.809761
H	-1.634814	-1.062834	0.845701
H	-0.284152	-2.098212	0.312881
C	-1.830585	0.096603	-1.786284
H	-2.397713	-0.75894	-1.423853
H	-1.977487	0.188156	-2.870164
H	-2.307157	0.948383	-1.301346
N	0.205417	-1.22753	-2.080173
H	-0.066247	-1.26535	-3.055545
H	1.216648	-1.178566	-2.040439
H	-4.418408	0.0	0.0
