17

C	0.0	0.0	0.0
C	-0.354538	-0.001641	-1.495958
F	1.405592	0.0	0.0
H	0.333629	0.737604	-1.928587
H	-0.302591	0.956912	0.439544
C	-0.551274	-1.136668	0.817043
H	-1.645972	-1.071368	0.814204
H	-0.195222	-1.067724	1.848276
H	-0.238785	-2.100686	0.410432
C	-1.778085	0.4244	-1.800709
H	-1.928205	1.475767	-1.540356
H	-1.956185	0.30667	-2.874083
H	-2.559002	-0.102608	-1.234776
N	-0.045329	-1.274388	-2.159114
H	-0.752063	-1.955264	-1.902281
H	0.848884	-1.612736	-1.817502
H	-4.237484	0.0	0.0
