19

C	0.0	0.0	0.0
C	-0.366852	0.003903	-1.507522
F	1.416151	0.0	0.0
H	-0.045772	-0.978629	-1.891386
C	-0.34785	1.269222	0.758819
H	-1.427641	1.438254	0.868164
H	0.106664	1.221133	1.757921
H	0.038614	2.077868	0.12518
N	-0.565267	-1.151525	0.649179
H	-0.28348	-1.990778	0.148089
H	-0.209399	-1.216331	1.601296
N	0.307282	0.998554	-2.344786
O	0.00624	2.254502	-1.810726
O	1.618668	0.675412	-2.529832
C	-1.845933	0.207265	-1.83301
H	-1.909987	0.216586	-2.922614
H	-2.142842	1.213193	-1.518097
H	-2.542396	-0.581677	-1.48823
H	-2.144715	0.0	0.0
