19

C	0.0	0.0	0.0
C	-0.345869	-0.009843	-1.514004
F	1.416171	0.0	0.0
H	0.022818	-0.980001	-1.886795
C	-0.333393	1.278622	0.751392
H	-1.409607	1.46276	0.859508
H	0.064107	2.082306	0.121636
H	0.117792	1.227134	1.750858
N	-0.605458	-1.133529	0.641141
H	-0.39598	-1.977642	0.119104
H	-0.249946	-1.243585	1.587614
N	0.305719	1.001886	-2.34803
O	-0.046592	2.245237	-1.819894
O	1.629593	0.728952	-2.522589
C	-1.825641	0.12766	-1.853985
H	-2.463866	-0.730218	-1.590235
H	-2.207045	1.082695	-1.467285
H	-1.85884	0.246953	-2.937838
H	-2.15956	0.0	0.0
