19

C	0.0	0.0	0.0
C	-0.490768	0.008546	-1.450523
F	1.405489	0.0	0.0
H	-1.583442	-0.122493	-1.377594
C	-0.432634	1.266292	0.716889
H	0.025279	2.160121	0.286631
H	-0.120306	1.188655	1.763538
H	-1.527769	1.305458	0.66505
N	-0.475431	-1.204338	0.611567
H	-1.503478	-1.151342	0.500416
H	-0.294741	-1.138728	1.608575
N	0.058863	-1.196341	-2.144802
O	-0.637742	-2.207785	-2.186769
O	1.183882	-1.103432	-2.64579
C	-0.10845	1.250517	-2.230505
H	-0.72318	2.085754	-1.891843
H	0.9474	1.488659	-2.099611
H	-0.299533	1.10232	-3.295816
H	-3.132231	0.0	0.0
