19

C	0.0	0.0	0.0
C	-0.4483	-0.004155	-1.484717
F	1.401603	0.0	0.0
H	-1.532916	-0.200161	-1.425826
C	-0.454179	1.280413	0.667466
H	0.058194	2.144917	0.243138
H	-0.204529	1.198243	1.727209
H	-1.541919	1.353109	0.553443
N	-0.492078	-1.103355	0.759896
H	-1.51313	-0.931527	0.80132
H	-0.380965	-1.957373	0.219424
N	0.192406	-1.172354	-2.157814
O	-0.253055	-2.296683	-1.904919
O	1.144671	-0.972261	-2.916457
C	-0.134014	1.260794	-2.255673
H	-0.787603	2.057964	-1.900745
H	0.909502	1.551728	-2.129903
H	-0.321408	1.115053	-3.321416
H	-3.127175	0.0	0.0
