14

C	0.0	0.0	0.0
C	-0.502224	-0.049583	-1.442841
Br	1.966112	0.0	0.0
H	-1.601183	-0.158956	-1.285874
H	-0.245994	0.881912	-1.945935
N	-0.532331	1.144027	0.682663
H	-1.567234	0.922715	0.600276
H	-0.329223	1.965303	0.119825
C	-0.37204	-1.197229	0.772872
N	-0.562237	-2.138713	1.448072
N	0.030495	-1.136686	-2.28964
O	0.341705	-0.846429	-3.448467
O	0.092885	-2.268237	-1.810945
F	-2.738534	0.0	0.0
