14

C	0.0	0.0	0.0
C	-0.491748	-0.023533	-1.460205
Br	1.979883	0.0	0.0
H	-1.592575	0.079251	-1.311426
H	-0.212952	-0.941555	-1.973431
N	-0.517953	1.026783	0.84363
H	-0.332311	1.91136	0.382664
H	-1.548142	0.818855	0.742934
C	-0.360328	-1.312873	0.564492
N	-0.563633	-2.368033	1.038365
N	0.046635	1.08573	-2.270037
O	0.527794	0.809832	-3.372453
O	-0.031968	2.230837	-1.817894
F	-2.728216	0.0	0.0
