14

C	0.0	0.0	0.0
C	-0.518682	0.097182	-1.438352
Br	1.964731	0.0	0.0
H	-1.617479	0.146487	-1.28654
H	-0.187588	-0.759137	-2.021179
N	-0.538956	1.037778	0.80692
H	-1.575941	0.870431	0.655364
H	-0.310722	0.847145	1.777501
C	-0.334568	-1.367547	0.468341
N	-0.528656	-2.440393	0.909283
N	-0.023658	1.299625	-2.146196
O	-0.494687	2.391395	-1.835129
O	0.821465	1.12668	-3.032154
F	-2.762951	0.0	0.0
