15

C	0.0	0.0	0.0
C	-0.478471	0.240742	-1.432975
Br	2.030197	0.0	0.0
H	-0.17519	-0.591032	-2.076345
H	-1.579939	0.24549	-1.365824
C	-0.45509	1.100558	0.933744
H	-1.551009	1.105987	0.905754
H	-0.058668	2.066945	0.620551
H	-0.113141	0.899207	1.952294
N	-0.490716	-1.241908	0.418303
H	-0.172965	-2.027294	-0.129738
H	-0.395387	-1.412497	1.407274
C	0.004506	1.487699	-2.013414
N	0.387651	2.490152	-2.489342
Br	-3.965274	0.0	0.0
