15

C	0.0	0.0	0.0
C	-0.468329	0.162783	-1.458093
Br	1.971133	0.0	0.0
H	-1.568143	0.160144	-1.416997
H	-0.138944	-0.700373	-2.045727
C	-0.444409	1.175438	0.852424
H	-0.111182	1.01835	1.879144
H	-1.536773	1.218051	0.82544
H	-0.029453	2.111825	0.476303
N	-0.472528	-1.223038	0.592778
H	-1.486748	-1.111958	0.685535
H	-0.308965	-1.997132	-0.042541
C	-0.005713	1.382434	-2.112912
N	0.348044	2.371486	-2.638398
Br	-3.828892	0.0	0.0
