15

C	0.0	0.0	0.0
C	-0.480129	-0.291764	-1.423212
Br	1.972802	0.0	0.0
H	-0.137576	0.496002	-2.09967
H	-1.580405	-0.26297	-1.388849
C	-0.43104	1.402891	0.41191
H	-1.5251	1.42419	0.402561
H	-0.03302	2.164686	-0.263863
H	-0.073302	1.617611	1.42252
N	-0.468498	-1.054293	0.857579
H	-1.489222	-1.073355	0.757437
H	-0.266692	-0.815975	1.823025
C	-0.038202	-1.582673	-1.941556
N	0.317359	-2.597171	-2.412727
Br	-3.824133	0.0	0.0
