15

C	0.0	0.0	0.0
C	-0.153721	-0.275981	-1.52098
Br	2.046118	0.0	0.0
H	0.335413	-1.232239	-1.730659
H	0.428813	0.478371	-2.055061
C	-0.521726	1.352731	0.41488
H	-0.295822	1.542437	1.467615
H	-1.610342	1.324655	0.277391
H	-0.07392	2.145543	-0.185025
N	-0.541621	-1.007752	0.75661
H	-0.862755	-0.817951	1.688124
H	-0.375289	-1.968054	0.516826
C	-1.468094	-0.325006	-2.167401
N	-2.334354	-0.404673	-2.956759
Br	-4.142579	0.0	0.0
