14

C	0.0	0.0	0.0
C	-0.476917	0.217665	-1.442619
Br	2.015737	0.0	0.0
H	-1.58359	0.128198	-1.306639
H	-0.165639	1.18092	-1.839479
C	-0.343333	1.233055	0.729999
N	-0.539492	2.242238	1.298918
N	-0.52275	-1.117241	0.699724
H	-1.556042	-0.884209	0.638307
H	-0.36093	-1.936909	0.12379
N	0.019409	-0.800472	-2.387536
O	0.414875	-0.409503	-3.486251
O	-0.016233	-1.985631	-2.053455
F	-2.727586	0.0	0.0
