14

C	0.0	0.0	0.0
C	-0.50759	0.055137	-1.439353
Br	1.966109	0.0	0.0
H	-0.254051	-0.87372	-1.948631
H	-1.608222	0.160306	-1.274392
C	-0.372357	1.192589	0.780817
N	-0.568137	2.120514	1.473423
N	-0.527275	-1.14876	0.680862
H	-0.316098	-1.969367	0.118583
H	-1.561513	-0.936517	0.600485
N	0.01758	1.147254	-2.282795
O	0.285537	0.871858	-3.455403
O	0.118468	2.268211	-1.787752
F	-2.739807	0.0	0.0
