17

C	-0.37303	-0.040228	-1.468448
C	0.0	0.0	0.0
Cl	-2.171597	-0.091293	-1.691347
H	1.095327	0.0	0.0
H	-0.0629	0.901589	-1.915942
C	0.277959	-1.204724	-2.185777
H	0.107456	-1.127989	-3.26155
H	-0.124328	-2.15961	-1.844261
H	1.352316	-1.172343	-1.9825
C	-0.499529	-1.145496	0.850841
H	-0.092759	-1.057246	1.856755
H	-1.588601	-1.168665	0.909328
H	-0.137711	-2.083543	0.42636
N	-0.41772	1.32029	0.580397
O	-0.870692	1.337603	1.725228
O	-0.254528	2.322393	-0.11273
Cl	3.318449	0.0	0.0
