17

C	-0.497475	-0.025328	-1.444579
C	0.0	0.0	0.0
Cl	-0.040946	1.493471	-2.284786
H	1.09069	0.0	0.0
H	0.091705	-0.806265	-1.932625
C	-1.982145	-0.270167	-1.651559
H	-2.273024	-1.232771	-1.224664
H	-2.2067	-0.287334	-2.71975
H	-2.572193	0.513818	-1.178068
C	-0.444071	-1.227308	0.781972
H	-1.523134	-1.266213	0.926816
H	0.048954	-1.219692	1.75624
H	-0.105993	-2.1233	0.255206
N	-0.502338	1.223098	0.696701
O	-1.701153	1.239619	1.007219
O	0.282105	2.140726	0.909469
Cl	3.398864	0.0	0.0
