14

C	-0.624245	0.063826	-1.381188
C	0.0	0.0	0.0
Cl	-2.395151	0.119057	-1.268381
H	1.090893	0.0	0.0
H	-0.341425	0.862251	0.572239
C	-0.162535	1.262891	-2.071335
N	0.183007	2.247792	-2.612642
N	-0.192681	-1.136396	-2.28044
O	1.011023	-1.177231	-2.464095
O	-1.052544	-1.87217	-2.727885
N	-0.456158	-1.199625	0.741051
O	-0.51148	-2.258422	0.118336
O	-0.704573	-1.056507	1.934762
Br	3.373501	0.0	0.0
