13
Coordinates from ORCA-job run
  C   -0.35725713780800     -0.35566611647150      0.46949299872253
  C   0.72635006399083      0.23737873342713     -0.41901436856727
  H   -0.16265486039856     -1.42701203651066      0.57160592941756
  H   0.65601857612501     -0.21366256468435     -1.41431332675339
  H   -0.27103094832003      0.07662827321471      1.47399684753804
  H   0.53742035726913      1.31633543941093     -0.54293917188830
  C   -1.76016071968609     -0.11021927181148     -0.07602727868188
  H   -2.52307667217934     -0.54107821449765      0.57622283744756
  H   -1.87803202416459     -0.55894485108797     -1.06610327040098
  H   -1.96761085241091      0.95938807815776     -0.16850748022154
  N   2.05301210297461     -0.07050702130897      0.11773402710215
  H   2.76834235807246      0.26591131622339     -0.51556097754006
  H   2.18067975653548      0.42144823593867      0.99441323382558
