13
Coordinates from ORCA-job run
  C   -0.61831651521617      0.62452604704519     -0.05593147652332
  C   0.82931868206138      0.46254801009756      0.39361407580248
  H   -1.08716885461755      1.40695398622751      0.55122024470961
  H   0.84267845911751      0.08606085063305      1.42205409968371
  H   -0.62930410489505      0.99170212933657     -1.09016798706208
  H   1.31620793983913      1.45030557417294      0.40754250280806
  C   -1.41603641623843     -0.67065853597991      0.04426556936584
  H   -0.95051577643451     -1.45385247663005     -0.55318154755619
  H   -2.44487281001067     -0.53160101225964     -0.29693377478070
  H   -1.45155230726296     -1.01950966510471      1.08043219747686
  N   1.52030841878691     -0.51655474179908     -0.44825325046974
  H   1.64445695454353     -0.12814174293064     -1.37624593906508
  H   2.44479633032687     -0.70077842280879     -0.07841471438946
