13
Coordinates from ORCA-job run
  C   -0.52672327783054      0.22108207649898      0.73246331324850
  C   0.96208923678088      0.10499906728187      0.43128013323779
  H   -0.71317683795190     -0.16857119971785      1.73972512673946
  H   1.26907369066684     -0.94887104002431      0.53559950212756
  H   -0.79316783656962      1.28228278171774      0.73655085933313
  H   1.52150404179996      0.67368626301159      1.18011805367920
  C   -1.39476396128474     -0.52346739387243     -0.27709187776694
  H   -1.10478561550849     -1.57692530183862     -0.34501495095075
  H   -2.44972527436557     -0.48868511193210      0.00429382408431
  H   -1.30907473186664     -0.07815438692710     -1.27055589362218
  N   1.27128346078008      0.67388008460267     -0.88313228645682
  H   0.99703059128942      0.02414948820439     -1.60951693098293
  H   2.27143651406034      0.80359467299516     -0.97271887267034
