13
Coordinates from ORCA-job run
  C   -0.59680543959967      0.62567142238143     -0.08372610765499
  C   0.86579533428303      0.62755447912084      0.37052502334277
  H   -1.14123962624160      1.38808971134278      0.48606799807965
  H   0.91327432374950      0.37697335410092      1.43598008051661
  H   -0.64257641242166      0.93249609479614     -1.13604339115681
  H   1.27316726990617      1.63887368215649      0.27301910320238
  C   -1.28045652483517     -0.72695752816721      0.08961148213829
  H   -1.23289640706846     -1.05619676614719      1.13187619188091
  H   -2.33344429082978     -0.68114684234633     -0.19697549611866
  H   -0.80988666252448     -1.49556937521047     -0.52770084970248
  N   1.76869147130586     -0.28065687421008     -0.33309429586853
  H   1.49250415471306     -1.24166001679696     -0.17900498640600
  H   1.72287280956319     -0.10847134102037     -1.33053475225313
