17

C	0.0	0.0	0.0
C	-0.586401	-0.03886	-1.408316
Br	1.930265	0.0	0.0
H	-1.690879	-0.09767	-1.20681
N	-0.419312	1.212614	0.623368
H	-0.207626	1.127208	1.613114
H	-1.444157	1.211074	0.543172
N	-0.57413	-1.208236	0.695216
O	-1.73807	-0.889731	1.196382
O	-0.224451	-2.350672	0.334607
N	-0.119489	-1.095115	-2.216914
H	0.870703	-1.002953	-2.399084
H	-0.628059	-1.122202	-3.090188
N	-0.413865	1.323975	-2.068998
O	-1.257425	2.190871	-1.851293
O	0.55076	1.457547	-2.829116
H	-2.887124	0.0	0.0
