17

C	0.0	0.0	0.0
C	-0.581778	-0.073455	-1.416189
Br	1.934148	0.0	0.0
H	-1.694805	-0.034973	-1.200483
N	-0.588302	1.005944	0.734691
H	-1.62927	0.862236	0.580978
H	-0.365365	0.893558	1.718808
N	-0.295338	-1.415573	0.766648
O	-0.621377	-2.432211	0.16883
O	-0.18185	-1.33016	1.983461
N	-0.111171	-1.192782	-2.195764
H	-0.635092	-2.005815	-1.904022
H	-0.306341	-0.993465	-3.168559
N	-0.263197	1.180843	-2.191064
O	0.115256	1.029415	-3.359061
O	-0.479414	2.274748	-1.679992
H	-2.945479	0.0	0.0
