17

C	0.0	0.0	0.0
C	-0.404771	0.04158	-1.50543
Br	1.992722	0.0	0.0
H	-1.512082	0.124376	-1.541158
N	-0.630081	1.025648	0.784457
H	-0.365681	0.880165	1.763693
H	-0.369149	1.964579	0.443648
N	-0.420559	-1.29734	0.570538
O	-1.705306	-1.627453	0.291565
O	0.299346	-1.924888	1.409362
N	-0.016198	-1.193099	-2.10732
H	0.963365	-1.100597	-2.353846
H	-0.532384	-1.302246	-2.970039
N	0.196946	1.228592	-2.100802
O	-0.228149	2.358596	-1.567671
O	0.469306	1.132017	-3.373199
H	-1.683705	0.0	0.0
