17

C	0.0	0.0	0.0
C	-0.528246	-0.062969	-1.466757
Br	1.943139	0.0	0.0
H	-1.632891	-0.049392	-1.268205
N	-0.577141	0.993041	0.792347
H	-1.621106	0.762168	0.692048
H	-0.437014	1.891912	0.344875
N	-0.364439	-1.346931	0.727287
O	-0.545816	-2.356314	0.053906
O	-0.382693	-1.306265	1.944879
N	-0.151286	-1.099952	-2.369754
H	-0.55916	-1.954325	-2.019645
H	0.856081	-1.205912	-2.391338
N	-0.158792	1.242724	-2.11364
O	0.706055	1.21862	-2.990396
O	-0.729575	2.269807	-1.735202
H	-2.891874	0.0	0.0
