17

C	0.0	0.0	0.0
C	-0.3219	0.097693	-1.536866
Br	1.997604	0.0	0.0
H	-1.411565	0.18964	-1.565982
N	-0.378934	1.141505	0.763283
H	-0.257163	0.884016	1.737736
H	0.160174	1.955363	0.510765
N	-0.78694	-1.153225	0.584037
O	-0.746248	-1.17573	1.849158
O	-0.785644	-2.235542	-0.088056
N	0.104371	-0.97129	-2.384663
H	1.115154	-1.036848	-2.354791
H	-0.268689	-1.798973	-1.921194
N	0.189098	1.395141	-2.098684
O	-0.325571	2.436781	-1.683004
O	1.073811	1.352487	-2.951405
H	-2.087815	0.0	0.0
