13
Coordinates from ORCA-job run
  C   -0.52550991954966     -0.24877825494252     -0.28591291295567
  C   0.84676908866529      0.33446451323837      0.06178736285646
  Cl  -0.33610215688900     -1.74137228082646     -1.22676289829643
  H   0.66987195062643      1.30342691689253      0.53759218563044
  H   1.37605773628257      0.51270547635734     -0.87757316122257
  N   -1.30733785568289      0.72712867032234     -1.17645285895088
  O   -0.63274700838792      1.43326421350125     -1.91560458322787
  O   -2.52741223736933      0.69396829720177     -1.09964173878562
  C   -1.31194320790987     -0.50890033982870      0.91147943903028
  N   -1.91997388108883     -0.68456440294911      1.90113271728709
  N   1.50753084967143     -0.56557728349298      0.98400506775729
  H   2.13099354429844     -1.19683250908133      0.50213524090291
  H   2.02980309733336     -0.05893301639249      1.68281613997458
