13
Coordinates from ORCA-job run
  C   -0.54082197675061     -0.31511621121461     -0.28577777540015
  C   0.81207070628579      0.32864260555633      0.05856310327057
  Cl  -0.30074366856352     -1.84694718111512     -1.11816079420957
  H   1.33151567543080      0.49205903042662     -0.89466565754403
  H   0.58857275508775      1.30137477928784      0.50508399259070
  N   -1.25478982286470      0.68683239121811     -1.21430491851809
  O   -1.08743584911269      0.56842386953478     -2.41676093996785
  O   -1.85152464527896      1.58273309210706     -0.63001285807793
  C   -1.36288371032002     -0.51296047395392      0.89876905588174
  N   -2.00915008108959     -0.67562369009699      1.86617813057130
  N   1.51025711228916     -0.50630426522862      1.00594854959977
  H   2.02491377278821      0.04367860810475      1.67701299018684
  H   2.14001973209839     -1.14879255462626      0.54812712161671
