13
Coordinates from ORCA-job run
  C   -0.63214238956371     -0.51742458811649     -0.07702389869836
  C   0.85488036991725     -0.48318938801502      0.27106171226956
  Cl  -1.16809404903671     -2.17419638092896     -0.40465813642879
  H   1.38603470512389     -0.95553014382666     -0.55575113156129
  H   0.99796488490403     -1.09679001277630      1.16653977509899
  N   -0.83406126323644      0.29642575914353     -1.36228608145915
  O   -0.03490197831990      0.06731924802009     -2.25742865003214
  O   -1.77486166123157      1.07549752793535     -1.39022521374465
  C   -1.43415668593741      0.07226032460627      0.98594855916379
  N   -2.01218463061651      0.50480161218162      1.91282093733434
  N   1.23190501606111      0.90513041533547      0.42476668788596
  H   2.05919417908500      1.13779176340470     -0.10327919706051
  H   1.36042350285099      1.16790386303642      1.39051463723225
