13

C	-0.41409	0.072022	-1.461563
C	0.0	0.0	0.0
F	0.224876	1.102472	-2.064794
H	1.096893	0.0	0.0
H	-1.487616	0.171723	-1.636846
N	-0.022695	-1.213636	-2.151863
O	1.091206	-1.284184	-2.643934
O	-0.885012	-2.093272	-2.145827
C	-0.499664	-1.185792	0.667693
N	-0.893357	-2.129161	1.249595
C	-0.468218	1.200699	0.668116
N	-0.827583	2.195151	1.18258
F	2.426334	0.0	0.0
