13

C	-0.414999	0.031236	-1.462904
C	0.0	0.0	0.0
F	-0.014101	1.194333	-2.027781
H	1.096784	0.0	0.0
H	-1.483701	-0.098775	-1.64399
N	0.246985	-1.110386	-2.204458
O	-0.256751	-2.210212	-1.989457
O	1.171494	-0.861144	-2.960123
C	-0.493731	-1.169075	0.700546
N	-0.866847	-2.100307	1.313522
C	-0.479749	1.209392	0.644615
N	-0.847895	2.19735	1.164726
F	2.424966	0.0	0.0
