13

C	-0.257541	0.003725	-1.489367
C	0.0	0.0	0.0
F	0.179766	-1.150508	-2.041655
H	1.097601	0.0	0.0
H	0.226474	0.859045	-1.959857
N	-1.733273	0.118256	-1.813816
O	-2.379064	-0.91684	-1.936478
O	-2.171243	1.265242	-1.884118
C	-0.522378	-1.186072	0.649851
N	-0.907662	-2.147182	1.206765
C	-0.455394	1.218725	0.637419
N	-0.780159	2.2156	1.169924
F	2.426817	0.0	0.0
