13

C	-0.209259	0.038788	-1.498762
C	0.0	0.0	0.0
F	0.144457	-1.146138	-2.047785
H	1.097595	0.0	0.0
H	0.370123	0.84964	-1.939046
N	-1.652938	0.290023	-1.878345
O	-1.96403	1.469616	-2.039133
O	-2.402776	-0.677045	-1.954829
C	-0.556266	-1.18728	0.615134
N	-0.973345	-2.154281	1.137763
C	-0.450747	1.218135	0.642077
N	-0.775087	2.212803	1.179093
F	2.428644	0.0	0.0
