13

C	-0.240311	0.032595	-1.492445
C	0.0	0.0	0.0
F	0.193795	-1.116124	-2.059681
H	1.097577	0.0	0.0
H	0.260159	0.89129	-1.939528
N	-1.709199	0.169001	-1.837227
O	-2.130514	1.322634	-1.915555
O	-2.367645	-0.857119	-1.968588
C	-0.529158	-1.195988	0.624033
N	-0.919082	-2.165613	1.162735
C	-0.459619	1.209046	0.65264
N	-0.790071	2.196993	1.198246
F	2.42696	0.0	0.0
