16
Coordinates from ORCA-job run
  C   -0.62742096426624      0.03954167953972      0.19239370544201
  C   0.65748239975823     -0.72835479806937     -0.10425974541194
  Br  -2.06714791251955     -0.56531283191565     -0.96272812548620
  H   1.37405537374958     -0.44646924801784      0.67371137163563
  H   0.43082722349545     -1.79045603963808      0.02518713138362
  C   -1.07369472176153     -0.07704397021364      1.63799799934627
  H   -1.29231057549462     -1.12196710421681      1.86170988420823
  H   -1.97514006111080      0.51227340319536      1.81414742693587
  H   -0.27780616721217      0.27645776006851      2.29421757386433
  N   -0.32495156831611      1.51184912865554     -0.09556602906217
  O   0.49348962798658      2.00168521484412      0.68044898259194
  O   -0.83376242244540      2.07853500851620     -1.05093907714587
  C   1.25692383706197     -0.46855859401795     -1.48066205123150
  H   0.54822794467921     -0.69958464328213     -2.27686175100563
  H   1.56956847215935      0.57230905355743     -1.58815879144648
  H   2.14165951423607     -1.09290401900541     -1.62063850461812
