16
Coordinates from ORCA-job run
  C   -0.62449944685598      0.25017361600506      0.06972783917754
  C   0.58378951132185      0.08232874072716     -0.84207429133587
  Br  -2.13844542364066     -0.79326036636619     -0.59883559054135
  H   0.27946344574003      0.33269295678158     -1.85899644014965
  H   1.31144203408898      0.84349832178312     -0.53146549272611
  C   -0.37831825858789     -0.10312930118996      1.51678920129602
  H   -1.25126596392753      0.11881764248701      2.12679623203030
  H   0.46883602952614      0.47374974450726      1.89666513126555
  H   -0.15379935621180     -1.16633794301288      1.59588427493880
  N   -1.06744128408525      1.71262892080940     -0.04415202504141
  O   -1.27569374924604      2.32536080556105      0.99889472176464
  O   -1.16446602828315      2.17239753748107     -1.17557640863013
  C   1.22378218736269     -1.29927009608265     -0.78965108814522
  H   1.65684719518462     -1.51320529656015      0.18879775488058
  H   2.02951524481106     -1.35484014357307     -1.52445133301068
  H   0.50025386280292     -2.08060513935782     -1.02835248577299
