16
Coordinates from ORCA-job run
  C   -0.65367029498291      0.22879762099218      0.07507500682734
  C   0.56414761957806      0.08843751342891     -0.83956927187644
  Br  -2.12110541124878     -0.87073373652217     -0.57088114295634
  H   1.28028485080560      0.85318826972482     -0.51637002013043
  H   0.24739005697783      0.34049233905352     -1.85608470082503
  C   -0.38888612547394     -0.10174247995085      1.52908278219219
  H   0.46956991228534      0.46425654592105      1.89171327768446
  H   -0.18894468399560     -1.16762259373640      1.63303521160299
  H   -1.25513089404887      0.14996435580346      2.14241517393008
  N   -1.06206915416799      1.70033598946629     -0.04361823692935
  O   -0.48990727000883      2.45889781092414      0.73609932673682
  O   -1.82117206968004      2.03404742969850     -0.94232683230496
  C   1.22212322682104     -1.28499618242592     -0.80784315758299
  H   2.03000281484318     -1.32032509599052     -1.54190436127724
  H   0.50965880582085     -2.07268656136139     -1.05628094573280
  H   1.65770861647507     -1.50031122502563      0.16945789064170
