16
Coordinates from ORCA-job run
  C   -0.79211447476250      0.11584774025598      0.11196724129075
  C   0.00835052567887     -0.72407510209120     -0.87206911822176
  Br  -2.69900129479365     -0.13685392923698     -0.23620705426068
  H   -0.25103075501822     -1.77046065574648     -0.68702117163782
  H   -0.32593305624886     -0.47846210141228     -1.88079820362406
  C   -0.51566699064937     -0.17205927995245      1.56951640778621
  H   0.52293212201257      0.05626098903013      1.81126330040133
  H   -1.15489703663705      0.42665164166458      2.21525737736623
  H   -0.70758502822207     -1.22970875626993      1.75851965415251
  N   -0.51387835792190      1.58786612817236     -0.19584818127355
  O   -0.55696728209328      1.92332580832606     -1.37350119508179
  O   -0.25024953706367      2.32453791460383      0.75030709489950
  C   1.51693655960689     -0.51525804647331     -0.75356705498741
  H   1.79141435900540      0.52842093037213     -0.92182474399975
  H   1.90357008721572     -0.82495873457930      0.21853727840065
  H   2.02512015989112     -1.11107454666314     -1.51453163121038
