15

C	0.0	0.0	0.0
C	-0.532987	-0.131847	-1.413415
F	1.351437	0.0	0.0
H	-0.329186	0.842872	-1.865632
H	-1.617271	-0.253873	-1.336025
N	-0.534818	1.111744	0.655558
H	-0.312926	1.059163	1.643204
H	-1.553264	1.074896	0.54313
N	-0.282349	-1.31328	0.815375
O	-0.636264	-2.332418	0.231395
O	-0.071222	-1.231923	2.023998
N	0.162307	-1.161234	-2.189715
H	0.016311	-0.95819	-3.170554
H	-0.282592	-2.048563	-1.994357
Cl	-3.692164	0.0	0.0
