15

C	0.0	0.0	0.0
C	-0.512862	0.194424	-1.411797
F	1.394705	0.0	0.0
H	0.091743	-0.428924	-2.078267
H	-1.54469	-0.161224	-1.412737
N	-0.523992	0.881893	0.934565
H	-0.856252	0.368555	1.739444
H	-1.301424	1.380339	0.516486
N	-0.248603	-1.475608	0.412093
O	-0.087837	-2.325913	-0.457729
O	-0.497969	-1.709007	1.589948
N	-0.513139	1.615987	-1.740049
H	0.374222	1.894841	-2.134306
H	-1.244673	1.805672	-2.410133
Cl	-3.671956	0.0	0.0
