16

C	0.0	0.0	0.0
C	-0.560341	0.055841	-1.431514
Cl	1.744402	0.0	0.0
H	-1.659655	0.023635	-1.289777
C	-0.460334	1.036041	0.919065
N	-0.643569	1.85581	1.742235
N	-0.422808	-1.36009	0.651845
O	-0.199068	-1.434736	1.85041
O	-0.881819	-2.230839	-0.063237
N	-0.00885	-0.96792	-2.257587
H	-0.749061	-1.580255	-2.565558
H	0.454751	-0.54488	-3.051265
N	-0.247472	1.429069	-1.997037
O	-0.626313	2.399371	-1.352928
O	0.342582	1.488817	-3.077449
Cl	-3.402245	0.0	0.0
