16

C	0.0	0.0	0.0
C	-0.563311	-0.22599	-1.40232
Cl	1.777835	0.0	0.0
H	-1.631795	-0.444565	-1.248752
C	-0.455957	1.19494	0.698583
N	-0.658779	2.162859	1.335098
N	-0.397149	-1.214381	0.899502
O	-0.848645	-2.206541	0.360677
O	-0.160209	-1.057361	2.088366
N	0.115199	-1.258693	-2.106682
H	-0.50328	-1.656051	-2.799146
H	0.965299	-0.930133	-2.54566
N	-0.547581	1.069071	-2.203387
O	0.067107	2.047674	-1.780202
O	-1.115033	0.999624	-3.291436
Cl	-3.370543	0.0	0.0
