14

C	-0.437641	0.003166	-1.450603
C	0.0	0.0	0.0
F	0.305262	0.818662	-2.214354
H	1.095894	0.0	0.0
H	-0.387372	-1.013299	-1.851502
N	-1.89657	0.417488	-1.600833
O	-2.659709	-0.005158	-0.739069
O	-2.197592	1.076028	-2.584187
C	-0.468693	-1.174712	0.715971
N	-0.801447	-2.162194	1.257555
N	-0.417284	1.246532	0.717674
O	-0.42503	1.208377	1.941083
O	-0.66298	2.226206	0.018916
Cl	3.112536	0.0	0.0
