14

C	-0.518533	0.069058	-1.41982
C	0.0	0.0	0.0
F	-1.871759	0.220521	-1.439975
H	1.093175	0.0	0.0
H	-0.041017	0.874041	-1.972122
N	-0.190038	-1.212559	-2.145673
O	0.857886	-1.212403	-2.78082
O	-0.997146	-2.131062	-2.042831
C	-0.545366	-1.11503	0.754172
N	-0.975813	-2.035495	1.343088
N	-0.358797	1.300235	0.678797
O	-0.617223	1.265023	1.874873
O	-0.296085	2.308956	-0.016894
Cl	3.103277	0.0	0.0
