14

C	-0.508253	0.025427	-1.423624
C	0.0	0.0	0.0
F	-1.869354	0.099802	-1.458544
H	1.09432	0.0	0.0
H	-0.072737	0.851217	-1.979019
N	-0.104833	-1.23853	-2.140206
O	-0.795598	-2.232363	-1.938243
O	0.871118	-1.151567	-2.876956
C	-0.539818	-1.094759	0.78706
N	-0.960398	-1.988128	1.42263
N	-0.366924	1.317183	0.641267
O	-0.310439	2.307466	-0.081173
O	-0.627476	1.3138	1.837398
Cl	3.100544	0.0	0.0
