14

C	-0.449498	0.049578	-1.438072
C	0.0	0.0	0.0
F	-1.812955	0.080655	-1.5487
H	1.09267	0.0	0.0
H	-0.025731	0.911053	-1.946697
N	-0.001124	-1.165315	-2.210708
O	-0.128516	-1.062398	-3.428872
O	0.404926	-2.146783	-1.598702
C	-0.58053	-1.087497	0.766674
N	-1.061432	-1.967049	1.378203
N	-0.362114	1.314089	0.651165
O	-0.550355	1.306207	1.860317
O	-0.37072	2.306911	-0.069979
Cl	3.101373	0.0	0.0
