14

C	-0.578057	0.036315	-1.403117
C	0.0	0.0	0.0
F	-0.288516	-1.12827	-2.037022
H	1.09125	0.0	0.0
H	-1.655842	0.197551	-1.420413
N	0.011275	1.156414	-2.231912
O	-0.315316	1.132669	-3.415599
O	0.714914	1.988413	-1.677266
C	-0.473333	-1.203644	0.67433
N	-0.880306	-2.172305	1.199557
N	-0.485797	1.174161	0.802523
O	-1.306881	1.925394	0.275584
O	-0.04037	1.27735	1.935825
Cl	3.132984	0.0	0.0
