15

C	-0.600827	-0.104193	-1.391434
C	0.0	0.0	0.0
Cl	0.196563	1.146903	-2.450812
H	1.091648	0.0	0.0
H	-0.335837	-1.055733	-1.841937
N	-2.015739	0.054301	-1.313055
H	-2.43789	-0.019356	-2.232003
H	-2.20613	0.983665	-0.946061
N	-0.388356	-1.303545	0.701957
O	-0.103704	-2.349618	0.128624
O	-0.948294	-1.233703	1.79541
N	-0.486098	1.1418	0.702958
H	0.245914	1.483056	1.313776
H	-1.286295	0.890655	1.271219
Cl	3.317981	0.0	0.0
