15

C	-0.582217	-0.002421	-1.40711
C	0.0	0.0	0.0
Cl	0.251333	1.291767	-2.376026
H	1.089734	0.0	0.0
H	-0.331133	-0.933223	-1.908288
N	-1.996155	0.172883	-1.33744
H	-2.180509	1.097969	-0.964
H	-2.40662	0.114697	-2.260962
N	-0.403203	-1.35436	0.595513
O	-0.084376	-2.355752	-0.036509
O	-1.020006	-1.364689	1.661788
N	-0.497092	1.089122	0.774123
H	0.207393	1.363954	1.447933
H	-1.32964	0.802235	1.277811
Cl	3.33412	0.0	0.0
