15

C	-0.465925	-0.009236	-1.452871
C	0.0	0.0	0.0
Cl	-2.407969	-0.092822	-1.383992
H	1.092109	0.0	0.0
H	-0.345699	0.996402	-1.849938
N	0.109278	-0.953402	-2.272218
H	-0.194519	-0.934812	-3.231824
H	0.174912	-1.873835	-1.86619
N	-0.44731	-1.297698	0.658097
O	-1.149775	-1.253977	1.657778
O	-0.064561	-2.339305	0.117562
N	-0.434352	1.107598	0.767969
H	-1.348509	1.449048	0.512236
H	0.26889	1.830056	0.773022
Cl	3.313499	0.0	0.0
