15

C	-0.473923	0.033714	-1.448385
C	0.0	0.0	0.0
Cl	-2.417632	-0.027438	-1.365474
H	1.09185	0.0	0.0
H	-0.342469	1.048771	-1.817385
N	0.078089	-0.89321	-2.304417
H	-0.246156	-0.836959	-3.256234
H	0.117348	-1.828246	-1.929254
N	-0.446214	-1.312352	0.634477
O	-1.08199	-1.291386	1.677708
O	-0.1201	-2.341804	0.036429
N	-0.424297	1.093603	0.792148
H	0.300185	1.791328	0.85294
H	-1.321337	1.472298	0.529025
Cl	3.296926	0.0	0.0
