15

C	-0.599684	-0.155794	-1.389853
C	0.0	0.0	0.0
Cl	0.067206	1.214877	-2.412731
H	1.096977	0.0	0.0
H	-0.230112	-1.056942	-1.870312
N	-2.013135	-0.149589	-1.287479
H	-2.284053	0.698286	-0.800241
H	-2.451295	-0.180468	-2.197961
N	-0.388094	-1.247136	0.759212
O	-0.159844	-2.316057	0.205379
O	-0.878522	-1.132498	1.882708
N	-0.544151	1.173383	0.655452
H	-0.81927	0.904033	1.592923
H	0.212296	1.842378	0.736133
Cl	3.31022	0.0	0.0
