15

C	-0.372107	-0.11896	-1.479159
C	0.0	0.0	0.0
Cl	-2.155056	-0.420988	-1.624923
H	1.102912	0.0	0.0
H	-0.218285	0.883151	-1.87863
N	0.357679	-1.062786	-2.272712
H	0.340912	-1.957369	-1.796931
H	1.328608	-0.755112	-2.256845
N	-0.425531	-1.255294	0.749212
O	-1.106643	-1.120186	1.765001
O	-0.067019	-2.341055	0.295817
N	-0.498869	1.191315	0.586194
H	0.025075	1.403108	1.424603
H	-1.477388	1.095318	0.825204
Cl	3.295673	0.0	0.0
