15

C	-0.511802	-0.126833	-1.439989
C	0.0	0.0	0.0
Cl	-0.309939	-1.788449	-2.062412
H	1.090437	0.0	0.0
H	-1.585061	0.07992	-1.457617
N	0.176427	0.796206	-2.309145
H	1.174873	0.613323	-2.212325
H	0.01998	1.715769	-1.902237
N	-0.535849	-1.129462	0.84323
O	0.193796	-2.073878	1.11774
O	-1.723106	-1.030285	1.180087
N	-0.444611	1.27477	0.497418
H	0.214414	1.607827	1.188218
H	-1.364441	1.188281	0.90842
Cl	3.330913	0.0	0.0
