15

C	-0.601563	-0.097258	-1.408099
C	0.0	0.0	0.0
Cl	0.001266	1.304714	-2.33741
H	1.091301	0.0	0.0
H	-0.221748	-0.985936	-1.906778
N	-2.042	-0.093189	-1.431821
H	-2.386696	-0.9896	-1.106045
H	-2.355302	0.63669	-0.798761
N	-0.40408	-1.290179	0.683037
O	-1.014926	-1.239966	1.752116
O	-0.122466	-2.332507	0.098658
N	-0.526062	1.137066	0.711408
H	0.260159	1.690198	1.028093
H	-1.027826	0.810987	1.528036
Cl	3.303037	0.0	0.0
