15

C	-0.496345	-0.058335	-1.450204
C	0.0	0.0	0.0
Cl	0.023846	1.494524	-2.27205
H	1.090509	0.0	0.0
H	0.047141	-0.842298	-1.972284
N	-1.896921	-0.294483	-1.536003
H	-2.18398	-0.412414	-2.498531
H	-2.422956	0.475106	-1.141195
N	-0.462129	-1.324064	0.576085
O	0.021257	-2.328928	0.060949
O	-1.313138	-1.321327	1.459328
N	-0.439001	1.071024	0.825858
H	0.220783	1.830895	0.759006
H	-1.379634	1.390354	0.645762
Cl	3.33767	0.0	0.0
