15

C	-0.493996	0.045925	-1.451391
C	0.0	0.0	0.0
Cl	-0.297209	-1.547017	-2.238332
H	1.096179	0.0	0.0
H	-1.565637	0.263167	-1.459082
N	0.219378	1.038494	-2.212286
H	1.213735	0.821977	-2.144367
H	0.092409	1.915223	-1.716441
N	-0.553755	-1.221511	0.687638
O	-1.779123	-1.216324	0.864221
O	0.201757	-2.13061	1.01032
N	-0.450917	1.203927	0.645994
H	0.156139	1.417242	1.427047
H	-1.405382	1.092787	0.966076
Cl	3.354555	0.0	0.0
