17
Coordinates from ORCA-job run
  C   0.79014001275318     -0.05361405316752     -0.03177212396789
  C   -0.47036372326533      0.14925060321690      0.83374084384012
  Cl  2.21289303386056      0.01198844204706      1.15885285716387
  H   -0.40009762410036     -0.53963161419174      1.68131486119004
  C   0.83725656456119     -1.43089003527380     -0.66711897415999
  H   1.81250584752664     -1.58933808384668     -1.13165745803093
  H   0.69176410777292     -2.20936064128624      0.08308720042820
  H   0.06834075411619     -1.50947500142193     -1.43683758177015
  N   0.87026605640282      0.95393985190522     -1.02518073087924
  H   0.94513274717556      1.88018794173944     -0.61990952405220
  H   1.65886683700753      0.80128211165649     -1.64122385413974
  C   -1.76819101534457     -0.10425606690025      0.05790952962919
  H   -2.62861978670655      0.15615828234212      0.67680584056723
  H   -1.78830569145555      0.50186872490004     -0.84782154406915
  H   -1.85368762097141     -1.15713666411141     -0.21278245564899
  C   -0.47585579418255      1.51227550494104      1.37169898922788
  N   -0.50104470515026      2.62375069745125      1.74989412467172
