17
Coordinates from ORCA-job run
  C   0.72134326205281     -0.08289257679265     -0.23806059610947
  C   -0.71771250260915      0.03241912387574      0.33935515409941
  Cl  1.76472170931072      1.07806670033721      0.65711092656898
  H   -1.30613937767365     -0.71363629378230     -0.21315935154900
  C   1.27760228627188     -1.48082767449056     -0.03578106291258
  H   1.30967149504341     -1.74629496606220      1.02062932666525
  H   0.64852748017295     -2.20754675533576     -0.56112020445271
  H   2.28433846141432     -1.52293980360625     -0.45056944434453
  N   0.81998131828919      0.25781135158606     -1.63699341933669
  H   0.28005335886008     -0.39290759724540     -2.19648695059037
  H   0.50456311620800      1.20199418903839     -1.81807612566378
  C   -1.37918430965147      1.40035978472584      0.15939317218651
  H   -2.39230971634161      1.37885362323006      0.56394429229940
  H   -0.81595799829130      2.17445016081814      0.68024787889609
  H   -1.44871454356296      1.65796568399243     -0.89854538417315
  C   -0.75308702934481     -0.36237853217619      1.74865551916557
  N   -0.79769701014839     -0.67249641811256      2.88045626925109
