17
Coordinates from ORCA-job run
  C   0.84983587292021     -0.14672980456782      0.03718145388446
  C   -0.44360252073670      0.44607743518740      0.66638455538660
  Cl  1.57722960990922     -1.20360009480645      1.30731926843862
  H   -0.13416251022601      0.94845389750093      1.59113499986955
  C   0.56967103675777     -0.98620070271319     -1.19428535976235
  H   -0.05614441688173     -1.84594863873328     -0.95882529351357
  H   1.51904492341667     -1.33990911714325     -1.59617931682750
  H   0.06729855616848     -0.37889349028415     -1.95383306174461
  N   1.84111128778188      0.84780910196752     -0.28682364570859
  H   1.52913845956192      1.40730487000782     -1.07292703695266
  H   2.01980511512350      1.45854619247782      0.50235138510813
  C   -1.55362219704631     -0.55741658878531      0.98983698121123
  H   -1.16632156180103     -1.35468224336792      1.62391616412530
  H   -2.36418123176384     -0.05518041721491      1.52129964729040
  H   -1.96799656572458     -0.99287218643177      0.07980491691817
  C   -0.94772850430143      1.47634279133499     -0.24603723790548
  N   -1.33937535315804      2.27689899557157     -1.01131841981773
