17
Coordinates from ORCA-job run
  C   0.62858272344904     -0.08901755418167     -0.28095378291376
  C   -0.75867911781421     -0.02018235678154      0.38860679301162
  Cl  1.69309281741237      1.18966963854824      0.52014385324137
  H   -1.32111280292783     -0.85369823726022     -0.05051672288324
  C   1.30154363107988     -1.42688777355177     -0.03858711917653
  H   1.42313561835425     -1.61685431498221      1.02726317865701
  H   0.69501664123814     -2.21825598062802     -0.48620706445734
  H   2.29127012009342     -1.43617018549170     -0.50037776635218
  N   0.47922880413107      0.13626210185861     -1.67872117297166
  H   0.19906466885845      1.08893423414206     -1.87486137612233
  H   1.35281200697541     -0.03882068777030     -2.16056949301018
  C   -1.53057996739811      1.27573649156698      0.12873905459932
  H   -1.75612658163739      1.37523087851692     -0.93416186415181
  H   -0.96035461860175      2.14164388298682      0.46647746559366
  H   -2.47909870081701      1.25662824939981      0.66758102424937
  C   -0.65510284328763     -0.27619627135127      1.82625472600353
  N   -0.60369239910811     -0.48802211502073      2.97989026668316
