17
Coordinates from ORCA-job run
  C   0.64869879022941      0.11396274348476     -0.19554689380254
  C   -0.80324147565946     -0.12302648668033      0.27534549796534
  Cl  1.46331846995590      1.22575744179839      0.95537311004893
  H   -1.26107375441930     -0.74996986205981     -0.50335888155352
  C   1.45015044464600     -1.18080570271313     -0.22770676178106
  H   0.96274808981696     -1.89141016520055     -0.90372027692343
  H   2.45606550689750     -0.97977832467065     -0.60144458277130
  H   1.53015423798514     -1.63601845157083      0.75998851328378
  N   0.58238052049966      0.80421398757598     -1.47386303785891
  H   1.50441580180394      1.14628477708366     -1.72064545590974
  H   0.29914089114477      0.13996621916305     -2.18843821787895
  C   -1.63203332012749      1.15504169199604      0.42218905576178
  H   -1.53980733080629      1.74809786330658     -0.48623612693513
  H   -1.28141084876243      1.74448004155007      1.26876748224909
  H   -2.68008942150069      0.89912965085463      0.58869291930400
  C   -0.82928050270458     -0.90206490693977      1.51469674649126
  N   -0.86913609899904     -1.51386051697808      2.51590691031039
