17
Coordinates from ORCA-job run
  C   0.87423535192277     -0.07947979169733      0.02628249904914
  C   -0.43709237226093      0.14286798099680      0.83321832045850
  Cl  2.20492419293240     -0.01807307018182      1.24715452020475
  H   -0.43561905693264     -0.55733560018170      1.67528237824302
  C   0.89938481517072     -1.45058889472747     -0.62506353988001
  H   1.89172418179743     -1.62325671263523     -1.04035652002663
  H   0.17156699487194     -1.50198583144199     -1.43891685641500
  H   0.67450622759854     -2.23316057556811      0.10167890614296
  N   1.16710003264973      0.92069564945642     -0.96362009146330
  H   1.13525836278066      1.85595517652082     -0.57403973808197
  H   0.52886866517515      0.85249402171748     -1.74656590545117
  C   -1.70263579550227     -0.06924207454126     -0.00474546489074
  H   -1.69758204150547      0.56881768359337     -0.89104989723168
  H   -2.58612269511840      0.18691756124089      0.58222774472382
  H   -1.79342717502258     -1.11056857058601     -0.31473416773528
  C   -0.43871504988065      1.50167642034895      1.37907263108800
  N   -0.45737463867640      2.61426662768620      1.75417518126560
