17
Coordinates from ORCA-job run
  C   0.63352870729455      0.11074604376461     -0.24164077035354
  C   -0.78524107760024     -0.11167314016975      0.32697870964686
  Cl  1.40565026894209      1.47833675736172      0.62937353960119
  H   -1.22399783936003     -0.90614730411453     -0.29376398759814
  C   1.51835405747983     -1.11382667238547     -0.04849231185283
  H   1.05995004532901     -1.97418530707683     -0.54801342861011
  H   2.49703792919704     -0.93225350329220     -0.49719636743123
  H   1.65771743585116     -1.35467626749677      1.00604923394954
  N   0.48438224398820      0.52422025853677     -1.62799219964103
  H   0.22131467968222     -0.28536083173311     -2.18259090487317
  H   1.37507439209045      0.85979820662425     -1.97760025502772
  C   -1.69127117477790      1.11932802267664      0.25446460226454
  H   -1.35791191241574      1.88344897626291      0.95602251004868
  H   -1.66144367121492      1.52650596726761     -0.75497395781149
  H   -2.71581264815316      0.83995288421350      0.50755966280444
  C   -0.72378935507657     -0.63013060684692      1.69454158808412
  N   -0.69254208125598     -1.03508348359243      2.79627433679987
