17
Coordinates from ORCA-job run
  C   0.62919091945152     -0.01374665195069     -0.29370437274714
  C   -0.73984080677492     -0.10822988719643      0.40933881383461
  Cl  1.52253456047294      1.43236083030575      0.42766005145315
  H   -1.18967445530811     -1.03011715438161      0.01982517743615
  C   1.48597550678826     -1.23467273949298     -0.01645603560450
  H   2.45690807304945     -1.12866921900629     -0.50545502246559
  H   0.98458518598546     -2.12085110427138     -0.41400288766541
  H   1.65653179300355     -1.35864171549005      1.05251269394876
  N   0.42071203941263      0.12891359954544     -1.69470435204428
  H   0.00658558767286      1.02451304870433     -1.92049076955667
  H   1.30006294520956      0.05636224569948     -2.19221909045887
  C   -1.68990390167175      1.05596133371820      0.11767955134341
  H   -2.61378765661751      0.93162881835429      0.68467771471319
  H   -1.95141916833485      1.07437917701589     -0.94153490668692
  H   -1.23734892785476      2.00664048857202      0.40165047571525
  C   -0.57219156026533     -0.28393772168869      1.85298384860422
  N   -0.46892013421897     -0.43089334843729      3.01323911018064
