17
Coordinates from ORCA-job run
  C   0.70284472583372     -0.01779347347940     -0.29915352422215
  C   -0.68316978431712     -0.02006870708059      0.40542092540496
  Cl  1.64609568941696      1.36865824363174      0.35348197645309
  H   -1.20572937821434     -0.89865722463398      0.00177572794184
  C   1.46483639969701     -1.29707791232126     -0.00342812588220
  H   0.90140944380975     -2.15739225082424     -0.38089052206993
  H   1.62377292196131     -1.42624217429475      1.06698914476511
  H   2.42842537198668     -1.25815710215582     -0.51082662428604
  N   0.63238222706919      0.16025385310775     -1.72969773475599
  H   0.17428678943092      1.02739047820679     -1.97912380979242
  H   0.14175924311556     -0.61739151100582     -2.15717779260264
  C   -1.54386301491597      1.21754195604988      0.14313274641729
  H   -1.05214825283985      2.11683637420485      0.51381564616979
  H   -2.50489889805153      1.11543318509146      0.64983194527919
  H   -1.74059647138285      1.33030016742197     -0.92418259081388
  C   -0.54104091995908     -0.23760099259030      1.84594014481617
  N   -0.44336609264035     -0.40603290932828      3.00409246717782
