17
Coordinates from ORCA-job run
  C   0.87496037911098     -0.07589291171447     -0.00279012538825
  C   -0.40880116290105      0.14621157648364      0.84698296935970
  Cl  2.24640979485181     -0.00355054374880      1.17197265829249
  H   -0.37645129775736     -0.54988625860979      1.69188459010904
  C   0.88298893026206     -1.45073105185776     -0.64681935297655
  H   0.68782157902886     -2.22975108910659      0.09220215991262
  H   1.86073123310617     -1.62153745663542     -1.09625540894820
  H   0.12656401729481     -1.51047149859014     -1.43358030696644
  N   1.13010465392591      0.91943869092089     -1.00735247716214
  H   0.47100285329706      0.84060563935141     -1.77148111468072
  H   1.10344860298311      1.85736539530890     -0.62399214783570
  C   -1.70119889983546     -0.07395376931849      0.05300781133019
  H   -2.56525247876893      0.18556191646633      0.66683887515326
  H   -1.72608836062534      0.55753375100116     -0.83771214028923
  H   -1.80067730766256     -1.11767453952706     -0.24613938851421
  C   -0.39761506311126      1.50727262599869      1.38660412546096
  N   -0.40894747319882      2.62145952357749      1.75762927314318
