12
Coordinates from ORCA-job run
  C   -0.58972074274961     -0.35110281001637      0.10884145390003
  C   0.61953933497496      0.30751683424429      0.15412549910270
  N   -1.26236795850543     -0.64033806333898     -1.14378438293346
  O   -2.35365090647302     -1.19467303280960     -1.08137840959331
  O   -0.68838439488832     -0.31384154964872     -2.18979398747693
  C   -1.28249498532306     -0.72976936636358      1.28908097975157
  N   -1.83310004898388     -1.03233378332381      2.28425235748883
  C   1.16819784819564      0.56104890817757      1.46040325280917
  N   1.64383277638436      0.79580605458234      2.51117313526810
  N   1.39563351409413      0.68391942689910     -0.87999164243624
  H   2.17620534158571      1.29436449907551     -0.70392982280291
  H   1.00631022168853      0.62040288252225     -1.80899843307755
