12
Coordinates from ORCA-job run
  C   -0.57394555257758     -0.37176117469805      0.12001448733240
  C   0.47814237855170      0.51690752349266      0.08457432573484
  N   -0.75329796067422     -1.39381130348862     -0.89460655655247
  O   0.04739732549777     -1.41090268206228     -1.83713486505810
  O   -1.68972532551791     -2.17091930534065     -0.75062343260587
  C   -1.51262698147998     -0.38239812343117      1.18539448304644
  N   -2.27753266321181     -0.36898833952883      2.07951600738824
  C   0.55984820628822      1.46370304308204      1.16555017089591
  N   0.65998643685840      2.25206127225946      2.03372822794444
  N   1.40593088802715      0.66244261903151     -0.88093957429569
  H   2.20755114385205      1.24336619749816     -0.69898712180106
  H   1.44827210438623     -0.03869972681423     -1.60548615202908
