12
Coordinates from ORCA-job run
  C   -0.61385532028192     -0.32325209329793      0.10657367406788
  C   0.60651043928044      0.26178252346416     -0.10582577149620
  N   -1.53107235802838     -0.68570299842973     -0.96646017048366
  O   -1.14562406192499     -0.55530247161931     -2.12280196484888
  O   -2.63125472352619     -1.09798280691092     -0.60786133015480
  C   -1.04877260664763     -0.56834073396289      1.43353281010962
  N   -1.27958805161904     -0.70707773749870      2.58035633906856
  C   1.11269128980569      0.58326175324233     -1.41282708659179
  N   1.67225773463201      0.92358674891033     -2.39013653372144
  N   1.47280978040344      0.53294611524012      0.90442979423901
  H   2.24019424310568      1.15861502820028      0.72125974604528
  H   1.14470363480091      0.47646667266224      1.85776049376644
