12
Coordinates from ORCA-job run
  C   -0.56684519077917     -0.35490888322387      0.19001573711943
  C   0.38528830486151      0.55295534901067     -0.21886599728925
  N   -0.26477816625911     -1.76413358867080      0.35884834641155
  O   -1.16030890260928     -2.48416975419270      0.78468949660191
  O   0.87330217372482     -2.14491699766209      0.05896965502454
  C   -1.88459281283789      0.04421581012286      0.53718321028188
  N   -2.97090011835470      0.40275022362180      0.81378366137562
  C   -0.02952432894754      1.92801002888548     -0.31160345000041
  N   -0.32521250194029      3.06416485291556     -0.39499331202215
  N   1.64803921718384      0.30441090229456     -0.61579310222660
  H   2.01243046074240     -0.62576467153752     -0.47184321345707
  H   2.28110186521540      1.07838672843605     -0.73039103181945
