12
Coordinates from ORCA-job run
  C   -0.65664030793734     -0.20442518276604      0.13721138970244
  C   0.63930691548781      0.15868418963124     -0.11923731329091
  N   -1.52038888018425     -0.85403705811847     -0.84090001030197
  O   -1.04290633199024     -1.13598987739215     -1.93410373259939
  O   -2.67345796342457     -1.06565805828622     -0.47399853249603
  C   -1.22162574426877      0.07096441124285      1.40805754166603
  N   -1.55962494407245      0.36447136826572      2.49770537216578
  C   1.28507676612226     -0.05727009434641     -1.38573355357771
  N   1.96104230325939     -0.13599266831210     -2.34569285994186
  N   1.44753523204313      0.70023407182285      0.82781057099160
  H   2.30222955569200      1.14229239074057      0.53203371664035
  H   1.04045339927302      1.01672650751815      1.69584741104168
