12
Coordinates from ORCA-job run
  C   -0.62494789932097     -0.26506612983644      0.16211014235870
  C   0.61769012875480      0.21927342732452     -0.15014306558518
  N   -1.64488329596734     -0.56267264889463     -0.83722179240965
  O   -2.70451856420091     -1.00078852835670     -0.39574964597784
  O   -1.37954340184592     -0.35935070336262     -2.01602165618500
  C   -0.98068474355935     -0.47322785204474      1.51798356455051
  N   -1.15014983505309     -0.59326063989324      2.67784762101690
  C   1.04570110046730      0.46830096999368     -1.50073893214426
  N   1.54169644555116      0.72775411746573     -2.53492587489221
  N   1.58257648583049      0.42721476430278      0.78386200256198
  H   2.37286796947946      0.99846251706525      0.53268282435043
  H   1.32419560986439      0.41236070623641      1.76031481235561
