12
Coordinates from ORCA-job run
  C   -0.59351484909958     -0.24709537156629      0.27108166716573
  C   0.68575800664642      0.01571909885258     -0.17027285672445
  N   -1.72290066472063      0.57852295113561     -0.11011025443826
  O   -2.80703894484017      0.31933881809972      0.39915309466382
  O   -1.51858540550312      1.48678414230478     -0.92427059351771
  C   -0.86585017158598     -1.29259999811292      1.19254813214678
  N   -1.06072456137992     -2.17511292079810      1.94606933555431
  C   1.72981872496535     -0.84340065810381      0.32422135598096
  N   2.61526609205204     -1.51751030767642      0.70706995626651
  N   1.07877726323021      0.94701692800274     -1.05730993127247
  H   2.06076782877691      1.10883867960732     -1.20157358953162
  H   0.39722668145846      1.61949863825479     -1.37660631629360
