12
Coordinates from ORCA-job run
  C   -0.61838711632344     -0.32704874413928     -0.03138405376248
  C   0.58583383869788      0.32569842307813     -0.01450962942933
  N   -1.87948239907526      0.29753220407246      0.34869646588039
  O   -1.87218370353447      1.49350879616908      0.61760453804005
  O   -2.85725497525916     -0.44589029593577      0.36492429241362
  C   -0.66894276176453     -1.69222428435008     -0.41098223637574
  N   -0.56651373412424     -2.81746058052045     -0.74408968429393
  C   0.73446493922613      1.69791748079979      0.38893573383930
  N   1.03849276852726      2.79052268369741      0.70189962943981
  N   1.73896545819546     -0.25467554818601     -0.43601192875225
  H   1.75448224343291     -1.25178632877169     -0.59452754991139
  H   2.61152544200146      0.18290619408641     -0.18955557708803
