12
Coordinates from ORCA-job run
  C   -0.64066545910912     -0.23363600192874      0.15846009042654
  C   0.59577954270104      0.26187614907686     -0.16157524190266
  N   -1.52217302515507     -0.88630676857222     -0.80150189964401
  O   -1.15471686759617     -0.95268753513724     -1.96897225539100
  O   -2.57671624828776     -1.32038200227389     -0.34479654420126
  C   -1.10648616623506     -0.14033876672886      1.49442646633528
  N   -1.36585438033586      0.00278671188249      2.63456093898478
  C   1.15988447227040      0.18631741114838     -1.48218321661854
  N   1.77170269823713      0.19753852158380     -2.48700208875019
  N   1.37160388243344      0.92612018644307      0.73353512694795
  H   2.34457272773838      1.06182714482934      0.51344629137258
  H   1.12206882333866      0.89788494967703      1.71160233244053
