12
Coordinates from ORCA-job run
  C   -0.59554460552224     -0.23001535530337      0.27442674651089
  C   0.69969604641888      0.05958322809774     -0.09516797478234
  N   -1.72851335744069      0.51405840525373     -0.24276286198430
  O   -1.49204743382238      1.46391855112326     -0.99915532061648
  O   -2.84603753411973      0.15205231523507      0.10706473750190
  C   -0.90553724765058     -1.31419468936334      1.13719867202152
  N   -1.13319349448150     -2.21774046341444      1.85616850580358
  C   1.73293057322942     -0.77243423565263      0.46333039568513
  N   2.60669622795769     -1.43370024454420      0.89296574551493
  N   1.13195019757399      1.07659516329475     -0.86437480111905
  H   0.44084009317438      1.62497393138038     -1.35448982519482
  H   2.08876053468273      1.07790339389304     -1.17620401934095
