12
Coordinates from ORCA-job run
  C   -0.60697599102250     -0.21299496156986      0.26509274385192
  C   0.70240876732546      0.05503959114591     -0.07034208498161
  N   -1.71765004474180      0.49653756639272     -0.34108444487828
  O   -2.84832854336391      0.16206637834665     -0.00688287930000
  O   -1.45039959637781      1.39338836397549     -1.14990982387047
  C   -0.95071097802240     -1.24796190544899      1.17444447749808
  N   -1.20399847081109     -2.11193751929564      1.93227585097761
  C   1.71179816610581     -0.73758769512741      0.58153379667689
  N   2.56730031733541     -1.36840043209460      1.08695365184090
  N   1.16562260310581      1.02268513305218     -0.88375374394192
  H   2.13545343569841      1.01047277644479     -1.15197609769002
  H   0.49548033476862      1.53769270417876     -1.43535144618310
