12
Coordinates from ORCA-job run
  C   -0.68759607449498     -0.08034153183658      0.06043565988913
  C   0.61170517620559      0.28972678588300     -0.20943539476630
  N   -1.00885721537814     -1.31499592545371      0.75144601766388
  O   -0.06965311603504     -2.05634613652363      1.06491383530930
  O   -2.19212197801899     -1.54262993217191      0.97536477824412
  C   -1.78928432524628      0.75263305429566     -0.26901679576700
  N   -2.68280339935165      1.46243490385803     -0.55678373137729
  C   0.79908367657216      1.55094153427346     -0.87756348993871
  N   0.99537144951535      2.57899050224618     -1.41594972661093
  N   1.73557844917935     -0.41965823520386      0.00782955162241
  H   1.66312180663801     -1.25862371174213      0.56417636842791
  H   2.62545555041464      0.03886869237550     -0.09541707269654
