12
Coordinates from ORCA-job run
  C   -0.62250825204304     -0.25140542068471      0.18907042014643
  C   0.51325279841605      0.47796943326081     -0.08726552723028
  N   -0.65965378713932     -1.69613593383953      0.05837151835617
  O   -1.72327035246613     -2.25483309538221      0.29926326814966
  O   0.38447436094347     -2.26638236256462     -0.27943818156046
  C   -1.84500946913175      0.37326945631092      0.55194070892984
  N   -2.84467917880081      0.91557507893472      0.85409539899747
  C   0.41407386050708      1.90829940770695      0.04252266753523
  N   0.37918719326509      3.08283628970968      0.11663737694716
  N   1.73437366436052      0.01511729059510     -0.41138800625056
  H   2.43720683361625      0.66462034242022     -0.72257421664966
  H   1.83355232847259     -0.96893048646735     -0.61123542737102
