12
Coordinates from ORCA-job run
  C   -0.67165202702003     -0.15463103371309      0.12335348273175
  C   0.65442755748735      0.10994262498036     -0.09643047543677
  N   -1.50437717640948     -0.92139072940476     -0.79467341587973
  O   -2.69346789311865     -0.99822844523597     -0.49580949614202
  O   -0.96833863110007     -1.42459736967711     -1.77562862586261
  C   -1.30226456184384      0.35286092183272      1.28754839332761
  N   -1.69507949851720      0.83169432013437      2.28958091954366
  C   1.36517279712197     -0.33471796412294     -1.26470796881055
  N   2.08762927430586     -0.59791197145664     -2.15522983035525
  N   1.42849938012387      0.76752503493519      0.80506594982960
  H   0.98315780663057      1.23917554070517      1.57894214085559
  H   2.31529297233967      1.13127907102268      0.49698892619871
