12
Coordinates from ORCA-job run
  C   -0.59728455781105     -0.24175062473391      0.25757602339319
  C   0.69750837438974      0.03110960128161     -0.12519241345002
  N   -1.72474464488084      0.51563480709349     -0.24755112790531
  O   -2.83381302781035      0.24453866030181      0.19833704907591
  O   -1.49380608990212      1.38126008657900     -1.10124349049962
  C   -0.90429038713773     -1.24376617391645      1.21481802717341
  N   -1.14091961702083     -2.08693374518692      2.00020526271533
  C   1.73092423288970     -0.76760976557443      0.48104396190446
  N   2.60501653555025     -1.39574343443921      0.95664688774731
  N   1.11759073043705      0.91881878607506     -1.04440726621577
  H   2.10318291465627      1.09303603936614     -1.14450164343706
  H   0.44063553663991      1.55040576315381     -1.44473127050184
