12
Coordinates from ORCA-job run
  C   -0.67906959764048     -0.11916778027164      0.11904396283757
  C   0.63795205880510      0.16056703839960     -0.13303978512751
  N   -1.55460494849401     -0.79951090143032     -0.82715319227358
  O   -1.11811634086666     -1.03654772466370     -1.94789300349037
  O   -2.67584570171412     -1.07664798574785     -0.40876709833347
  C   -1.24161619365304      0.23376470134105      1.37198134100903
  N   -1.57797551059604      0.58313431436705      2.44544876706838
  C   1.29887343230251     -0.19539690565035     -1.35953259764054
  N   1.99097746535110     -0.42894665102893     -2.28170731306480
  N   1.41817691989369      0.85536073611686      0.73571329425436
  H   2.41656613989547      0.81934547708549      0.60906927699965
  H   1.08368227671649      1.00404568148272      1.67683634776130
