12
Coordinates from ORCA-job run
  C   -0.62517868235581     -0.29812722070974      0.09893570079165
  C   0.61770790226845      0.23762195829993     -0.10241546396595
  N   -1.58910084373437     -0.51658250057535     -0.97015985781724
  O   -1.22768300733424     -0.31085592586276     -2.12382181644862
  O   -2.70117767978449     -0.89791044856857     -0.61529250934557
  C   -1.03789802700598     -0.63312906639806      1.41324591475557
  N   -1.25456638556839     -0.86856988451293      2.54660391094779
  C   1.10126619853931      0.64709489081397     -1.39214605099310
  N   1.64612413935188      1.04850928070842     -2.35367458976980
  N   1.52765812488519      0.37297307635663      0.89787941544912
  H   2.31459265670313      0.98187346481505      0.74756810558610
  H   1.22825560403533      0.23710237563340      1.85327724081006
