12
Coordinates from ORCA-job run
  C   -0.66473527409479     -0.20655362063425      0.09896287676656
  C   0.63752682943511      0.16365550242876     -0.11527503934543
  N   -1.77250546391602      0.23125832681701     -0.73679365497895
  O   -2.89256809644490     -0.08234481547695     -0.34047510763601
  O   -1.51254506583878      0.86733339914743     -1.75210792741956
  C   -0.99163221450694     -0.93885439274237      1.26865097386815
  N   -1.08533939089517     -1.50417801002992      2.29847284754342
  C   1.06412047729864      0.91012904334740     -1.26760115401790
  N   1.55540866558080      1.48977494334166     -2.16514058222864
  N   1.63362018244676     -0.11992805681283      0.76069342675292
  H   1.44459047318891     -0.76219502862575      1.51722055350743
  H   2.58305887774637     -0.04809729076018      0.43339278718801
