12
Coordinates from ORCA-job run
  C   -0.61813394688813     -0.21835324721365      0.23120975336820
  C   0.70406185591888      0.07632120717245     -0.01980657277432
  N   -1.70045492877457      0.41542882763695     -0.49834313678055
  O   -1.39984777633839      1.27487454835775     -1.33558817728574
  O   -2.84238219840117      0.05862522077557     -0.23259089041576
  C   -1.00058636980214     -1.20731266028854      1.17574076152003
  N   -1.28779603868565     -2.02983478745744      1.96697941827577
  C   1.68429002853481     -0.64422694861428      0.74931853126783
  N   2.51772743995514     -1.21705617953203      1.35143964585664
  N   1.19891558531285      1.01294052463191     -0.85144609290122
  H   2.18480711387386      1.00860084389467     -1.05394980200798
  H   0.55739923529452      1.46799265063662     -1.48396343812290
