12
Coordinates from ORCA-job run
  C   -0.64670659912969     -0.22880925659442      0.13717358306798
  C   0.63645785242777      0.17992622120967     -0.11510939472515
  N   -1.47794800479990     -0.92092134451563     -0.83893256201024
  O   -2.64779860554897     -1.09985029382919     -0.50963438012182
  O   -0.95966744476081     -1.26764563802587     -1.89448841645312
  C   -1.23186079542978      0.04010756506558      1.40040839778387
  N   -1.59300966682827      0.32545894270391      2.48478231590943
  C   1.29239342397058     -0.01736265399810     -1.37927641028650
  N   1.96090764286030     -0.07743823946742     -2.34535641352748
  N   1.41741982945567      0.76298291654536      0.82955279932976
  H   0.99712874246696      1.06383464086013      1.69685967659318
  H   2.25368362531615      1.23971714004598      0.53502080444007
