12
Coordinates from ORCA-job run
  C   -0.63323580871680     -0.26597131678623      0.14211223164685
  C   0.61849584976285      0.22511937905211     -0.12371836645949
  N   -1.43944519274022     -0.97978124297435     -0.83814585016283
  O   -0.92846556522798     -1.24537206569826     -1.92085251376911
  O   -2.58120848858272     -1.26476435096478     -0.48473609019571
  C   -1.20084286167794     -0.07514072905183      1.42721994239711
  N   -1.55046409582713      0.14774659846806      2.52975550065932
  C   1.25602613900977      0.10826248531808     -1.40757752110402
  N   1.90649820556001      0.11757963158942     -2.38768311443984
  N   1.38755854038690      0.82074828568553      0.82242585545349
  H   2.18664376151259      1.35627854116055      0.52568761366192
  H   0.97843951654064      1.05629478420169      1.71451231231229
