12
Coordinates from ORCA-job run
  C   -0.65709684522158     -0.16789040739810      0.16586382641387
  C   0.61724164872432      0.20215177347312     -0.17404691247482
  N   -1.54394310296910     -0.91097977969051     -0.72016380524817
  O   -1.15636398089460     -1.14781566519034     -1.85889783271777
  O   -2.62363051040559     -1.24139873733504     -0.23561524582522
  C   -1.16631013843696      0.16502043064775      1.44634780358868
  N   -1.46030197994868      0.50014046366021      2.53681868375822
  C   1.22039705356764     -0.12709218917813     -1.43742473979632
  N   1.86085386481648     -0.33111059951610     -2.40266857657319
  N   1.40373475524955      0.95283244619180      0.63843443904436
  H   2.39102732639767      0.99883975837786      0.44809830182065
  H   1.11339190912086      1.10730250595746      1.59325405800971
