12
Coordinates from ORCA-job run
  C   -0.61523888944529     -0.25461966124597      0.20226414444014
  C   0.69618165823192      0.00888978655573     -0.12833997667275
  N   -1.69042007406654      0.65552632376276     -0.14116566477153
  O   -1.40812577632560      1.64272104026772     -0.83087891243280
  O   -2.81020246982328      0.38573359439199      0.27759445272877
  C   -0.97935104714611     -1.38336191756333      0.98259769224449
  N   -1.24935118658494     -2.33367134933453      1.62209390846227
  C   1.67921758857831     -0.94578885614142      0.31398557447597
  N   2.50485357133033     -1.71008557134967      0.66017971981448
  N   1.17201684746243      1.02180557190107     -0.87481529323311
  H   2.16664176370370      1.15721477146058     -0.93792152215915
  H   0.53577801408506      1.75663626729509     -1.14459412289678
