12
Coordinates from ORCA-job run
  C   -0.57243312008029     -0.38860900205250      0.06236042551480
  C   0.68993604450421      0.16158053157915      0.01985729403553
  N   -1.73721490483837      0.31674881077430     -0.43900115678524
  O   -1.55435795138977      1.42098542650924     -0.96527684151295
  O   -2.82517203717149     -0.23329341518990     -0.31294978165437
  C   -0.82058243541766     -1.65370254262399      0.65727039522701
  N   -0.99673232244530     -2.70798911377069      1.14962535415205
  C   1.75749462982281     -0.62711035162762      0.57610337763079
  N   2.65659631995134     -1.23820134445782      1.02723803064851
  N   1.06710403854183      1.32272588799986     -0.54865386679887
  H   0.34216656732137      1.95250686654742     -0.85910252426114
  H   1.99219517120133      1.67435824631254     -0.36547070619612
