12
Coordinates from ORCA-job run
  C   -0.62736193812202     -0.22371036604906      0.19795653704141
  C   0.70730779839496      0.03969476166191     -0.01942023484113
  N   -1.67770579884210      0.59406178558937     -0.37929939679777
  O   -1.33544424041185      1.57652692089628     -1.04829884672194
  O   -2.83596741146986      0.25773036291431     -0.16157061802658
  C   -1.05756929090890     -1.34910939132181      0.94934677543309
  N   -1.38477584212720     -2.28826814166024      1.57859185313297
  C   1.65114386092886     -0.86351418486295      0.58491029461118
  N   2.45505443622294     -1.58278636498077      1.05572827978089
  N   1.24796503964997      1.08688526411677     -0.67120370260551
  H   0.62823495919981      1.68567157909811     -1.19667240082334
  H   2.23011842748537      1.06681777459808     -0.89006854018327
