12
Coordinates from ORCA-job run
  C   -0.59008502353652     -0.32933752279039      0.16868246060765
  C   0.59834189042799      0.26674962323913     -0.16073837193194
  N   -1.54127232170405     -0.83744683304922     -0.81128170008809
  O   -1.22482632576333     -0.79405123250711     -1.99517243232093
  O   -2.59158388035436     -1.28098888849290     -0.35397382493238
  C   -0.96218758811241     -0.44315514997871      1.53205703343269
  N   -1.16181326347028     -0.46601526415275      2.69300842348475
  C   1.02413413358297      0.47078253533241     -1.51836311869432
  N   1.50830207808656      0.74084371021903     -2.55594382112829
  N   1.50119255608544      0.66853950742116      0.77100832328764
  H   2.21219477687735      1.32266956012287      0.48739061908164
  H   1.22760296788063      0.68140995463647      1.74332640920159
