12
Coordinates from ORCA-job run
  C   -0.61469225958341     -0.25592593695734      0.19905362523799
  C   0.70493680693639      0.05864568468412     -0.04117632067297
  N   -1.70086529893871      0.36966629022239     -0.53147253568239
  O   -2.84341475327659      0.05488131350846     -0.21913134662585
  O   -1.40243067295140      1.17450437783389     -1.42211818824825
  C   -0.99513723234383     -1.16483137656719      1.22151032028080
  N   -1.28058178719606     -1.92377317776541      2.07447464435608
  C   1.68687453323001     -0.60875374942640      0.77250842777806
  N   2.52055360546868     -1.12776020488070      1.42127646187781
  N   1.20173469586705      0.86475651734648     -0.99878452793357
  H   2.17264039352643      1.12641107678917     -0.95623936773631
  H   0.55038196926145      1.43117918521251     -1.52190119263140
