12
Coordinates from ORCA-job run
  C   -0.63981599695235     -0.21272222662186      0.16983007626020
  C   0.69153892726304      0.13068450660642      0.08145292286921
  N   -1.59817840676036      0.14893689072942     -0.85791026088522
  O   -1.18873735037604      0.82531121844015     -1.80914109661510
  O   -2.75194280526441     -0.23774104027370     -0.71220206581536
  C   -1.14235282267919     -1.00095841912393      1.23873262488797
  N   -1.53087136821845     -1.65305272526156      2.13810369803726
  C   1.54721503934715     -0.31766712864774      1.14851998520093
  N   2.28212184242439     -0.67373989633524      1.99601342266627
  N   1.28670766381255      0.89995623073786     -0.84969246576070
  H   2.29202100962109      0.94007929303629     -0.87589035741224
  H   0.75129426778259      1.15091329671388     -1.66781648343321
