12
Coordinates from ORCA-job run
  C   -0.60037018502055     -0.31602015915034      0.14773178277734
  C   0.70189783658961      0.08361110203916     -0.05887173674963
  N   -1.72980995858354      0.47577192122801     -0.30306744610771
  O   -1.48662649015777      1.51632494416059     -0.92608859937110
  O   -2.85099243609298      0.05751936999322     -0.03843063809703
  C   -0.91804518758574     -1.49737975729791      0.86880333444383
  N   -1.15310265722604     -2.48158110715593      1.46981004709702
  C   1.73185545857934     -0.77623115245324      0.46194883481974
  N   2.60296997154414     -1.44866426147039      0.87938806266852
  N   1.13853606828821      1.14888118200582     -0.75729839618329
  H   2.10915970210899      1.40676009137663     -0.69203246656294
  H   0.45552787755634      1.83100782672438     -1.05189277873476
