12
Coordinates from ORCA-job run
  C   -0.60786761392791     -0.27884510296869      0.18743954501327
  C   0.70136842113401      0.10370201670023     -0.00660855204752
  N   -1.71742845792368      0.44039001269881     -0.40998332629603
  O   -1.45353402541457      1.45154691356848     -1.07170351953563
  O   -2.84407038497881     -0.00041314517012     -0.21420888809587
  C   -0.94789584605197     -1.44044824494757      0.93003442934336
  N   -1.20067147395828     -2.40636753926091      1.55300835281757
  C   1.71126877542743     -0.71212076291049      0.61471443331940
  N   2.56701208940710     -1.35739275037006      1.10111811554527
  N   1.15677752404241      1.19609546914036     -0.64912689454792
  H   2.14052006841081      1.26537512729483     -0.84990729720477
  H   0.49452092383346      1.73747800622513     -1.18477639831112
