12
Coordinates from ORCA-job run
  C   -0.62023917370989     -0.25643324937870      0.17974965628732
  C   0.70453910305826      0.02655914966443     -0.07200890935984
  N   -1.69266659875212      0.58816829824404     -0.30893754121642
  O   -1.38431554468689      1.54688532952287     -1.02674727976143
  O   -2.83533472689958      0.29368469414751      0.02099481469412
  C   -1.01187097367403     -1.35416996589550      0.99091498567684
  N   -1.31162625939934     -2.27469693186079      1.65938067669841
  C   1.67634972753711     -0.86787150057435      0.50185678219074
  N   2.49660300305622     -1.57875537132636      0.95688492071171
  N   1.20739018175245      1.00684177862028     -0.84261934270230
  H   0.57259062095405      1.70016898309832     -1.20922808497121
  H   2.19958064076378      1.17061878573825     -0.84924067824794
