12
Coordinates from ORCA-job run
  C   -0.60515097924661     -0.22790958273978      0.25367383835511
  C   0.70284595800720      0.06437803552171     -0.06556670527017
  N   -1.72022097786492      0.49233235107032     -0.33171971880460
  O   -1.45843760743503      1.41955998608467     -1.10746650620614
  O   -2.84904098445432      0.13494895502494     -0.01518257502169
  C   -0.94382305782315     -1.29551900758587      1.12651982925142
  N   -1.19463453391770     -2.18581861866381      1.85421711372577
  C   1.71616650863688     -0.74143392733999      0.56347477119970
  N   2.57245408697054     -1.38186585864806      1.05513657200958
  N   1.16087992171586      1.06545441442035     -0.84093799496635
  H   0.48873348188353      1.59026438410301     -1.38071813117246
  H   2.13022818352771      1.06460886875249     -1.11143049310017
