12
Coordinates from ORCA-job run
  C   -0.60587992079895     -0.30296625955212      0.15488959535512
  C   0.70307703760645      0.08608864874069     -0.02764850246363
  N   -1.71051642975796      0.38545256664356     -0.48638141693928
  O   -1.43647422988958      1.31727247385497     -1.25237001547977
  O   -2.84293986735256     -0.00602173998135     -0.22872872042003
  C   -0.95953407242441     -1.35730197308468      1.03779743700826
  N   -1.22314380402984     -2.23673937325426      1.77416597412314
  C   1.70431935814887     -0.65633907576805      0.69202840961163
  N   2.55261214775599     -1.23191937975722      1.27032839120323
  N   1.17506073770667      1.03530847479294     -0.85806130532800
  H   2.13677407208190      1.31957683320817     -0.77308890621002
  H   0.50664497095343      1.64758880415735     -1.30193094046064
