12
Coordinates from ORCA-job run
  C   -0.62083098805554     -0.28673292937504      0.12238402823303
  C   0.70516521228031      0.04148873260772     -0.05729560033210
  N   -1.69424165341282      0.62209473449719     -0.23338937027356
  O   -1.38208000158355      1.70271618243541     -0.74807748785565
  O   -2.84090593306316      0.25567994833966     -0.00312097964029
  C   -1.01562452361491     -1.51243812536871      0.72093806980059
  N   -1.31163748085312     -2.53845083170073      1.21546970730234
  C   1.67497766628362     -0.93561691715835      0.36269157653686
  N   2.49896198754458     -1.70556486102303      0.69975751059026
  N   1.21195129856408      1.14057632128362     -0.64753216322723
  H   2.19866764168171      1.32253013274934     -0.56900240588522
  H   0.57659677422880      1.89471761271293     -0.86282288524903
