12
Coordinates from ORCA-job run
  C   -0.64071806735353     -0.23514003644330      0.15433666059815
  C   0.59468136238262      0.26693015076481     -0.15902863732324
  N   -1.50234210657602     -0.91540653048865     -0.80467319080010
  O   -1.13898694648816     -0.96120456635751     -1.97451225977704
  O   -2.53760454218970     -1.39064928345532     -0.34500148083891
  C   -1.12354505711910     -0.12505644091712      1.48299992918272
  N   -1.39796040477244      0.03691348338606      2.61708756901933
  C   1.17633074554099      0.16955010650192     -1.47044122021217
  N   1.80238964739849      0.16239675639822     -2.46655153262074
  N   1.35218553734506      0.95679227484274      0.73277466773593
  H   2.32806559960576      1.09195035443018      0.52524262533748
  H   1.08950423222602      0.94292373133798      1.70776686969858
