12
Coordinates from ORCA-job run
  C   -0.62965942786966     -0.29471870321091      0.10315098015131
  C   0.60602307249020      0.26273012639382     -0.10726545922094
  N   -1.69520725916450     -0.28738744280248     -0.89106654119644
  O   -1.48468626819951      0.27636319099638     -1.95864798356998
  O   -2.73068032963314     -0.86240000747425     -0.56355336673010
  C   -0.91067630541607     -0.91370285818473      1.34686267944510
  N   -1.00423106654880     -1.38907854565825      2.42069741238541
  C   0.97606254362627      0.92327107796785     -1.32942503149097
  N   1.43441624063177      1.50458329278016     -2.24376107687193
  N   1.60565175661719      0.18697386652076      0.80571969635076
  H   1.40274377794761     -0.15811481630553      1.73268396555365
  H   2.43024326551863      0.75148081897719      0.68460472519414
