12
Coordinates from ORCA-job run
  C   -0.60088062903983     -0.30908386033882      0.16123632501466
  C   0.70150135059024      0.08006688297984     -0.06333646279255
  N   -1.72976270987904      0.45788287482282     -0.33068363871110
  O   -1.48625164832549      1.46497599021205     -1.00630003076709
  O   -2.85119863026202      0.05388925580381     -0.04567355527424
  C   -0.91832569469809     -1.44976840733152      0.94504463689716
  N   -1.15049595357219     -2.40140061622086      1.59740289732613
  C   1.73087627868562     -0.74978106101928      0.50546930061166
  N   2.60188295594502     -1.39734601812133      0.96077120432142
  N   1.13907405086248      1.10723305963322     -0.81655244549914
  H   0.45556490016964      1.77324688315854     -1.14539477017075
  H   2.10901572952366      1.37008501642154     -0.76098346095616
