12
Coordinates from ORCA-job run
  C   -0.48744121257401     -0.47909164260678      0.15838765317980
  C   0.48214494470659      0.43481449457660     -0.16119715730808
  N   -1.43601785126558     -1.02049255610130     -0.80517848988695
  O   -1.34382955815554     -0.65867012187395     -1.97290634613530
  O   -2.25813725885199     -1.81335171147975     -0.35188470809514
  C   -0.60592452041818     -0.92871288415324      1.49814691837119
  N   -0.58159171619836     -1.21118786662380      2.64147909119544
  C   0.66520411731902      0.96371491850815     -1.48572787800080
  N   0.95021167059149      1.50174821931277     -2.49252026157057
  N   1.39936131864019      0.86954451820618      0.73980813058172
  H   1.26786377671722      0.65760638761018      1.71809812493626
  H   1.94815628948916      1.68307824462494      0.51449492273244
