12
Coordinates from ORCA-job run
  C   -0.60050180101275     -0.30382802659582      0.17472591994270
  C   0.69163583301902      0.15070155934250      0.02855067441110
  N   -1.71067568621779      0.28772132941070     -0.54785249332675
  O   -2.81504789123265     -0.22219102505224     -0.39796695535705
  O   -1.47072543335517      1.26844343059719     -1.26250734352139
  C   -0.91462700603506     -1.42453708129306      0.98809720815535
  N   -1.14646003895360     -2.35232107486245      1.67409653118779
  C   1.71079375119514     -0.54538834613133      0.76914136159749
  N   2.57752770501441     -1.09236241579428      1.34788300870897
  N   1.11736177679009      1.21982139581727     -0.67081809569302
  H   2.10520678675471      1.33798300939263     -0.82200346654580
  H   0.45651200403365      1.67695724516889     -1.28134634955938
