12
Coordinates from ORCA-job run
  C   -0.58834077188942     -0.18033911046087      0.32005776614683
  C   0.68756975753517     -0.02562521853473     -0.17621498357616
  N   -1.65261683653178      0.76030559036874      0.01839898820468
  O   -1.37399589756975      1.73764598106133     -0.68568724734786
  O   -2.75957584676567      0.52173033713709      0.48784496766184
  C   -0.96420622646622     -1.31535291084054      1.08546882406217
  N   -1.24843571279566     -2.26737581072011      1.71635569745240
  C   1.64867596896897     -1.03564135501892      0.18284165074604
  N   2.47050826167060     -1.83031203905270      0.46232737593560
  N   1.17251892537538      1.00431604422660     -0.89391271990524
  H   0.51312751857865      1.69185634829963     -1.23067568215069
  H   2.09477085988972      0.93979214353448     -1.28780463722962
