12
Coordinates from ORCA-job run
  C   -0.62589649374964     -0.27818378786164      0.11707163562045
  C   0.70258574555043      0.07997623149077      0.04765750258043
  N   -1.67541334463615      0.54040298960387     -0.46041329672210
  O   -1.34258931642604      1.60689469434334     -0.99134980105531
  O   -2.82413487288113      0.12078978761401     -0.38011230891666
  C   -1.04394629317606     -1.50115348681086      0.70502684109102
  N   -1.36066039013684     -2.52086399556620      1.19990307575461
  C   1.64931889741029     -0.83229427874776      0.63337857523467
  N   2.45574252519767     -1.55584089906648      1.09324775406463
  N   1.22661150549144      1.22106015118248     -0.43935633432361
  H   0.61469137882058      1.83869943030610     -0.95201873913201
  H   2.22269065853547      1.27951316351234     -0.57103490419610
