10
Coordinates from ORCA-job run
  C   -0.97577610835939     -0.09188525027227     -0.35967583958462
  C   0.21947467259684     -0.23382216495860      0.56609472739848
  F   -2.08810804959396     -0.70679022392979      0.20321531548441
  H   0.40679087772277     -1.29579370065416      0.74225006573193
  H   -0.77964634665519     -0.56809728362907     -1.32519219154619
  H   -1.21955617811232      0.96239173689238     -0.52257769536593
  H   -0.02657734404673      0.21187360522804      1.53290218502686
  N   1.44278821222672      0.38073099109075      0.06474478720693
  H   1.71254869044017     -0.03060516559646     -0.81989720376454
  H   1.30906157378110      1.37299745582918     -0.08386415058735
