10
Coordinates from ORCA-job run
  C   -0.98868904803922     -0.20837872742137     -0.31832608296605
  C   0.23823131405686     -0.27903097458460      0.56637072607555
  F   -1.36738508382891      1.12658866551786     -0.46052186961614
  H   0.51068257352949     -1.32948112992627      0.71155150579860
  H   -1.83522954929718     -0.74990025786682      0.11392565847841
  H   -0.77814860509980     -0.59498430980009     -1.31995553509636
  H   -0.02001374935058      0.12395655956817      1.54972752792420
  N   1.40039799071812      0.44719976206132      0.07122099627377
  H   1.13604498866005      1.40912808427647     -0.10118479010843
  H   1.70410916865117      0.05690232817534     -0.81280813676355
