16
Coordinates from ORCA-job run
  C   -0.76647135109327      0.25432160381755      0.42329749785589
  C   0.39754504365788     -0.74061604411091      0.34839802052773
  Cl  -1.86349731375619     -0.16393207232547      1.74701923897109
  H   -0.04535676038926     -1.73731265945025      0.27328940951132
  N   -1.59715259169698      0.00652865976876     -0.88833621812569
  O   -1.82287297905178      0.99134924183310     -1.58261373260296
  O   -1.92237550227972     -1.14745056098480     -1.13119262179528
  N   -0.34335250663025      1.58379910613278      0.56106192778613
  H   0.18701037434202      1.88864639390540     -0.24495361769228
  H   -1.12437787060043      2.21212622301857      0.69901592548009
  C   1.17026077205586     -0.67043506742619      1.58767233748796
  N   1.81776817295753     -0.65761025567977      2.56661262862904
  C   1.30136045127728     -0.49124555339675     -0.86467392578556
  H   1.81722377360946      0.46740238513148     -0.78722010424845
  H   2.06337140252065     -1.27035286239123     -0.91124016145141
  H   0.72991688507720     -0.52621853784228     -1.79413660454762
