15
Coordinates from ORCA-job run
  C   -1.03179444774675      0.40969597352294      0.12629916986153
  C   0.46028365263298      0.27888509849915     -0.30350149753943
  Cl  -1.31628780147662      1.99722114547598      0.91444589257356
  H   0.66871399722690      1.18598668920018     -0.88860760134085
  C   -1.38901576747880     -0.66018913933081      1.05730509643377
  N   -1.64228360904013     -1.50625572667770      1.83200386718145
  C   -1.87366626794175      0.34032910120278     -1.06976880929099
  N   -2.49232234095458      0.30433780129253     -2.06809623931441
  N   0.54291224184893     -0.94743221126728     -1.07182199415869
  H   0.37735620766269     -0.79571339756364     -2.05786309312035
  H   1.43557665136427     -1.40522046682782     -0.95118506243407
  C   1.38440850147147      0.21532110249277      0.89975521836963
  H   1.21899882763308     -0.71268399754803      1.45247574685809
  H   1.23555968097334      1.05897368767316      1.57290630275325
  H   2.42156047382496      0.23574433985577      0.55665300316752
