15
Coordinates from ORCA-job run
  C   -1.05389995331175     -0.12554499556094      0.20874795093812
  C   0.37860680203693      0.07369641418381     -0.36400596886107
  Cl  -1.05746174078240     -1.44161591709826      1.43210539841032
  H   0.25777871805388      0.85480200420449     -1.12435748036586
  C   -1.96492587526634     -0.49725607543893     -0.87520670423432
  N   -2.69051039289675     -0.75267310921614     -1.76293653850084
  C   -1.53035048547529      1.10263867528470      0.84854959695144
  N   -1.87035406290917      2.11311599228430      1.34276192373285
  N   0.74317072322109     -1.15211425680192     -1.04549665029101
  H   1.36809177825672     -0.96193377629589     -1.81674986122333
  H   1.19998994083581     -1.79624724844998     -0.41201670992199
  C   1.35983730689139      0.55813608427320      0.69771918176663
  H   1.49278387464869     -0.19673052064065      1.47558691088133
  H   1.03764699639918      1.48957120504141      1.16840901420368
  H   2.32859637029802      0.73315552423079      0.22488993651405
