15
Coordinates from ORCA-job run
  C   -1.08814832599926      0.12004062998073     -0.23766583550693
  C   0.44607104234560      0.12015737537077     -0.46837383736934
  Cl  -1.92387590500313     -0.10803402926246     -1.81376519959134
  H   0.63148278130762      0.95693315978107     -1.15921295902406
  C   -1.52305907378189      1.40331783164826      0.31758000096136
  N   -1.82485481539172      2.44747489488118      0.76431565279730
  C   -1.46982317856418     -0.96930181479102      0.66172013995987
  N   -1.77039609593113     -1.81433472214668      1.42047747013665
  N   0.80683578413190     -1.17894063405534     -0.99771963912816
  H   0.62460621403318     -1.24101494278739     -1.99066215836359
  H   1.78765251067237     -1.36622488334401     -0.83803549208409
  C   1.17797127721662      0.36447038377827      0.84286098828802
  H   2.25093938892810      0.43487723962367      0.64701304076547
  H   0.86628848892341      1.29575440181008      1.31762250089833
  H   1.00830990711251     -0.46617489048714      1.53184532726050
