15
Coordinates from ORCA-job run
  C   -1.01625305909232     -0.12770921930171      0.34938393513311
  C   0.36435943723561      0.07593442034888     -0.35122878111014
  Cl  -0.90109241244324     -1.28881350697226      1.70316225035284
  H   0.17343873060126      0.87759011384622     -1.08238116608820
  C   -1.96436544493957     -0.64979851026338     -0.63750155963009
  N   -2.67889350925601     -1.05069367215925     -1.47993157363581
  C   -1.50438959180507      1.15283945783831      0.86673160695425
  N   -1.84481414816535      2.20529523430054      1.26327056992432
  N   0.73921492983939     -1.17932348706269     -0.96295149276733
  H   1.74326550514120     -1.28667631875336     -0.99405977647092
  H   0.36979236000568     -1.26896222307447     -1.90012780665247
  C   1.42426585218051      0.54729600086530      0.62943117831994
  H   2.32230377014888      0.83133948777992      0.07562211307923
  H   1.68162409631894     -0.25465846319284      1.32276204285938
  H   1.09254348423010      1.41634068580078      1.19981845973190
