15
Coordinates from ORCA-job run
  C   -1.05706065987344     -0.09883720331942      0.21318214392546
  C   0.40896801016396      0.07105435632245     -0.29821441197123
  Cl  -1.15665619796878     -1.29421637394765      1.53765319130823
  H   0.34078650347968      0.89742508309381     -1.02367274071493
  C   -1.88458378326726     -0.56312583259116     -0.90261217551399
  N   -2.49295874767651     -0.91794899391184     -1.84318574259892
  C   -1.56527215692383      1.18655864777128      0.69779832985199
  N   -1.91913713684873      2.24249732559600      1.07284096192777
  N   0.81771393551464     -1.18166246304752     -0.89297244239353
  H   1.81410362817957     -1.32221041142534     -0.80288686820142
  H   0.56552998636341     -1.23640854605187     -1.87087178986324
  C   1.34837583050691      0.47857570081453      0.82368787326120
  H   0.97406377911828      1.34417994646882      1.37258040299312
  H   2.31880310338089      0.74468104653824      0.39787028626885
  H   1.48832390585120     -0.34956228231032      1.51980298172063
