15
Coordinates from ORCA-job run
  C   -1.00688474235908      0.37133602487323      0.08367871895704
  C   0.51715414005493      0.33513067932910     -0.30482545851096
  Cl  -1.42047254314466      1.90522656720757      0.91549682021090
  H   0.67369278998029      1.24430660246411     -0.89609408830828
  C   -1.31710680855788     -0.75844332722719      0.95932642060929
  N   -1.49247296252138     -1.69177271076639      1.65185117466857
  C   -1.80736403220777      0.28434129576940     -1.13854786021753
  N   -2.38419302774136      0.21578416555773     -2.16034483004914
  N   0.84868478343335     -0.80423807177941     -1.12058893156261
  H   0.32621605297256     -0.84201586170072     -1.98611760813474
  H   0.74953034390585     -1.67763263291114     -0.61800320971091
  C   1.40320801145610      0.35737009181404      0.92949766167166
  H   1.26945240647364     -0.55471687723157      1.51792559571577
  H   2.44178779668242      0.39938277771985      0.60057707847721
  H   1.19876779157300      1.21594127688142      1.56816851618372
