16

C	0.0	0.0	0.0
C	-0.261386	0.073198	-1.563454
F	1.413509	0.0	0.0
H	0.586594	-0.474264	-1.996746
N	-0.544083	1.030307	0.785832
H	-1.581348	0.846436	0.703167
H	-0.35729	1.93576	0.361019
C	-0.432338	-1.352231	0.517188
H	0.015241	-2.14938	-0.083264
H	-0.091352	-1.436028	1.551033
H	-1.527419	-1.385133	0.472975
C	-0.140086	1.4568	-2.026316
N	0.017922	2.570858	-2.362708
C	-1.457982	-0.563671	-2.143927
N	-2.175101	-1.196846	-2.826853
H	-2.918103	0.0	0.0
