15

C	0.0	0.0	0.0
C	-0.366198	-0.050893	-1.495395
Cl	1.749536	0.0	0.0
H	-1.435904	0.145858	-1.562943
H	0.173694	0.782951	-1.943247
N	-0.787299	1.101817	0.650824
O	-0.743422	2.154674	-0.057412
O	-0.793632	1.118938	1.905014
N	-0.347581	-1.30595	0.734933
O	-1.18288	-2.048312	0.218352
O	0.211137	-1.518925	1.8041
N	0.061755	-1.296084	-2.129733
H	0.13159	-1.134647	-3.1262
H	-0.652146	-1.995434	-1.97068
H	-2.216355	0.0	0.0
