15

C	-0.437523	0.055661	-1.442045
C	0.0	0.0	0.0
F	-1.819068	0.310886	-1.56161
H	1.096393	0.0	0.0
H	0.079216	0.874981	-1.95381
C	-0.17339	-1.19722	-2.164262
N	0.017213	-2.189626	-2.760293
N	-0.445441	-1.240274	0.628031
H	-1.223365	-1.075378	1.253881
H	0.333835	-1.608161	1.163253
C	-0.439916	1.258634	0.735815
H	-1.529098	1.311918	0.837091
H	-0.095381	2.15931	0.218112
H	0.014611	1.257899	1.729411
H	2.873366	0.0	0.0
