15

C	-0.488528	0.028657	-1.440408
C	0.0	0.0	0.0
F	-0.07484	-1.100949	-2.134916
H	1.09594	0.0	0.0
H	-1.589734	0.014425	-1.461067
C	-0.060987	1.223084	-2.19293
N	0.195168	2.189454	-2.807717
N	-0.410059	-1.239886	0.660712
H	-1.283483	-1.591745	0.278327
H	0.311606	-1.928196	0.474025
C	-0.517517	1.211992	0.75386
H	-1.614883	1.229122	0.797925
H	-0.136341	1.155733	1.77405
H	-0.164254	2.146102	0.308435
H	2.91297	0.0	0.0
