15

C	-0.479359	0.028998	-1.439692
C	0.0	0.0	0.0
F	-0.225385	1.252204	-2.05284
H	1.100337	0.0	0.0
H	0.049046	-0.747365	-1.997464
C	-1.935935	-0.211161	-1.527426
N	-3.096771	-0.372621	-1.601814
N	-0.390448	-1.315562	0.517533
H	0.406099	-1.693471	1.02318
H	-1.167407	-1.232095	1.162686
C	-0.51331	1.174307	0.809657
H	-0.23783	2.118983	0.336498
H	-0.048938	1.147929	1.798825
H	-1.60469	1.145848	0.928613
H	2.895416	0.0	0.0
