15

C	-0.363656	0.056503	-1.46889
C	0.0	0.0	0.0
F	-1.745038	0.273311	-1.659856
H	1.096468	0.0	0.0
H	0.163349	0.883292	-1.954754
C	-0.045964	-1.196982	-2.173426
N	0.162702	-2.185825	-2.769175
N	-0.466002	-1.201575	0.682829
H	0.216577	-1.937855	0.538725
H	-1.359296	-1.510492	0.31401
C	-0.487851	1.252225	0.710036
H	-0.077827	1.247506	1.720688
H	-1.579737	1.286062	0.77092
H	-0.133933	2.154585	0.201337
H	2.897383	0.0	0.0
