15

C	-0.37928	0.004299	-1.47921
C	0.0	0.0	0.0
F	-0.116385	1.2288	-2.083262
H	1.095956	0.0	0.0
H	0.219007	-0.752755	-1.997761
C	-1.815819	-0.283691	-1.68257
N	-2.954307	-0.52776	-1.840155
N	-0.389878	-1.250952	0.640789
H	0.307785	-1.95724	0.437965
H	-1.305488	-1.578183	0.353712
C	-0.560715	1.197872	0.736799
H	-0.161815	1.184615	1.752514
H	-1.656287	1.16965	0.793474
H	-0.253809	2.128066	0.254526
H	2.900418	0.0	0.0
