15

C	-0.359175	0.015079	-1.485794
C	0.0	0.0	0.0
F	-0.146046	1.261918	-2.062609
H	1.095975	0.0	0.0
H	0.286276	-0.700758	-2.006067
C	-1.77512	-0.342183	-1.718306
N	-2.90196	-0.64152	-1.86342
N	-0.372934	-1.266618	0.620962
H	0.348674	-1.951624	0.425014
H	-1.274728	-1.615382	0.312529
C	-0.585816	1.179353	0.745438
H	-0.204361	1.154454	1.767653
H	-0.284589	2.12145	0.283036
H	-1.681789	1.134943	0.783824
H	2.891682	0.0	0.0
