19

C	-0.469131	0.006038	-1.463981
C	0.0	0.0	0.0
F	0.277109	-0.981383	-2.107501
H	1.089397	0.0	0.0
C	-1.928998	-0.326837	-1.706473
H	-2.093174	-0.345065	-2.787205
H	-2.160847	-1.316907	-1.30912
H	-2.587685	0.41197	-1.251076
C	-0.041571	1.333439	-2.072806
H	1.016795	1.50608	-1.861976
H	-0.637556	2.163843	-1.68822
H	-0.180999	1.274205	-3.154411
N	-0.473405	-1.16569	0.807417
O	-0.752969	-0.963665	1.985231
O	-0.490696	-2.255565	0.24774
N	-0.483576	1.227029	0.701995
O	-1.701216	1.415022	0.72656
O	0.358156	1.971651	1.188687
Cl	3.232983	0.0	0.0
