19

C	-0.52549	-0.004227	-1.444605
C	0.0	0.0	0.0
F	0.160858	1.038225	-2.076888
H	1.08852	0.0	0.0
C	-0.100401	-1.282251	-2.144996
H	-0.69587	-2.134373	-1.820042
H	0.959725	-1.466802	-1.951117
H	-0.238419	-1.135051	-3.218865
C	-1.9999	0.325118	-1.576038
H	-2.615947	-0.378725	-1.018316
H	-2.185118	1.338706	-1.210882
H	-2.27386	0.293543	-2.633301
N	-0.445306	-1.165425	0.821611
O	0.165282	-1.326764	1.873347
O	-1.387322	-1.86165	0.43371
N	-0.498708	1.214984	0.717817
O	0.020109	2.277124	0.405847
O	-1.431905	1.075743	1.508945
Cl	3.228591	0.0	0.0
