19

C	-0.426413	0.007606	-1.465688
C	0.0	0.0	0.0
F	-1.813902	-0.156264	-1.567875
H	1.088296	0.0	0.0
C	-0.024723	1.328034	-2.098083
H	-0.598815	2.15174	-1.680657
H	1.042165	1.495813	-1.933409
H	-0.21344	1.274245	-3.1726
C	0.230818	-1.147425	-2.202223
H	-0.173044	-2.100653	-1.873454
H	1.306082	-1.139165	-2.0204
H	0.036896	-1.032118	-3.270162
N	-0.511063	-1.207988	0.722781
O	-1.458719	-1.062359	1.492122
O	0.046437	-2.268572	0.467406
N	-0.471032	1.166474	0.813053
O	-1.443059	1.813199	0.432068
O	0.149013	1.359242	1.852908
Cl	3.220081	0.0	0.0
