19

C	-0.519337	-0.112923	-1.450242
C	0.0	0.0	0.0
F	-0.424473	1.209403	-1.928098
H	1.104591	0.0	0.0
C	0.430891	-0.947563	-2.281571
H	0.390044	-1.992023	-1.973174
H	1.452498	-0.586844	-2.148549
H	0.138627	-0.866523	-3.33217
C	-1.971516	-0.518862	-1.606342
H	-2.119609	-1.555297	-1.30706
H	-2.617608	0.127183	-1.013873
H	-2.236142	-0.415022	-2.661387
N	-0.386976	-1.140121	0.882635
O	-0.494356	-2.245284	0.354054
O	-0.480355	-0.915488	2.083981
N	-0.530527	1.243931	0.629552
O	-1.741435	1.271901	0.85621
O	0.259532	2.1531	0.844422
Cl	3.245081	0.0	0.0
