19

C	-0.421571	0.016776	-1.466923
C	0.0	0.0	0.0
F	-1.810252	0.147777	-1.579659
H	1.095477	0.0	0.0
C	0.25349	1.165101	-2.196431
H	1.33302	1.114367	-2.030796
H	0.044485	1.072775	-3.265337
H	-0.124656	2.1208	-1.842385
C	-0.030146	-1.313166	-2.090114
H	-0.625494	-2.128503	-1.675978
H	-0.216391	-1.261919	-3.165118
H	1.028334	-1.515708	-1.910662
N	-0.532238	-1.216181	0.681006
O	-1.70739	-1.176425	1.046114
O	0.214538	-2.186025	0.766023
N	-0.452713	1.153322	0.839647
O	-0.22367	1.040706	2.039433
O	-0.97447	2.125702	0.302739
Cl	3.228405	0.0	0.0
