19

C	-0.493528	0.008683	-1.454288
C	0.0	0.0	0.0
F	-0.002729	-1.170008	-2.018583
H	1.090442	0.0	0.0
C	-1.998136	0.013713	-1.635908
H	-2.443557	0.916972	-1.219222
H	-2.443353	-0.855882	-1.159181
H	-2.213879	-0.019853	-2.706917
C	0.189458	1.153659	-2.1821
H	0.020983	1.016967	-3.253258
H	-0.212628	2.121701	-1.88288
H	1.260966	1.13284	-1.975731
N	-0.435174	-1.161029	0.838843
O	-0.064758	-1.114883	2.006695
O	-1.078692	-2.073998	0.328516
N	-0.502483	1.218596	0.70201
O	-1.605184	1.141819	1.246015
O	0.194913	2.225458	0.643739
Cl	3.232451	0.0	0.0
