19

C	-0.511994	0.095234	-1.451075
C	0.0	0.0	0.0
F	-0.290918	-1.204362	-1.946317
H	1.10447	0.0	0.0
C	-1.993258	0.364896	-1.623584
H	-2.584625	-0.37101	-1.079999
H	-2.251475	1.363391	-1.275077
H	-2.22552	0.288087	-2.688669
C	0.37032	1.027341	-2.254784
H	1.419978	0.781435	-2.082446
H	0.130222	0.902103	-3.313849
H	0.196469	2.063076	-1.965332
N	-0.524068	-1.243085	0.638157
O	0.247613	-2.183422	0.767887
O	-1.716768	-1.238559	0.950866
N	-0.3956	1.136362	0.883132
O	-0.334569	0.937116	2.091065
O	-0.671592	2.21157	0.352401
Cl	3.240605	0.0	0.0
