16
Coordinates from ORCA-job run
  C   -0.95170675874688     -0.18842677647110     -0.25176044470953
  C   0.56918500768392     -0.37520117066904     -0.22822797798204
  Br  -1.75365386740071     -1.11872106528618     -1.74948428229619
  H   0.76828635252304     -1.44498613993915     -0.18248735258213
  C   -1.38019753212942      1.19828169429107     -0.25032039474445
  N   -1.72271640579169      2.32359515338076     -0.23377489512934
  N   -1.48631162014692     -0.87094539573252      1.03538889122441
  O   -1.05639566589831     -1.99350273374533      1.25105083927089
  O   -2.28181991039452     -0.23547302066652      1.71030066353405
  C   1.22706255248815      0.39060976513429      0.90485160032543
  H   1.02524300316409      1.45883982625136      0.82133257475238
  H   0.86932297441865      0.02602631647394      1.86952946284428
  H   2.30661249303960      0.23183955269328      0.86707332702999
  N   1.14180339597806      0.08490487951444     -1.53672342266665
  O   1.70720638273761     -0.76439507966417     -2.21927117668093
  O   1.01807959847532      1.27655419443489     -1.80647741219017
