16
Coordinates from ORCA-job run
  C   -0.95471400441561      0.03869494541712      0.01796597842810
  C   0.57400166874291     -0.08253307739505      0.12741183784420
  Br  -1.63103339028711      0.79915414206356     -1.63112576214506
  H   0.77136092699721     -0.57606997676014      1.08319455300918
  C   -1.41643828988498      0.87039977085248      1.12133560485951
  N   -1.78046544525970      1.52730122658076      2.02665004125708
  N   -1.62881211453027     -1.34231015473183      0.16703516282131
  O   -1.00668972651772     -2.28843785735068     -0.29319443620664
  O   -2.72909126688574     -1.35707930401576      0.69535523135376
  C   1.27950573298689      1.26064300812594      0.04006707985190
  H   2.35187496329699      1.10456581955000      0.17289730884461
  H   0.93103897956826      1.93429446158636      0.82386937558391
  H   1.10771852506811      1.71549132741698     -0.93524533550626
  N   1.20048889264950     -0.99426438494298     -0.89411371866604
  O   1.03732099400945     -0.71058227345308     -2.07423190198149
  O   1.89493355446181     -1.90026767294368     -0.44787101934806
