16
Coordinates from ORCA-job run
  C   -0.87749683444443     -0.05849161188652     -0.29928049837770
  C   0.53965881367420      0.02053640595528      0.29318819604128
  Br  -0.85039286273105     -0.26784788687997     -2.21030497391283
  H   0.42605081297983     -0.11045057407046      1.37336957671737
  C   -1.62524950675802      1.14075036261242      0.04707164857383
  N   -2.21786803187046      2.11584140876595      0.33358497122374
  N   -1.65831094065748     -1.23754774351608      0.38103129697283
  O   -1.68268530603087     -1.14035257347289      1.59834579646756
  O   -2.17324110372301     -2.08333124893396     -0.31868520021895
  C   1.27752498001526      1.29724330641487     -0.04092341015678
  H   1.39406047491527      1.41782649218432     -1.11705985752782
  H   0.73611251643097      2.15269370154651      0.36574770859339
  H   2.26944910737013      1.27129139863433      0.40877957428652
  N   1.30096711965897     -1.20154705720479     -0.16577414773386
  O   0.76720918940469     -2.27938626896630      0.08328430246633
  O   2.37521157176595     -1.03922811118270     -0.73137498341489
