14
Coordinates from ORCA-job run
  C   0.46578172548097      0.32505107093246     -0.09302710948740
  C   -0.99911964694669      0.07570013130283      0.17780983384033
  F   0.62124760381092      0.51881166069536     -1.45322610834413
  H   -1.52551776132771      1.02634352670746     -0.00063331317402
  H   -1.10269357594757     -0.18151087761566      1.23003282423435
  N   1.02136637266985      1.35926883375341      0.67971511438154
  H   1.97694556727185      1.54842629664080      0.40147654805998
  H   0.47170514290606      2.20452212374015      0.60414057119385
  N   1.26611832841160     -0.93529887148912      0.23398823886712
  O   2.18382804612443     -1.22430666256877     -0.52340466704988
  O   0.95614526762022     -1.51486381911295      1.26508259495035
  N   -1.43900254126720     -1.03243240729559     -0.64873918225719
  H   -1.61392361930499     -0.72703588502029     -1.59571550693796
  H   -2.28288090950174     -1.44367512067011     -0.27749983827694
