14
Coordinates from ORCA-job run
  C   0.50279494680743      0.52826040336197     -0.25817337761804
  C   -0.89289876305086      0.10108281116751     -0.65123053414140
  F   1.09023853421512      1.22007683943020     -1.28489037910991
  H   -0.83803571198262     -0.42396443810243     -1.60812771761814
  H   -1.44994165058010      1.02890585850054     -0.79514298298800
  N   0.52271594341798      1.27746013905373      0.91514576687736
  H   1.46046204228775      1.37339154660537      1.28237946440545
  H   -0.10061772362264      0.84664142262201      1.58734390682692
  N   1.41752370428663     -0.73205285839463     -0.15532444632833
  O   2.49208707933314     -0.56689618741515      0.41271713207667
  O   1.02680635317157     -1.78217235732173     -0.66111753485673
  N   -1.47950827799912     -0.66517598652588      0.44166816606070
  H   -1.26552620462535     -1.64681627986527      0.32304251328247
  H   -2.48410027165892     -0.55974091311624      0.45171002313098
