14
Coordinates from ORCA-job run
  C   0.53620674357795      0.25502398759180     -0.24576977267172
  C   -0.75043760899918     -0.55068461115830     -0.10392066237833
  F   0.50074801063528      0.85402297752626     -1.47118280344688
  H   -0.69064923315143     -1.11353156312339      0.82964516284219
  H   -0.81007733608482     -1.26007297603308     -0.94041868582744
  N   0.80649763505599      1.22299739015669      0.74630813750990
  H   -0.07191297045233      1.67117293151644      0.98343957854873
  H   1.19953189887474      0.77883417841170      1.56531500963847
  N   1.69595837331759     -0.73326254042212     -0.26209161626440
  O   2.17207381494845     -1.03993106346463     -1.34466032718985
  O   2.01911172464730     -1.18429379044973      0.83509503136790
  N   -1.84798886792311      0.40390869683870     -0.02803331211938
  H   -2.66211401684459     -0.02179090747363      0.39270163320043
  H   -2.09994816760185      0.71660729008333     -0.95642737320963
