14
Coordinates from ORCA-job run
  C   0.52400383556550      0.15898684973761     -0.02210411972350
  C   -0.77645362816943     -0.54115292644139     -0.35235902886711
  F   0.75759329722259      1.10953112045218     -1.02513337696235
  H   -0.90150296669687     -1.37318260099044      0.33988641145275
  H   -0.70198739279846     -0.94502002810050     -1.36638288469838
  N   0.53464776079180      0.68434986133521      1.26507100971164
  H   -0.33894951698548      1.16793021536478      1.43217869430873
  H   1.34413803018838      1.26665871078201      1.43079374609786
  N   1.72296014301244     -0.76647672153433     -0.15008166734824
  O   1.52809752032700     -1.91702650508430     -0.53074235507222
  O   2.80587326976640     -0.26998719428151      0.13777453175589
  N   -1.84938720522480      0.43061976566878     -0.15148132428982
  H   -1.91284783451091      1.04030334990385     -0.95666919567416
  H   -2.73518531248814     -0.04553389681194     -0.05075044069109
