14
Coordinates from ORCA-job run
  C   0.54182046761407      0.27448281356574     -0.21330436267680
  C   -0.74400601057904     -0.54333655090598     -0.16223228333112
  F   0.53304628255249      0.96253353879453     -1.39130503100933
  H   -0.70389826213562     -1.17314551252352      0.72863198066761
  H   -0.78004273814829     -1.18944626523631     -1.04979237260311
  N   0.78371876800266      1.16806310102398      0.85380695282848
  H   1.15272350449866      0.66364113146815      1.64895104614876
  H   -0.10292591638289      1.59578009723192      1.09874354806937
  N   1.70599315295652     -0.70646197413730     -0.27398272980026
  O   2.00119292200064     -1.23946546579199      0.79397071308874
  O   2.20917082398649     -0.93192806144584     -1.36421530654312
  N   -1.84787862677663      0.39950942193822     -0.04329181233641
  H   -2.66962826791733     -0.05880574635393      0.32513263666907
  H   -2.07928609967179      0.77857947237231     -0.95211297917188
