14
Coordinates from ORCA-job run
  C   0.40105709553587      0.44930627094867     -0.19343524803902
  C   -1.03040410172038      0.08128374410122      0.12488588664358
  F   0.53858065615642      0.66370572365148     -1.52859416788644
  H   -1.63587422626630      0.95629596266326     -0.14543969149531
  H   -1.11085313433832     -0.07729227963722      1.20144739411008
  N   0.85535615803403      1.59268400634925      0.49920005511433
  H   1.78709826616753      1.84962028047345      0.19554980075929
  H   0.85614746952413      1.42520750624089      1.49639715454414
  N   1.26437488710224     -0.79423976818698      0.12013720558137
  O   1.28083057744792     -1.09196255668287      1.31208430672525
  O   1.85664822927877     -1.36000332568581     -0.78409696317979
  N   -1.35801238492330     -1.15455894342031     -0.56406568818753
  H   -1.50312561500823     -0.98044780451074     -1.54956370166815
  H   -2.20182387699035     -1.56059881630428     -0.18550634302178
