14
Coordinates from ORCA-job run
  C   0.55294961805779      0.35234677338042     -0.26877989810707
  C   -0.90274077226813      0.05927930918803     -0.57549334862752
  F   1.07431437474774      1.05788680623914     -1.33984733021700
  H   -0.92918246310680     -0.65176367639769     -1.40901317459345
  H   -1.30911089871112      1.00894815316040     -0.93360126997886
  N   0.76065340269995      0.96151941820639      0.96215447916047
  H   1.61408900203785      1.49562730810172      1.01586100296363
  H   -0.05877137524678      1.41014593727302      1.33826675964041
  N   1.39374520441317     -0.93437863838812     -0.26243993186559
  O   2.60774791349167     -0.78758024988937     -0.29425123025851
  O   0.79198083006046     -2.00078444957182     -0.15503714069977
  N   -1.63037079174842     -0.33822832623470      0.61793731370282
  H   -2.62205393287266     -0.36142300374694      0.41944060500136
  H   -1.34325011155470     -1.27159536132048      0.88480316387907
