14
Coordinates from ORCA-job run
  C   0.52974869251530      0.44325409648092     -0.22952914318550
  C   -0.85090007662263      0.18712054429999     -0.81060142262433
  F   1.30788474603156      1.07171439040743     -1.16628481245483
  H   -0.71123663376245     -0.32598763492496     -1.76162025906358
  H   -1.26658802495238      1.17474853708586     -1.02303637563647
  N   0.52961988754606      1.19700925548537      0.94811727870526
  H   -0.14624677258038      0.84205177633314      1.60912847944503
  H   1.44986380728872      1.21478257883183      1.36998646186250
  N   1.28830244160698     -0.90964467493397     -0.04114506032089
  O   2.26930565178644     -0.87588664448395      0.69603864971114
  O   0.88607217034696     -1.89384491600811     -0.65637571575773
  N   -1.78095760263736     -0.56261633776538      0.00310681924208
  H   -2.07070167138395     -0.07655660712158      0.83854428965221
  H   -1.43416661518290     -1.48414436368656      0.22467081042507
