14
Coordinates from ORCA-job run
  C   0.51960970409665      0.19764043163581     -0.17910166826675
  C   -0.79744663481444     -0.57743191297614     -0.27832071544894
  F   0.62683488016091      0.97889056921386     -1.28756328053096
  H   -0.76338384400417     -1.16859653351635     -1.19870873877671
  H   -0.85218979149237     -1.26977399637833      0.56480655247541
  N   0.76283917417275      1.01323649535673      0.95930077567258
  H   0.80612973089699      0.45197502309268      1.79892027165901
  H   0.04683235106505      1.72249513411537      1.04067274393115
  N   1.64131749594576     -0.82843237898063     -0.21739593669209
  O   2.24546133776068     -0.98856308860497     -1.26690869354180
  O   1.79766345846034     -1.45570824153815      0.82834801679082
  N   -1.98120069340093      0.25525059242740     -0.30096193622241
  H   -2.12539713494219      0.72975692350514      0.57974533037021
  H   -1.92607003390501      0.93926098264758     -1.04383272141953
