14
Coordinates from ORCA-job run
  C   0.38372019435151      0.42687626486227     -0.24052898269770
  C   -1.10641068914065      0.16456945474156     -0.07869907589627
  F   0.73147730035158      0.35289731650130     -1.55164066185527
  H   -1.37264775783336      0.28837277473712      0.97277133614991
  H   -1.60445724890871      0.95267706548183     -0.64914129363808
  N   0.79489342456998      1.67115616996921      0.27415076370674
  H   0.60284135589011      1.73620185807056      1.26411739700320
  H   1.77770912975781      1.83927785701480      0.09685155700016
  N   1.11628241720954     -0.75700136433417      0.43871783514144
  O   1.74570609920979     -1.55344628096141     -0.24384027617709
  O   0.95906936786514     -0.80313586066436      1.65785617655507
  N   -1.55816065707999     -1.13074853476812     -0.53603901802939
  H   -1.22970946437808     -1.31444595811844     -1.47487728542938
  H   -1.23831347186468     -1.87325076253213      0.07130152816666
