14
Coordinates from ORCA-job run
  C   0.46441764011706      0.38657955756284      0.01402363221519
  C   -1.01771674200336      0.07520631227318     -0.03571087605300
  F   0.86581100016055      0.92646759402317     -1.18612974950745
  H   -1.31190913591093     -0.30133417895159      0.94875379910184
  H   -1.51088084381892      1.04021705885614     -0.19028437729353
  N   0.82493475542233      1.17336324459943      1.12432549361455
  H   0.26345643369081      2.01307390056591      1.17243445842651
  H   1.80749013009523      1.41665579209934      1.07989252117125
  N   1.28610153995067     -0.89182645243471      0.15226191050273
  O   2.49341392776608     -0.76490005692835     -0.01173910304603
  O   0.70205909255263     -1.92138081772114      0.47520023739647
  N   -1.32309687065355     -0.80123316898495     -1.15084971282298
  H   -2.22872353046538     -0.58600029508554     -1.53980176803875
  H   -1.31435739690324     -1.76488848987371     -0.85037646566680
