14
Coordinates from ORCA-job run
  C   0.50281986389507      0.38610114005466     -0.19282660174120
  C   -0.95000541452452      0.08759382420946      0.12798024982510
  F   0.59384246565368      0.65001877560571     -1.52459565807653
  H   -1.50961030920462      1.01403074351322     -0.07899309873557
  H   -1.01634358592230     -0.11997591598318      1.19711605494539
  N   1.15637935443581      1.42711973772447      0.52221137672144
  H   1.23907227165706      1.17934857000952      1.49930937424189
  H   0.64471235058951      2.29492201223482      0.42578334910932
  N   1.29991795992103     -0.88157898319780      0.08342762456604
  O   1.35878161816793     -1.18685224013977      1.27195660586141
  O   1.79647613443393     -1.47735081030734     -0.85543342932652
  N   -1.37725088753706     -1.08375512604012     -0.61381674579558
  H   -2.26157958421066     -1.42704489162946     -0.26610995579087
  H   -1.48121223735486     -0.86257683605417     -1.59500914580435
