14
Coordinates from ORCA-job run
  C   0.46976179369918      0.10587077170306     -0.06628871603283
  C   -0.83633492215601     -0.58461514090332     -0.42268476402983
  F   0.75207283115735      1.02987422465708     -1.07921191350280
  H   -0.72960057234380     -0.99210577000340     -1.42829460439156
  H   -0.98620626129602     -1.42071044660148      0.26014320324190
  N   0.48679875259964      0.67237691547946      1.21212377066602
  H   1.37290777690871      1.12638253681554      1.39499315350661
  H   -0.27548582985599      1.32551381178206      1.32271190196715
  N   1.65642285368380     -0.84684676727706     -0.13163324304216
  O   1.46386266055249     -1.97845160417029     -0.56351878384692
  O   2.73094897058042     -0.38257119637419      0.23467134618234
  N   -1.99416859818455      0.28877893565865     -0.38057632551381
  H   -1.83962374172275      1.13293144746991     -0.91470973770946
  H   -2.26835571362247      0.52157228176400      0.56327471250531
