14
Coordinates from ORCA-job run
  C   0.48308064074579      0.47690640684497     -0.37028665655946
  C   -0.95070876450071      0.04245954417880     -0.57108242861704
  F   0.97786947368357      1.01629189688114     -1.52884662630373
  H   -1.50439115770828      0.95980593982648     -0.78028533969023
  H   -0.99761203499737     -0.60127164894491     -1.45301542868571
  N   0.62866049346858      1.36810755129674      0.68933064395543
  H   0.06647356075675      1.04455897960225      1.46728630765823
  H   1.59891261521216      1.48410360295289      0.95112771358684
  N   1.38438209572593     -0.78465701965923     -0.19301415328329
  O   2.51213343045854     -0.57795236893894      0.24287041035544
  O   0.93013392395226     -1.87934240973289     -0.51941191945214
  N   -1.44044803137244     -0.56173020529978      0.66221186208819
  H   -1.25108405702495     -1.55554584507668      0.65293815463064
  H   -2.43840218839983     -0.43173442393086      0.75017746031681
