14
Coordinates from ORCA-job run
  C   0.50470725986045      0.52853967852395     -0.25341739174683
  C   -0.89060451901323      0.10678544298763     -0.65339651747316
  F   1.09733479599550      1.22364936682999     -1.27499706766091
  H   -1.44520078689901      1.03662402725690     -0.79361167009515
  H   -0.83393185383428     -0.41283441496765     -1.61314314927828
  N   0.52230408467333      1.27228921040951      0.92338157129517
  H   -0.10422425663056      0.83987712349589      1.59157148602125
  H   1.45893747719377      1.36412534149565      1.29448963409011
  N   1.41594028519122     -0.73453364899377     -0.15346527885328
  O   2.48702476027629     -0.57627039486139      0.42295675767571
  O   1.02644556614877     -1.77936556749720     -0.67095789260258
  N   -1.48226319446940     -0.66476405473542      0.43314273351079
  H   -1.26854803717135     -1.64593640761941      0.30973905581619
  H   -2.48692158132149     -0.55918570232467      0.43870772930099
