14
Coordinates from ORCA-job run
  C   0.39116302454706      0.43660073934100     -0.20699777975634
  C   -1.10307872431349      0.15849441708676     -0.13366687149528
  F   0.81013072462673      0.40375481518483     -1.49869348405830
  H   -1.42645084702230      0.24978887411633      0.90506862050732
  H   -1.57685030624902      0.95911744171140     -0.70731014620196
  N   0.76276320227242      1.66843029633655      0.36501957092434
  H   0.52757674268430      1.69740210067606      1.34746915564528
  H   1.75054504122511      1.85214521543354      0.23729549930687
  N   1.09598885719703     -0.76165596307435      0.47681093979656
  O   0.88371637672717     -0.83685240882761      1.68623578154226
  O   1.76376449120685     -1.53674133866436     -0.19368548314016
  N   -1.51832996554278     -1.12630948135946     -0.65149935531019
  H   -1.22438527087222     -1.88397630143309     -0.04979161817191
  H   -1.13855334648684     -1.28019840652759     -1.57625482958850
