12
Coordinates from ORCA-job run
  C   -0.42797016757130      0.28156395845626      0.33410850064711
  C   1.06922121612599      0.20104071112040      0.03067750939837
  H   -0.65226882024115      0.00155755947693      1.36481503826959
  H   1.23198339769529      0.40084296573824     -1.02994004817870
  H   1.59221378396711      0.96663357902621      0.61011174769315
  N   -1.18066319151148     -0.71964557216972     -0.52833885304117
  O   -0.82855075644678     -0.80427771531965     -1.69771372455127
  O   -2.08614015421311     -1.33147887375893      0.02353523276706
  C   -0.95055458625564      1.61298264357405      0.04228187182672
  N   -1.33908245772887      2.69639064586824     -0.19082490547321
  C   1.58992627592073     -1.11992532046193      0.37483156339932
  N   1.98188546025922     -2.18668458155010      0.66645606724303
