15
Coordinates from ORCA-job run
  C   0.90685158417959     -0.62627031446266      0.20663188874614
  C   -0.45177673737454     -0.21897277065994     -0.42298971162392
  Cl  1.06174823739515     -2.41769746293772      0.17282210431740
  H   -0.41807428665581     -0.60896961269339     -1.45188536440516
  C   0.98265381462458     -0.17065553852567      1.59497050944319
  N   1.05561095955033      0.23792252314648      2.69394580449089
  C   2.01696679319418     -0.06720577540751     -0.56763263051246
  N   2.87238563103202      0.40030752667128     -1.22394580179963
  C   -0.58842375592413      1.29599642498474     -0.45083782403122
  H   -1.51406721852899      1.56365518887204     -0.96676260620202
  H   -0.63575031411193      1.69050088835041      0.56687273716048
  H   0.23666053392870      1.77118079097134     -0.98330974822645
  N   -1.50041625975503     -0.79154047350397      0.39607680257312
  H   -2.36803069874311     -0.28977811964568      0.26110516423812
  H   -1.65533828281101     -1.76647327515977      0.17593867583150
