15
Coordinates from ORCA-job run
  C   1.09514582412996     -0.21385935424748      0.06390989364110
  C   -0.34378419841841     -0.04704059725281     -0.51087235185963
  Cl  2.27874008352271      0.66910464095755     -0.95676888301482
  H   -0.26240944993599     -0.33515840827322     -1.56872799106662
  C   1.44867765586844     -1.63468173358192      0.04225814837100
  N   1.68311369017496     -2.78399549343888     -0.02718958899104
  C   1.16051004790293      0.30133359199991      1.43109038147295
  N   1.19579594685041      0.75581048909248      2.51383454800075
  C   -0.82563246730621      1.38880161359306     -0.40153429527667
  H   -0.13041183035152      2.08849908123551     -0.86413414536921
  H   -1.78811917596388      1.48302029766444     -0.90983561571925
  H   -0.95824754752676      1.66253691698950      0.64792183005736
  N   -1.18674130930888     -0.92648272559150      0.27473613930626
  H   -1.24574439962546     -1.85592540823633     -0.11963253412301
  H   -2.11889287001230     -0.55196291091031      0.38394446457082
