15
Coordinates from ORCA-job run
  C   0.88002072070753     -0.11268164148935      0.61556275763739
  C   -0.35746452499512     -0.23093564461193     -0.31927659972323
  Cl  0.47631885382514      0.87517462097476      2.06089309177339
  H   -0.01755881867906     -0.88226422261331     -1.13370991591514
  C   1.99697929075387      0.52513412975758     -0.08461947996198
  N   2.86531072520240      1.03481595309395     -0.69067158802182
  C   1.28369677995025     -1.44655668780302      1.06405212419330
  N   1.63939610876614     -2.51896748793388      1.38568956124725
  C   -0.77171439858940      1.11756369945016     -0.89804935456990
  H   -1.10574638145341      1.79243752413010     -0.10707838873025
  H   0.03833710050423      1.60094059508369     -1.44871977985817
  H   -1.60523240827210      0.96173160000014     -1.58630502018715
  N   -1.38378432438854     -0.94322602916526      0.41522866005770
  H   -1.97308265989898     -1.47218051039305     -0.21292170641749
  H   -1.96547606343295     -0.30098589848057      0.93892563847611
