15
Coordinates from ORCA-job run
  C   1.04441459925324     -0.24941270633584      0.07376258104584
  C   -0.36669685355121     -0.01621070521279     -0.58142459972343
  Cl  2.32529468697939      0.61342960969085     -0.83767891745936
  H   -0.24304020060546     -0.33013794641070     -1.62395481199263
  C   1.34770523440580     -1.68093533122005      0.04336490691520
  N   1.52520722051001     -2.84111998163986     -0.01966965024372
  C   1.02705013640075      0.22306513212838      1.45789417869610
  N   0.93605315726983      0.61681943286740      2.56157736008032
  C   -0.76872348344524      1.44804687353066     -0.52241271722598
  H   -1.71738198160326      1.56056625579316     -1.04775850764003
  H   -0.91352825699571      1.76780227427134      0.51336559208208
  H   -0.02755607563350      2.09794746539428     -0.98624256834353
  N   -1.39267208961118     -0.82658096499793      0.02209290844628
  H   -1.57258296627158     -0.56436060508521      0.98340138675706
  H   -1.20454312710189     -1.81891880277368     -0.03631714139420
