12
Coordinates from ORCA-job run
  C   0.71424701467040     -0.48975084850631     -0.20700912906501
  C   -0.79935021004972     -0.43585922370694     -0.22474935101496
  Cl  1.15103476349866     -2.22264086437664     -0.23768247124503
  H   -1.21610276316455     -0.92689098008036     -1.10538439836291
  H   1.11987188753169     -0.06655454648664     -1.13061969683579
  H   -1.20509983987131     -0.88735242037782      0.67940334679184
  N   1.21898249535628      0.09709223482794      1.01297335567040
  H   2.19693499633750     -0.13848650646739      1.12915353185463
  H   1.14755876278075      1.10517058564401      0.93072688842295
  N   -1.30920055256944      0.97219405473078     -0.26230531197216
  O   -0.51304875542176      1.87103922507305     -0.53552318375654
  O   -2.50582779909850      1.12003928972632     -0.04898358048740
