12
Coordinates from ORCA-job run
  C   0.73164760248966     -0.60338193284389     -0.11704679989469
  C   -0.78307687719195     -0.46313759793726     -0.25059388879148
  Cl  1.02584650833753     -2.35968879376588      0.16519226144110
  H   -1.29429194351226     -0.77464163651942      0.65872141193539
  H   1.20145866490398     -0.36495484759545     -1.07037592642921
  H   -1.16199122210356     -1.00145455666387     -1.11901744575955
  N   1.33011890038596      0.18530847535464      0.90333285485894
  H   1.57962907212520      1.10804321331759      0.57993711612573
  H   0.78117888168272      0.23247960034910      1.75036330885261
  N   -1.08097486303531      0.98082520912816     -0.45300392698011
  O   -1.68030409678456      1.57514829668985      0.44024696171143
  O   -0.64924062729741      1.48445457048642     -1.48875592707016
