17

C	-0.34873	0.067617	-1.497803
C	0.0	0.0	0.0
Br	-2.297942	0.38599	-1.76769
H	1.09897	0.0	0.0
C	0.435355	1.171182	-2.19972
H	1.496965	1.013488	-1.981352
H	0.130955	2.149466	-1.826948
H	0.259157	1.135632	-3.275738
C	-0.083207	-1.215265	-2.147862
N	0.124832	-2.223768	-2.715438
C	-0.519202	-1.216103	0.61388
N	-0.949001	-2.173748	1.142288
C	-0.422807	1.225399	0.812916
H	-1.508095	1.328525	0.866879
H	0.012021	2.130424	0.387151
H	-0.022271	1.117405	1.822662
Cl	3.282096	0.0	0.0
