17

C	-0.5177	0.030485	-1.453339
C	0.0	0.0	0.0
Br	0.278145	-1.469138	-2.447855
H	1.09551	0.0	0.0
C	-2.037276	-0.088808	-1.566311
H	-2.367377	-1.020599	-1.104561
H	-2.338846	-0.083764	-2.614681
H	-2.513751	0.755048	-1.060549
C	-0.08803	1.260965	-2.116727
N	0.14999	2.278324	-2.656424
C	-0.486065	-1.209039	0.658757
N	-0.933964	-2.146638	1.208111
C	-0.4285	1.237853	0.800744
H	0.045968	1.18707	1.782269
H	-1.510763	1.304292	0.937902
H	-0.063541	2.13993	0.30603
Cl	3.28146	0.0	0.0
