17

C	-0.403238	-0.02605	-1.493133
C	0.0	0.0	0.0
Br	0.153902	1.66106	-2.34768
H	1.096763	0.0	0.0
C	0.306434	-1.16754	-2.216422
H	1.38002	-1.063615	-2.039233
H	-0.034916	-2.122315	-1.807729
H	0.093051	-1.138515	-3.28605
C	-1.855811	-0.098622	-1.65114
N	-3.02357	-0.183255	-1.763677
C	-0.461483	-1.254924	0.595962
N	-0.866187	-2.245598	1.082583
C	-0.533956	1.181711	0.805579
H	-1.624668	1.248021	0.751004
H	-0.092695	2.107491	0.438581
H	-0.24036	1.059212	1.849699
Cl	3.308958	0.0	0.0
