17

C	0.0	0.0	0.0
C	-0.423836	0.214552	-1.510902
Cl	1.762059	0.0	0.0
H	0.518576	0.215848	-2.066132
N	-0.399625	1.090413	0.996912
O	-0.726806	0.733745	2.117036
O	-0.236048	2.248415	0.635261
C	-0.440268	-1.283257	0.546322
N	-0.57203	-2.346417	1.030122
C	-1.139797	1.52494	-1.842727
H	-2.03671	1.584141	-1.230479
H	-0.505701	2.401792	-1.711077
H	-1.418497	1.460504	-2.902244
N	-1.154796	-0.981016	-1.917838
H	-2.024294	-0.885165	-1.367372
H	-1.360002	-0.887998	-2.907429
F	-2.492764	0.0	0.0
