17

C	0.0	0.0	0.0
C	-0.418141	-0.047767	-1.526209
Cl	1.77155	0.0	0.0
H	0.525936	-0.155735	-2.068807
N	-0.395512	1.245214	0.798547
O	-0.753888	1.082218	1.95379
O	-0.209797	2.326318	0.255617
C	-0.439221	-1.169892	0.757425
N	-0.566554	-2.130698	1.422893
C	-1.130241	1.187637	-2.072749
H	-1.357343	0.97856	-3.127579
H	-0.519307	2.089397	-2.034248
H	-2.05104	1.30533	-1.503994
N	-1.157152	-1.291613	-1.722725
H	-2.027509	-1.100942	-1.198902
H	-1.358016	-1.370793	-2.71471
F	-2.500837	0.0	0.0
