17

C	0.0	0.0	0.0
C	-0.453697	0.025206	-1.498071
Cl	1.760026	0.0	0.0
H	-1.495996	0.337053	-1.387932
N	-0.439215	1.280142	0.700744
O	-0.558307	2.279302	0.006501
O	-0.521517	1.241771	1.92034
C	-0.493154	-1.137403	0.767036
N	-0.641211	-2.135614	1.371978
C	-0.418178	-1.392727	-2.044491
H	-1.146233	-2.000602	-1.509166
H	-0.698891	-1.379343	-3.101919
H	0.575463	-1.843661	-1.958477
N	0.385387	0.922083	-2.286751
H	0.561262	0.528571	-3.202224
H	-0.084941	1.808989	-2.386553
F	-2.462566	0.0	0.0
