17

C	0.0	0.0	0.0
C	-0.408394	0.207737	-1.519506
Cl	1.761886	0.0	0.0
H	0.539682	0.191501	-2.06581
N	-0.402434	1.07764	1.006567
O	-0.639493	0.705374	2.144892
O	-0.313924	2.242819	0.643317
C	-0.434706	-1.289946	0.536155
N	-0.554896	-2.363501	0.999141
C	-1.100337	1.524009	-1.869788
H	-0.455434	2.391375	-1.720568
H	-2.011191	1.601323	-1.281306
H	-1.348149	1.465696	-2.937379
N	-1.146302	-0.982087	-1.931934
H	-2.017179	-0.882652	-1.386359
H	-1.34527	-0.885488	-2.922271
F	-2.453302	0.0	0.0
