17

C	-0.253003	-0.011853	-1.508833
C	0.0	0.0	0.0
Cl	-0.151259	1.696568	-2.180404
H	1.098245	0.0	0.0
N	0.624496	-0.916211	-2.102894
H	0.563604	-0.915849	-3.1111
H	1.578125	-0.755511	-1.7711
N	-1.687896	-0.402961	-1.873753
O	-2.571184	-0.078353	-1.08798
O	-1.852988	-0.983445	-2.941244
C	-0.43624	-1.305808	0.675015
H	0.022059	-1.350599	1.664655
H	-0.069187	-2.150512	0.091844
H	-1.520261	-1.366302	0.779587
C	-0.528433	1.157013	0.703001
N	-0.932733	2.055539	1.342291
Cl	3.277094	0.0	0.0
