17

C	-0.248541	-0.060999	-1.508068
C	0.0	0.0	0.0
Cl	-0.131103	1.623408	-2.23438
H	1.105921	0.0	0.0
N	0.62506	-0.991607	-2.069975
H	1.578237	-0.824447	-1.74051
H	0.570183	-1.01772	-3.077845
N	-1.684326	-0.454364	-1.866819
O	-1.848803	-1.059962	-2.920557
O	-2.569052	-0.108302	-1.092232
C	-0.435284	-1.282743	0.717672
H	0.013504	-1.289046	1.712646
H	-1.520289	-1.345815	0.814274
H	-0.058492	-2.145567	0.168617
C	-0.533577	1.178743	0.661967
N	-0.967767	2.084351	1.270391
Cl	3.278335	0.0	0.0
