17

C	-0.537218	-0.035378	-1.425749
C	0.0	0.0	0.0
Cl	0.378607	-1.304188	-2.353337
H	1.09718	0.0	0.0
N	-1.939862	-0.184384	-1.490683
H	-2.245522	-0.148986	-2.455613
H	-2.218179	-1.061493	-1.071729
N	-0.224408	1.261468	-2.180279
O	-0.838321	1.419649	-3.232828
O	0.603592	2.019017	-1.701222
C	-0.409986	-1.254734	0.785867
H	-1.484763	-1.292759	0.984848
H	-0.09158	-2.151064	0.251512
H	0.115336	-1.237926	1.741586
C	-0.516587	1.17945	0.690642
N	-0.971295	2.07884	1.295005
Cl	3.301016	0.0	0.0
