17

C	-0.248231	0.00527	-1.50792
C	0.0	0.0	0.0
Cl	-0.075929	1.715484	-2.158932
H	1.106275	0.0	0.0
N	0.600276	-0.924755	-2.109094
H	0.542269	-0.90465	-3.1173
H	1.558026	-0.788916	-1.778162
N	-1.691648	-0.328681	-1.892042
O	-2.567384	-0.040395	-1.084779
O	-1.870712	-0.822113	-3.00145
C	-0.441518	-1.306412	0.669295
H	0.011433	-1.35243	1.661542
H	-0.073226	-2.15098	0.087053
H	-1.52627	-1.364733	0.767921
C	-0.523386	1.155134	0.710949
N	-0.946264	2.034636	1.363912
Cl	3.276397	0.0	0.0
