13
Coordinates from ORCA-job run
  C   0.78650842452446     -0.56752555720275      0.76181304709894
  C   -0.56230544737954      0.04737600528863      0.39102343859824
  H   1.06158299760233     -0.21301343509827      1.75766179117109
  H   -1.31654924419331     -0.27584027496151      1.11148245322491
  H   0.70742635801020     -1.65565654017589      0.78279201394900
  C   1.81783038158857     -0.16390456487179     -0.19265754975289
  N   2.61987820322504      0.19261353485449     -0.97178211202427
  N   -1.00639774273538     -0.64268179576133     -0.91913186141730
  O   -1.21813952151158     -1.84911062976846     -0.84226035686352
  O   -1.10720227664697      0.05181018106431     -1.92471915517204
  N   -0.50488311572047      1.45504144863962      0.31689484676406
  H   0.13458590608552      1.76407777205366     -0.40529316514830
  H   -1.41433492284887      1.85681385593929      0.13417660957207
