17

C	0.0	0.0	0.0
C	-0.347576	0.030117	-1.588733
Br	1.945384	0.0	0.0
H	0.587143	0.336677	-2.062489
N	-0.374446	1.265272	0.744929
O	-0.66033	1.166693	1.928489
O	-0.259684	2.315955	0.121891
C	-0.470209	-1.155066	0.747297
N	-0.594934	-2.168448	1.332835
N	-1.37565	0.911107	-2.069518
H	-1.078747	1.863119	-1.90045
H	-2.161983	0.714961	-1.430171
C	-0.673705	-1.399923	-1.9945
H	0.106794	-2.109951	-1.705498
H	-0.79622	-1.422654	-3.080043
H	-1.615052	-1.669506	-1.512699
F	-2.416519	0.0	0.0
