17

C	0.0	0.0	0.0
C	-0.345953	-0.04955	-1.586796
Br	1.945496	0.0	0.0
H	0.585088	0.253267	-2.070668
N	-0.376064	1.304738	0.672671
O	-0.258049	2.318222	-0.008115
O	-0.667776	1.27262	1.85816
C	-0.467752	-1.11297	0.808767
N	-0.614815	-2.094743	1.440423
N	-1.387403	0.787315	-2.109888
H	-1.111856	1.752979	-1.987583
H	-2.173657	0.60622	-1.462023
C	-0.646246	-1.503261	-1.92432
H	-0.747766	-1.584788	-3.008187
H	0.135724	-2.186891	-1.581976
H	-1.593527	-1.75659	-1.448346
F	-2.435313	0.0	0.0
