17

C	0.0	0.0	0.0
C	-0.491828	0.132252	-1.475062
Br	1.921194	0.0	0.0
H	-1.4749	0.578238	-1.322038
N	-0.433578	1.209404	0.819846
O	-0.540183	2.268589	0.218502
O	-0.539497	1.057406	2.027011
C	-0.458902	-1.206078	0.676156
N	-0.607362	-2.236282	1.223606
N	-0.616075	-1.237638	-1.980738
H	-1.499497	-1.570866	-1.599706
H	-0.714833	-1.193611	-2.988542
C	0.364981	0.96977	-2.406658
H	0.597534	1.939362	-1.966959
H	-0.223736	1.149504	-3.313113
H	1.292046	0.466641	-2.693922
F	-2.487156	0.0	0.0
