11

C	-0.555242	0.037933	-1.425572
C	0.0	0.0	0.0
Cl	0.066998	1.443134	-2.333498
H	1.092668	0.0	0.0
H	-1.643075	0.148565	-1.410484
H	-0.321066	-0.935731	0.471047
C	-0.247283	-1.198598	-2.140906
N	-0.074127	-2.210348	-2.710979
C	-0.530198	1.114759	0.776931
N	-0.991484	2.002777	1.390919
Cl	3.294303	0.0	0.0
