11

C	-0.430197	-0.060849	-1.460215
C	0.0	0.0	0.0
Cl	-2.161842	-0.53507	-1.630067
H	1.094769	0.0	0.0
H	0.15202	-0.84288	-1.950335
H	-0.312467	-0.927573	0.487684
C	-0.224891	1.197326	-2.172528
N	-0.087621	2.212053	-2.747221
C	-0.57401	1.131513	0.711594
N	-1.062912	2.030893	1.285751
Cl	3.271773	0.0	0.0
