11

C	-0.556058	0.002147	-1.426559
C	0.0	0.0	0.0
Cl	-0.053224	1.494493	-2.27071
H	1.092723	0.0	0.0
H	-1.64868	0.020422	-1.40768
H	-0.327628	0.918666	0.495079
C	-0.151133	-1.170252	-2.201576
N	0.091958	-2.127349	-2.838294
C	-0.532049	-1.145173	0.730612
N	-0.995008	-2.06047	1.302199
Cl	3.29581	0.0	0.0
