11

C	-0.558271	0.009158	-1.4252
C	0.0	0.0	0.0
Cl	-0.04814	1.500423	-2.267661
H	1.092727	0.0	0.0
H	-1.65073	0.033534	-1.404071
H	-0.325625	0.917065	0.499845
C	-0.163243	-1.163501	-2.203906
N	0.074178	-2.118547	-2.844188
C	-0.533176	-1.146953	0.727153
N	-1.004179	-2.061957	1.29297
Cl	3.30006	0.0	0.0
