11

C	-0.427043	-0.092945	-1.4635
C	0.0	0.0	0.0
Cl	-2.209216	-0.286801	-1.657297
H	1.094233	0.0	0.0
H	0.032738	-0.973099	-1.919254
H	-0.35917	0.930074	0.447037
C	-0.02195	1.0996	-2.205707
N	0.259821	2.065143	-2.811749
C	-0.490959	-1.137587	0.767681
N	-0.904679	-2.049537	1.380471
Cl	3.270773	0.0	0.0
