11

C	-0.551789	0.019856	-1.427947
C	0.0	0.0	0.0
Cl	0.067036	1.417582	-2.347396
H	1.092734	0.0	0.0
H	-1.639615	0.127035	-1.415669
H	-0.320395	-0.930797	0.480982
C	-0.241956	-1.2235	-2.132642
N	-0.072574	-2.241364	-2.692987
C	-0.535117	1.121727	0.762077
N	-1.008346	2.009861	1.366292
Cl	3.295753	0.0	0.0
