12
Coordinates from ORCA-job run
  C   -0.61608787812747     -0.82205469743432     -0.25013618321919
  C   0.15879748068435      0.50775178567106     -0.16543292027364
  Br  -1.50918857444764     -0.99493670207937     -1.97117115251538
  H   -0.56865244211130      1.31940212389544     -0.26092570347899
  H   0.08015575680233     -1.66147053968090     -0.17882246316841
  C   -1.59611210468429     -0.90041376086332      0.82401406575318
  N   -2.40359739741103     -0.96367003807999      1.67440088743747
  C   1.11654488309409      0.61074984824587     -1.28284445608693
  N   1.95088664824952      0.69713484477217     -2.10550514022000
  N   0.77671113637526      0.58455309669157      1.14509698414700
  H   1.65326264711757      0.07764763245586      1.16501070863777
  H   0.95727984445862      1.54530640640593      1.40531537298712
