12
Coordinates from ORCA-job run
  C   -0.94485338351768     -0.49706845420621      0.05042260206025
  C   0.30690882733629      0.37250766812810     -0.20954942102946
  Br  -1.12135121711033     -0.95961246037665      1.92480790464474
  H   0.39803603330050      0.44869034651043     -1.30390041753203
  H   -1.82529342062936      0.10072195438627     -0.19600246456640
  C   -0.92333391449135     -1.70292794529216     -0.76668686971274
  N   -0.87313879120570     -2.64781450204184     -1.46337313379999
  C   1.51355140902342     -0.31127357381564      0.26564957254559
  N   2.50224844314221     -0.81414143698205      0.65036029491394
  N   0.14410309295089      1.66474060569274      0.43908505294450
  H   1.01235689810773      1.99661150011776      0.83497396657326
  H   -0.18823397690662      2.35156629787924     -0.22578708704166
