12
Coordinates from ORCA-job run
  C   -0.88656154590576     -0.54549550944448     -0.46113388545925
  C   0.18484295349023      0.56097954103091     -0.37944125185509
  Br  -2.66818306760476      0.22380114412983     -0.36760737711984
  H   -0.07656921211094      1.31687861274712     -1.12586318370887
  H   -0.82414108371403     -1.05548187873666     -1.42480637283683
  C   -0.69889612519429     -1.50828167209969      0.61614243698301
  N   -0.49953682357400     -2.25596372550071      1.50042743929010
  C   1.48074863828067     -0.03731074597181     -0.76970273530394
  N   2.52368772287849     -0.50453775339370     -1.04438813118551
  N   0.17587329850312      1.18183066337495      0.92620363681622
  H   0.69339403578494      2.05106349086164      0.91093169948302
  H   0.59534120916634      0.57251783300259      1.61923772489700
