12
Coordinates from ORCA-job run
  C   -0.86415086315804     -0.53418265660364     -0.40569330226536
  C   0.27855108596612      0.49710875710457     -0.36242792443446
  Br  -2.57478885139557      0.38457367922502     -0.18703930148452
  H   0.07535619883823      1.22658350368926     -1.16178372088514
  H   -0.90780748490215     -1.00065674661882     -1.39211610415153
  C   -0.71328457094873     -1.55541420375424      0.62043398888520
  N   -0.59175384530355     -2.41025176905971      1.41673210506230
  C   1.52588462137735     -0.19834622507679     -0.70570404817457
  N   2.52167979972124     -0.74562994562560     -1.00099231290556
  N   0.38672569789997      1.06284155809058      0.96982153060058
  H   1.25073974874532      1.58073095486923      1.06858882670783
  H   -0.38815153684019      1.69264309376015      1.13918026304522
