12
Coordinates from ORCA-job run
  C   -0.55688020613161     -0.88248878785894     -0.17216412612474
  C   0.13204697339070      0.49568030783499     -0.21656214209878
  Br  -1.38404741337281     -1.29889824929293     -1.88438760200149
  H   -0.64063674637666      1.24375374230208     -0.41752446597073
  H   0.18714159363917     -1.66247476312910      0.00838331176545
  C   -1.56286307822197     -0.90654500715900      0.88041739685628
  N   -2.39083848433932     -0.92897324696339      1.71301571809016
  C   1.11498410057454      0.53863435080145     -1.31571033203501
  N   1.96690152563009      0.58956303723559     -2.12323173242739
  N   0.70436275065442      0.75366701843090      1.09171832191002
  H   1.60940805042952      0.30947985318450      1.18714470830641
  H   0.81842093412393      1.74660174461387      1.24790094372982
