12
Coordinates from ORCA-job run
  C   -0.95456152097718     -0.45213208732028     -0.12632521863928
  C   0.36267937619945      0.31776986905858     -0.30608106225977
  Br  -1.62400036933854     -0.27956917978952      1.69688564810040
  H   0.66766862200726      0.15030971790215     -1.34600725838994
  H   -1.70141604150761      0.01904618136941     -0.76816778319963
  C   -0.80219525101117     -1.86003890589466     -0.46198293358201
  N   -0.65816425762749     -2.98679016558252     -0.76198281004255
  C   1.41893940961561     -0.24067562824878      0.56186962927139
  N   2.28738874531119     -0.62086117003967      1.25579087197120
  N   0.11845119150742      1.73784541442453     -0.13958647186706
  H   -0.04358586200314      1.95041997806190      0.83820281854115
  H   0.92879595782419      2.26467597605886     -0.44261542990389
