12
Coordinates from ORCA-job run
  C   -0.86152451653463     -0.45339433161504      0.09307757409581
  C   0.33990305766622      0.44448470160264     -0.31233891127725
  Br  -0.80515841209734     -0.88308497126663      1.99113378807748
  H   0.22608482632692      0.62156565390119     -1.38968052089032
  H   -1.78287075948916      0.11519310145724     -0.05740193002285
  C   -0.90775328344796     -1.67481459969758     -0.69643819282118
  N   -0.92718327247132     -2.63575097432285     -1.37282104491542
  C   1.59538530696345     -0.29319093561154     -0.11979010951421
  N   2.59674675121405     -0.88288156245247      0.04454476922768
  N   0.42084532400562      1.72785123901491      0.34372836029411
  H   0.49518698117060      1.61670981415780      1.34748288202471
  H   -0.38966200330643      2.29531286483232      0.12950333572144
