12
Coordinates from ORCA-job run
  C   -0.83156442658761     -0.57390173791809     -0.42007005312165
  C   0.26671176601564      0.50397574393704     -0.36112373149729
  Br  -2.58326686511259      0.27637869904846     -0.25619169154861
  H   0.05336674392806      1.21620475655871     -1.17321204558185
  H   -0.83045111728796     -1.05329410807607     -1.40136571426209
  C   -0.66463174248933     -1.57590773333111      0.62251517319508
  N   -0.52646566947164     -2.41467533686277      1.43300452060259
  C   1.54929093537719     -0.14304680852479     -0.66680727142930
  N   2.57309917836054     -0.65198638961118     -0.93362377463704
  N   0.31884756734952      1.08756362473354      0.96681257125634
  H   -0.48457811193981      1.68768297941409      1.10936610290868
  H   1.15864174185800      1.64100631063216      1.08069591411513
