12
Coordinates from ORCA-job run
  C   -0.82867226522182     -0.55133298225846     -0.45506543290155
  C   0.27962535214455      0.51159344013185     -0.34006495495149
  Br  -2.57438077855798      0.31193384012883     -0.29830996962578
  H   0.09227792624177      1.25011415456842     -1.13498708924155
  H   -0.81342279481411     -0.99872353944340     -1.45112352099861
  C   -0.69347741621726     -1.58772206478243      0.55793648525712
  N   -0.58178436328863     -2.45189931254797      1.34548990835803
  C   1.56159622909880     -0.14110124757395     -0.63713361617356
  N   2.58638786904470     -0.65175699612236     -0.89685969314494
  N   0.30953281578186      1.05445556537305      1.00562175007302
  H   1.15219673556293      1.59537894193684      1.15350834519303
  H   -0.49087930977480      1.65806020058958      1.14998778815630
