12
Coordinates from ORCA-job run
  C   -0.94138564395435     -0.52101672227864     -0.01241465168049
  C   0.28354353370829      0.40426295501849     -0.19283967904818
  Br  -1.15992550399166     -1.04778515709867      1.84216171204059
  H   0.37565558522818      0.57745391060162     -1.27455955662493
  H   -1.83282667202691      0.05468358876814     -0.27073812606264
  C   -0.84307005339415     -1.69954096916636     -0.86266014068818
  N   -0.73172900073877     -2.62119701396259     -1.58296255690120
  C   1.50863374798635     -0.28234426444551      0.23056207931994
  N   2.50684281749174     -0.80199819632750      0.56534370114479
  N   0.07308794294781      1.64594515324309      0.53460179676254
  H   -0.09525626435601      2.41017754756489     -0.10425238113205
  H   0.85642951109947      1.88035916808305      1.12675780286982
