12
Coordinates from ORCA-job run
  C   -0.53557518474720     -0.81256958770910     -0.19410074788716
  C   0.21699973407799      0.54223288769783     -0.31112516728816
  Br  -1.47095819816450     -1.24281144199566     -1.84563674877267
  H   -0.51321848385873      1.29538383034984     -0.62536532701293
  H   0.17937959477821     -1.62112822426102     -0.02131431736004
  C   -1.48220407519459     -0.74406831341865      0.90992405287099
  N   -2.21788806547102     -0.63104547598588      1.81930737646052
  C   1.23718867719199      0.42485306081172     -1.36109850665904
  N   2.07541479053877      0.29886821055028     -2.17288053733220
  N   0.83961881077546      0.99142458046155      0.91394496780423
  H   1.52221341707282      0.32706405396015      1.25658301806778
  H   0.14902898300080      1.17179641953895      1.63176193710868
