12
Coordinates from ORCA-job run
  C   -0.84952501589480     -0.58255604688147     -0.48443254745567
  C   0.17466309929706      0.56566322452159     -0.37605068085140
  Br  -2.66158955617788      0.11856615794749     -0.45133193872417
  H   -0.09573103015753      1.30929593765254     -1.13148567977761
  H   -0.73770022978078     -1.09535273982175     -1.44215391026082
  C   -0.65967510143679     -1.53131738623364      0.60490801533902
  N   -0.46209830131433     -2.26634164942970      1.50003743332700
  C   1.50397109254508      0.01979754045896     -0.72871307930564
  N   2.57174798519845     -0.40597143601522     -0.97353917598043
  N   0.10413489574436      1.18710620247909      0.92717849208569
  H   0.53491922720775      0.60019004527305      1.63243163645270
  H   0.57788293476941      2.08092015004905      0.92315143515134
