12
Coordinates from ORCA-job run
  C   -0.84846891015766     -0.61086450192032     -0.44988372116627
  C   0.16232028540435      0.55329077255586     -0.40040309066013
  Br  -2.66899130237708      0.06687121446516     -0.41664935559398
  H   -0.12557019468378      1.26220929841177     -1.18237970801505
  H   -0.74322599741243     -1.15775299010004     -1.38928385713635
  C   -0.62956237690221     -1.51527042959459      0.67116945502537
  N   -0.40810476431901     -2.21321679035503      1.59009322069761
  C   1.49378010733053      0.00779993526273     -0.74611575609689
  N   2.56236610486711     -0.41914980535291     -0.98503691864933
  N   0.09928709912763      1.22675697988381      0.87715284162099
  H   0.56202293847261      2.12509455189448      0.83080097473364
  H   0.54514701064992      0.67423176484908      1.60053591524039
