12
Coordinates from ORCA-job run
  C   -0.53292648376656     -0.90065412282609     -0.15289295927551
  C   0.12164710954371      0.49277023487053     -0.22928519398823
  Br  -1.33434681140209     -1.38380391418234     -1.85991944895362
  H   -0.66764372019455      1.21532942619124     -0.45734765190542
  H   0.22842488761624     -1.65671841690644      0.05459564970131
  C   -1.54738647012571     -0.92071215307970      0.89147086728076
  N   -2.38188554959281     -0.93984766711788      1.71759950609070
  C   1.11413037314500      0.53047419499356     -1.32003496632710
  N   1.97384714543530      0.58017829189991     -2.11927452097420
  N   0.67501963278519      0.80060479265378      1.07655976950309
  H   0.76153263780897      1.79999030466110      1.20694160306543
  H   1.59058724874732      0.38338902884237      1.19158734578278
