12
Coordinates from ORCA-job run
  C   -0.61242499570190     -0.83707906892727     -0.20571572460773
  C   0.15551481073264      0.49930566725213     -0.19026405833649
  Br  -1.50810080299701     -1.10239875855079     -1.91366005090784
  H   -0.57716046154762      1.30148204430666     -0.31975290973905
  H   0.08829563723013     -1.66814084016139     -0.09270045424528
  C   -1.59054769041498     -0.86461694035689      0.87268965137022
  N   -2.39804685900902     -0.88537308428462      1.72519953834523
  C   1.10671010908028      0.55403478584662     -1.31638200519970
  N   1.93745196441450      0.60409061270757     -2.14575763349549
  N   0.78051735097335      0.64184492294913      1.11172458952846
  H   0.95686768202491      1.61506489030534      1.32432081552414
  H   1.66092325521472      0.14278576891350      1.14929824176354
