12
Coordinates from ORCA-job run
  C   -0.63433408604145     -0.81877917369757     -0.21140741730704
  C   0.16352579997466      0.49959419020042     -0.18591064747104
  Br  -1.55595814704615     -1.03815887469853     -1.91196656647442
  H   -0.55197494640924      1.31999001199684     -0.29639735427966
  H   0.04867247469702     -1.66697018865282     -0.11961118235634
  C   -1.59924678958316     -0.84250482000153      0.87872196018007
  N   -2.39299039610014     -0.86362554988932      1.74399412958853
  C   1.10473726711724      0.54758500369089     -1.32075089072280
  N   1.93091351631618      0.58777968232637     -2.15525121213991
  N   0.80511753531517      0.61003238503174      1.11142316697719
  H   1.67334447788799      0.08919813659600      1.13249974840939
  H   1.00819329387188      1.57585919709751      1.33365626559604
