12
Coordinates from ORCA-job run
  C   -0.83539002882379     -0.44618228426253      0.24312515807118
  C   0.29040485588993      0.41763256179511     -0.38995230368592
  Br  -0.52628395910733     -0.71285797232378      2.14688628666300
  H   0.03392361988854      0.50274023174654     -1.45376930316532
  H   -1.77659772032944      0.10466819748726      0.16730128389405
  C   -0.96695488689377     -1.73027352698091     -0.42872126558631
  N   -1.06269947493616     -2.74421822006938     -1.01533097411098
  C   1.57007897086813     -0.29803624219969     -0.30279266338065
  N   2.59118878739550     -0.87111185663186     -0.22295168742244
  N   0.43872732865613      1.75190867383069      0.14020622349879
  H   0.64295852779766      1.72662063374758      1.13150750239961
  H   -0.39935602040540      2.29810980386097     -0.01450825717500
