12
Coordinates from ORCA-job run
  C   -0.61527753548740     -0.74425347210607     -0.23107677908095
  C   0.26297939328468      0.53705575639633     -0.28026459572216
  Br  -1.61679536029045     -0.97479267156182     -1.88382682280691
  H   -0.39683548728213      1.37584973597489     -0.52583410325276
  H   0.02048645873238     -1.62714912442848     -0.12615743097949
  C   -1.53180960356065     -0.65573508593499      0.89662543316632
  N   -2.23912852526490     -0.52775186067046      1.82642881736201
  C   1.24569634400884      0.39429418469525     -1.36239048747624
  N   2.05238977037715      0.24840191706198     -2.20222378386265
  N   0.95063776907824      0.84161035044663      0.95446482983816
  H   0.29532393068978      1.03722033848141      1.70079631763208
  H   1.57333284571447      0.09424993164532      1.23445860518260
