12
Coordinates from ORCA-job run
  C   -0.85066198529358     -0.47460589975619      0.08293883026851
  C   0.32822492493197      0.46389318590209     -0.29646906582177
  Br  -0.76926495696884     -0.97555931342159      1.96275100982802
  H   0.20068092135530      0.68049302986731     -1.36486743086712
  H   -1.78523739259248      0.07920229226226     -0.03872404555672
  C   -0.87699348935224     -1.66564881636122     -0.75254851195724
  N   -0.87941783447275     -2.59932393479937     -1.46637697716677
  C   1.60001353720347     -0.25466531398520     -0.14333262980704
  N   2.61324283873901     -0.83257202490588     -0.01340284001969
  N   0.38765625629936      1.72221620753358      0.40810930118369
  H   -0.43226292128165      2.28368155097676      0.21486258348306
  H   0.46402010143242      1.57488903668746      1.40705977643309
