12
Coordinates from ORCA-job run
  C   -0.84167363121411     -0.55967510092795     -0.41657198320709
  C   0.27368845168093      0.50081373163127     -0.36285161720815
  Br  -2.57891316372346      0.31813565305338     -0.24415209488357
  H   0.06824823081234      1.21602898718579     -1.17439398842241
  H   -0.85316321268309     -1.03891900019011     -1.39777580746634
  C   -0.68607335455124     -1.56399811530294      0.62546040434043
  N   -0.55847495789433     -2.40433459083313      1.43606254825769
  C   1.54401938463648     -0.16775372970808     -0.67356774049219
  N   2.55290614224379     -0.70466071813824     -0.94232290479648
  N   0.34075784867616      1.08399277513077      0.96454361135496
  H   -0.45226536531482      1.69679766182916      1.11055166542630
  H   1.18994362733135      1.62357244627009      1.07501790709686
