12
Coordinates from ORCA-job run
  C   -0.63016911178122     -0.81347267950099     -0.26819782794769
  C   0.23317480255797      0.46466165354975     -0.22556390757233
  Br  -1.63471073763187     -0.92304380735635     -1.92957869082191
  H   -0.42905610320669      1.32482921041444     -0.40105776368635
  H   0.02472438974954     -1.68490466820131     -0.21914504208312
  C   -1.54608529854210     -0.81111074662965      0.86390936784158
  N   -2.26345045391920     -0.75280633596125      1.79257066129093
  C   1.21646902331006      0.42509203988001     -1.31193952969168
  N   2.03300037159060      0.40397681457108     -2.15487256367096
  N   0.92480893157881      0.47525170155187      1.05778301383098
  H   1.75637591947954      1.05053541962206      1.01759986377752
  H   0.31391826681455      0.84299139806034      1.77749241873303
