12
Coordinates from ORCA-job run
  C   -0.56567985432768     -0.87049536433644     -0.23319184496331
  C   0.20855951937354      0.46416060581095     -0.24753709106307
  Br  -1.51098656455250     -1.14885250551869     -1.90914915861989
  H   -0.50463089762329      1.26488035149618     -0.49168704998528
  H   0.14453075306094     -1.69029314185975     -0.11315385581776
  C   -1.51175508786401     -0.86291965879896      0.87385218563018
  N   -2.25567289993227     -0.79712301348371      1.78085296621168
  C   1.22252010549957      0.42917677071244     -1.30538049188143
  N   2.05818271745607      0.41979803552553     -2.12964345461498
  N   0.86051346049578      0.59889950467759      1.04956477729858
  H   0.20486783893791      0.96466216320759      1.72982523162922
  H   1.65055090947593      1.22910625256725      0.99464778617607
