12
Coordinates from ORCA-job run
  C   -0.92832808825756     -0.51081708945421      0.09561295137662
  C   0.20348403579209      0.46460982857556     -0.26263221600735
  Br  -0.73234118943354     -1.17423771092951      1.91826645492746
  H   0.02053960857644      0.76583780874373     -1.30101630814890
  H   -1.86457819466281      0.05032769598985      0.07745374217384
  C   -0.98210445971735     -1.63127143644202     -0.83174238952910
  N   -1.01807574705287     -2.51200204330437     -1.60858482980970
  C   1.51368573276637     -0.21529731726135     -0.22117100389375
  N   2.58369301130129     -0.69695342984774     -0.16273039074132
  N   0.10184372372969      1.64866178055397      0.56863102935521
  H   0.39228175510202      1.43552500484084      1.51573818801843
  H   0.70989981185623      2.37561690853526      0.21117477227858
