12
Coordinates from ORCA-job run
  C   -0.87343712968814     -0.43917162821755      0.03210320676897
  C   0.39808447622719      0.37541531564007     -0.33394583759767
  Br  -1.16444779421205     -0.45422407799108      1.95757874881726
  H   0.47953608434938      0.31928165851366     -1.42711916755020
  H   -1.74223262120545      0.06642785445751     -0.39743240844704
  C   -0.80050195031396     -1.80143400402110     -0.47391481181107
  N   -0.71294586917415     -2.88465508082311     -0.92162487039733
  C   1.58498846958912     -0.28176102524207      0.22864723127654
  N   2.52819567232431     -0.80800563900306      0.68787454457820
  N   0.38661453435373      1.76949149497255      0.04021593942685
  H   -0.35826193958676      2.26510884674461     -0.43338057648447
  H   0.27440806733679      1.87452628496956      1.04099800141997
