12
Coordinates from ORCA-job run
  C   -0.60782052883356     -0.84145636429844     -0.20147093369709
  C   0.15430749013646      0.49816750021138     -0.19390809320920
  Br  -1.49475101126660     -1.12442815085304     -1.91107113161297
  H   -0.58103410910208      1.29599080558390     -0.33487166802683
  H   0.09573552436824     -1.66876012476990     -0.07854877231133
  C   -1.59034019475297     -0.86491097669404      0.87301155065312
  N   -2.40052315329886     -0.88366735466861      1.72295644054080
  C   1.11108962183578      0.54731735148795     -1.31549541631843
  N   1.94438588508969      0.59648397552259     -2.14232835771403
  N   0.77120057749477      0.65582858897434      1.11027486485427
  H   0.94435861928975      1.63154728373233      1.31305179664852
  H   1.65239127903939      0.15888746577156      1.15839972019318
