12
Coordinates from ORCA-job run
  C   -0.60113563769677     -0.75944025294303     -0.21719526680083
  C   0.24519937562402      0.54196813570511     -0.28935423697015
  Br  -1.62248700143366     -1.02610721507646     -1.85226111735044
  H   -0.43764571813703      1.36267524268893     -0.53301098605768
  H   0.05734502511138     -1.62606240657603     -0.11639303638260
  C   -1.50136195713652     -0.68633022341803      0.92470478706306
  N   -2.19496857178364     -0.57373981566571      1.86665175766702
  C   1.21656264583179      0.41199755036073     -1.38324172680023
  N   2.01647565564761      0.27437585218171     -2.23095311373347
  N   0.94209574505849      0.87401973894346      0.93311323128230
  H   0.29242541871537      1.06182166449004      1.68636488345403
  H   1.58549502019898      0.14382172930929      1.21157482462900
