12
Coordinates from ORCA-job run
  C   -0.83175527051202     -0.56456951101569     -0.43275801752530
  C   0.28454185090947      0.49400313744005     -0.36096388806088
  Br  -2.57072859691688      0.31970398119198     -0.32006961055321
  H   0.10261486637126      1.20026128514032     -1.18582132162222
  H   -0.81704206410521     -1.05592840191864     -1.40791204488589
  C   -0.70834748156205     -1.55529752640920      0.62643230173393
  N   -0.60629332128235     -2.38183678495008      1.45472569593079
  C   1.56164750788279     -0.17947975918072     -0.63041089011099
  N   2.58153756613799     -0.70919042767585     -0.87034990464186
  N   0.31733615140909      1.09218811167970      0.96092649671352
  H   -0.47736116437308      1.70879132350879      1.07854375908302
  H   1.16484995604098      1.63035457218934      1.08865742393909
