12
Coordinates from ORCA-job run
  C   -0.63571776957642     -0.80545145860628     -0.28132249413256
  C   0.23549053179047      0.46643561824067     -0.21618992860736
  Br  -1.64475619865375     -0.87772250122038     -1.94176582064300
  H   -0.42282638153500      1.33375090274898     -0.36995650287207
  H   0.01413268244825     -1.68157521940689     -0.25000341667438
  C   -1.54819572794120     -0.81873563361104      0.85355822549563
  N   -2.26204929527284     -0.77337079451247      1.78565383381841
  C   1.21236227858111      0.44599403997385     -1.30864805529243
  N   2.02055071631764      0.44436616258153     -2.15986965331115
  N   0.93324652953188      0.44643977442274      1.06372167628312
  H   1.76796151168016      1.01782450339691      1.03118568067369
  H   0.32780112262968      0.80304460599237      1.79363645526210
