12
Coordinates from ORCA-job run
  C   -0.93731894632309     -0.46975838493949      0.17981699669901
  C   0.21147600394308      0.41248505018287     -0.33216867351852
  Br  -0.74181296340147     -0.84058497873757      2.08378544296706
  H   0.02802401820259      0.55018806753798     -1.40449942869022
  H   -1.86198124771411      0.10140561845768      0.07686281523660
  C   -1.02094395250313     -1.72035101224979     -0.55984638113501
  N   -1.08221511122943     -2.70874333348835     -1.19222159144485
  C   1.50785086410174     -0.28017157008132     -0.18869014777477
  N   2.56776641761729     -0.77113714681620     -0.06316524542219
  N   0.13864907210652      1.71578409039548      0.30018604462240
  H   0.76167877658005      2.36215061042282     -0.16890244841000
  H   0.42982706861996      1.64973298931587      1.26884261687048
