12
Coordinates from ORCA-job run
  C   -0.92909407304491     -0.47575138220192     -0.20202099886555
  C   0.38133130695296      0.32300728317694     -0.27347263300734
  Br  -1.75503619676630     -0.31291251112503      1.55602651128483
  H   0.78054435501659      0.15475182408131     -1.28077683512231
  H   -1.62847647001527     -0.02278971748608     -0.90735560958831
  C   -0.71811121397052     -1.88006335796807     -0.52090419645122
  N   -0.52481377147524     -3.00181102956124     -0.81196287671488
  C   1.36884396490831     -0.20286947339611      0.69036622252164
  N   2.17766701873088     -0.55808847126887      1.46486135630956
  N   0.09107547792663      1.73837698201741     -0.14322721079398
  H   -0.15388711642116      1.95698012620331      0.81568805710500
  H   0.90995671815804      2.28216972752835     -0.38722178667746
