12
Coordinates from ORCA-job run
  C   -0.84958404541905     -0.59687713722229     -0.46500604796368
  C   0.18087457118191      0.54889496265065     -0.40053472969657
  Br  -2.65806717755702      0.11280918418657     -0.47388328752720
  H   -0.07529733099219      1.25622899542558     -1.19481607183897
  H   -0.73398663121189     -1.15052864179866     -1.39928395633058
  C   -0.67011283755318     -1.50031500036591      0.66398375519925
  N   -0.47936486771047     -2.20200940923049      1.58692172349466
  C   1.50983813772138     -0.02441169676646     -0.70913075794460
  N   2.57579429707319     -0.47448250680222     -0.91529272396312
  N   0.10019290929876      1.23456559119097      0.86947683795494
  H   0.51213927337476      0.67697643851663      1.60902172927566
  H   0.58757370179381      2.12014922021563      0.82854352934021
