12
Coordinates from ORCA-job run
  C   -0.87037516044487     -0.44369368055218      0.01667452066543
  C   0.38749503937653      0.40992191877476     -0.30417595749691
  Br  -1.09108504170229     -0.67007254661431      1.93805120000265
  H   0.43149693998873      0.47082692957850     -1.39922734671467
  H   -1.75387219644203      0.10309122378962     -0.32320019313997
  C   -0.81876358453636     -1.74183110153993     -0.63893621323949
  N   -0.75450153911936     -2.76748530998781     -1.20921197646715
  C   1.59320041431379     -0.29894545663261      0.14454719201739
  N   2.55227589928960     -0.86672054626939      0.51223203161794
  N   0.38821072671626      1.75622269495455      0.21639711679272
  H   -0.37143330977326      2.29657504227470     -0.17793119705053
  H   0.30835181233328      1.75411083222409      1.22578082301258
