12
Coordinates from ORCA-job run
  C   -0.38229550201635     -0.27709051976741      0.02986829611260
  C   0.73634620044093      0.53307827056178     -0.05786733380579
  N   -1.64206613315183      0.22951971456240      0.17022119353948
  H   -1.70554582047991      1.22671184990077      0.31099198313030
  H   -2.27119383370288     -0.31167396886396      0.74267609917645
  N   -0.30328947039607     -1.63901399518639     -0.01686826049075
  H   -1.06736323430195     -2.10764379106990     -0.47843424113863
  H   0.60632036452979     -2.02354942746271     -0.22417819853234
  C   0.61475376010942      1.92321832362787      0.20405227539468
  N   0.43539464909536      3.06520622998027      0.42789464553347
  C   1.98802988041138     -0.03768195963618     -0.40919389023597
  N   2.99190913946211     -0.58108072664654     -0.69816256868349
