12
Coordinates from ORCA-job run
  C   -0.38293506443302     -0.26908712268134      0.06936883215706
  C   0.73688960543717      0.51858211966189     -0.13316800119446
  N   -0.64163016624671     -0.87767797303555      1.26348640979944
  H   -0.02553186124675     -0.63802800134116      2.02585544189554
  H   -1.61419609327322     -0.94437160711811      1.52069827444550
  N   -1.30585692369634     -0.49286346695305     -0.91121934373304
  H   -1.07515957546559     -0.13641959260071     -1.82661974142560
  H   -1.72727316713768     -1.40871592594333     -0.91614572368043
  C   1.54646200002163      0.88230040753894      0.97507047226480
  N   2.17339524950423      1.13785507761493      1.93850507953443
  C   1.05852958911334      0.95164732502389     -1.44651772695298
  N   1.25730640742294      1.27777875983358     -2.56031397311026
