12
Coordinates from ORCA-job run
  C   -0.36879160253717     -0.26832638666869      0.04156864733521
  C   0.74980091916796      0.54248488825053     -0.10249874077710
  N   -0.26840272464686     -1.62985437068747      0.09623309905541
  H   -1.05133892901646     -2.15045282825014     -0.26966187104341
  H   0.62941092768954     -2.00804307140691     -0.16483306637610
  N   -1.60896289021077      0.25367672859023      0.17555568133749
  H   -2.36976618722108     -0.31974945341465      0.49363287508205
  H   -1.72261931102498      1.25228473339471      0.23239266460772
  C   2.02114015850140     -0.06043559370486     -0.27305008562057
  N   3.03116388922812     -0.65290549087374     -0.39995911325591
  C   0.59888141220427      1.94587512848341      0.03798306241840
  N   0.36048433786602      3.09544571628758      0.13263684723681
