12
Coordinates from ORCA-job run
  C   -0.39691273305717     -0.25325484801260      0.04495568265676
  C   0.76462531573587      0.48792005613740     -0.08547045048267
  N   -0.68143082067917     -0.97365728581390      1.16900744184162
  H   -0.04653758968870     -0.85423423257585      1.94421308068009
  H   -1.65416801889547     -1.01271671370811      1.43100966180398
  N   -1.33821331068831     -0.31546503293604     -0.94154061030477
  H   -1.81354854815602     -1.19900699518135     -1.04021094493167
  H   -1.09440216845328      0.12559880613229     -1.81573323429542
  C   1.60222908835426      0.68111734290415      1.04456255815426
  N   2.25028033042091      0.79256722670816      2.02138989982859
  C   1.10086497044251      1.04385109140894     -1.34790454527756
  N   1.30921348466457      1.47828058493691     -2.42227853967319
