12
Coordinates from ORCA-job run
  C   -0.39903287956261     -0.24860382835897      0.05124847772370
  C   0.76789623131145      0.47981941948214     -0.10039273005876
  N   -1.58491219035858      0.33436829210450      0.39311796929194
  H   -2.40917554410338     -0.07180517023052     -0.02141988781872
  H   -1.59017290896113      1.34287007561909      0.42727700685842
  N   -0.44471815533278     -1.60086681984468     -0.12982507052371
  H   0.44238834099708     -2.05794881137500     -0.27927209961302
  H   -1.07338582660099     -2.10427124981808      0.47656465660894
  C   0.71166771651510      1.89851051244533     -0.10299143327104
  N   0.58822624119830      3.06941132267289     -0.08746463379036
  C   2.00359644909164     -0.20306899757757     -0.25080727271734
  N   2.98762252580590     -0.83741474511912     -0.37603498269005
