12
Coordinates from ORCA-job run
  C   -0.38621221489964     -0.24851501997134     -0.07369890017740
  C   0.77444958176702      0.51429581427524     -0.01925355945813
  N   -0.33786085174922     -1.59463107075353     -0.25373463989194
  H   -1.14586439618883     -2.14641458375513     -0.02162429049376
  H   0.55262986617606     -2.04516038335466     -0.11283384555345
  N   -1.61435852695704      0.33405388378872     -0.07236295462433
  H   -2.41570499717490     -0.22269381684676      0.17108336754052
  H   -1.66080978647210      1.30383629117291      0.19838346457432
  C   0.67192947408443      1.92028151282002      0.12461543618997
  N   0.49617779575372      3.07785395511975      0.25296696419242
  C   2.03219680065011     -0.13619595005945     -0.07512384194040
  N   3.03242725501041     -0.75671063243578     -0.11841720035780
