12
Coordinates from ORCA-job run
  C   -0.39184041827047     -0.26330134746832     -0.00203733671609
  C   0.75655883980955      0.50944786979532      0.00246268714398
  N   -0.37023597701569     -1.60294387691935     -0.26414342320362
  H   -1.03522527628902     -2.16126357110145      0.24814178797772
  H   0.54353451265165     -2.02202914410837     -0.35278752596343
  N   -1.62579989685338      0.26032871349167      0.25629768567773
  H   -1.67092304036291      1.26417258305898      0.34847451131689
  H   -2.39130290011699     -0.14438486235109     -0.26004388999715
  C   0.64665962009832      1.92301129391191      0.07643117058724
  N   0.47573841153238      3.08585631162076      0.14666508735181
  C   2.02499162997261     -0.12460723136229     -0.06634539546952
  N   3.03784449484394     -0.72128673856778     -0.13311535870558
