12
Coordinates from ORCA-job run
  C   -0.38581838935183     -0.27334410921378      0.01876723443533
  C   0.74288338293509      0.52554588934743     -0.03587398164477
  N   -1.58889156160076      0.19126028525056      0.46656072414209
  H   -2.40289549600184     -0.18216180740903      0.00355053970655
  H   -1.63768711455383      1.18073359376515      0.65852371652795
  N   -0.37473998980279     -1.58186226010003     -0.36980083869358
  H   -0.96615987175229     -2.20215460048010      0.16120320648564
  H   0.52738535139486     -1.96757244064076     -0.60529448126429
  C   0.62130539332770      1.92334288865742      0.18178388661286
  N   0.44400870985104      3.07049027663171      0.37930710319560
  C   2.00519819059040     -0.06370525257685     -0.31045517862712
  N   3.01541139496427     -0.61957246323172     -0.54927193087626
