12
Coordinates from ORCA-job run
  C   -0.40870412666764     -0.17832354137461      0.06726445722427
  C   0.81162498291846      0.47008334629359     -0.07733751697663
  N   -1.18567730267345     -0.48876371416611     -1.00132775126485
  H   -2.17191808551106     -0.62706924671771     -0.86655039513669
  H   -0.85846967011658     -0.24801839605156     -1.92025048571175
  N   -0.92026016690012     -0.56738398585701      1.27493774220265
  H   -1.35007217287413     -1.47514147958279      1.26070386383645
  H   -0.34054858761493     -0.41568143498912      2.08560309512451
  C   1.14794376855741      0.94599126148612     -1.37385433299234
  N   1.27261825160208      1.25910250789196     -2.49883653437053
  C   1.66603392143811      0.61449877489548      1.04465636178177
  N   2.33742918784186      0.70970590817174      2.00499149628313
