12
Coordinates from ORCA-job run
  C   -0.35220293032808     -0.24903550925527      0.12003138147531
  C   0.75653789651706      0.55045256801536     -0.12230122357733
  N   -1.55572018420347      0.24250633127721      0.56334624668592
  H   -1.63584970218343      1.24540804717250      0.63911695250811
  H   -2.35147940216436     -0.18605206114391      0.12325103146771
  N   -0.32477057393559     -1.58880821719560     -0.07665820415831
  H   -1.00688029448552     -2.17485998335361      0.37097807746155
  H   0.51966684228637     -2.00936175699175     -0.41962040828640
  C   0.62887063852914      1.96100989318552     -0.05631330069176
  N   0.46518254556200      3.12505200735022     -0.00337817853180
  C   1.97413018772216     -0.10776708439768     -0.43880360793408
  N   2.88251497668371     -0.80654423466299     -0.69964876641893
