12
Coordinates from ORCA-job run
  C   -0.39030078333793     -0.26090409827187      0.05591077345888
  C   0.75213454689408      0.50311863426962     -0.10731653052351
  N   -1.61959945515042      0.29700236317670      0.25827722269367
  H   -2.39706363141641     -0.19095082682397     -0.15866389747081
  H   -1.66872460121796      1.30167633476577      0.17701264444473
  N   -0.36673239830693     -1.62532647061207      0.02629731350253
  H   0.54651510193384     -2.05247160112586     -0.01760440528619
  H   -1.01349317752076     -2.08973152393233      0.64469548117065
  C   2.02267468303531     -0.13069500615077     -0.10581800489436
  N   3.03800986934320     -0.72697267332269     -0.10077751294870
  C   0.63545076233355      1.90829676656038     -0.27362550509272
  N   0.46012908341043      3.06595810146711     -0.39838757905415
