12
Coordinates from ORCA-job run
  C   -0.38986451193904     -0.26125316325274      0.05312906697337
  C   0.75316906738037      0.50288678082514     -0.10620576986497
  N   -1.62715384700637      0.29682077164708      0.19873825150866
  H   -1.67848202359676      1.29739584823984      0.07890205259533
  H   -2.38966123967445     -0.21159354889710     -0.22145377631042
  N   -0.35954469553805     -1.62596014757195      0.07507292335177
  H   0.55718533194383     -2.04766393650048      0.07788350037917
  H   -1.02139319089273     -2.06830765714669      0.69398292498161
  C   2.02611337481614     -0.12298263776105     -0.04562846685383
  N   3.04385946139400     -0.71245602120752      0.00993593522710
  C   0.63351471094223      1.90087888098670     -0.32373209407865
  N   0.45325756217083      3.05223483063876     -0.49162454790912
