12
Coordinates from ORCA-job run
  C   -0.42330640487333     -0.20349215384170      0.05241059673513
  C   0.81795052454585      0.38922758167979     -0.10137246231238
  N   -1.40919860985093     -0.08720730732057     -0.88427690289808
  H   -1.15054956024236      0.36821679169676     -1.74677121525241
  H   -2.00118405475813     -0.89462520670701     -1.00173227694706
  N   -0.74751264082363     -0.94529985236096      1.15157029906474
  H   -0.06805458321816     -0.95224525939277      1.89762291810752
  H   -1.70411815161902     -0.87511218146241      1.46200429408616
  C   1.72409038082749      0.40806855917259      0.99150652418612
  N   2.42287392205830      0.38047348571606      1.93885543640606
  C   1.16376929155999      0.97184676729650     -1.34909751860315
  N   1.37423988639395      1.44014877552373     -2.40871969257267
