12
Coordinates from ORCA-job run
  C   -0.37975737396081     -0.27053662379646      0.07902486125060
  C   0.73211083111989      0.52108648404106     -0.15037791449683
  N   -1.64245340668675      0.24424102923324      0.14264809641385
  H   -1.71262158642632      1.25057886280857      0.11766778070540
  H   -2.26466813209396     -0.19934545236961      0.80026437865028
  N   -0.29081115233127     -1.62094585536586      0.25731805916419
  H   -1.05440545606689     -2.16413508590349     -0.11451519532729
  H   0.62026498585188     -2.02857425842171      0.10890286589053
  C   1.98539454324374     -0.09270643843536     -0.41188334157847
  N   2.99019801431107     -0.67203204545567     -0.61501119418160
  C   0.60179491676472      1.93462752814378     -0.12211133147771
  N   0.41495381627472      3.09674185552151     -0.08992706501297
