12
Coordinates from ORCA-job run
  C   -0.39591997340023     -0.25560184194920      0.02753127017478
  C   0.76544167941580      0.49274775751860     -0.05407927948871
  N   -0.85064148866893     -0.77326242674481      1.20614796132103
  H   -1.30093041720199     -1.67318480462311      1.14383085995768
  H   -0.23590685095636     -0.67178818314909      2.00016119266771
  N   -1.16683609459813     -0.52929432536136     -1.06487685612180
  H   -2.16112559809707     -0.56631848453997     -0.90232765803240
  H   -0.90175626185703     -0.06596427508310     -1.92116218681848
  C   1.62788641632345      0.56999814370825      1.07113793430405
  N   2.28831238239547      0.59131953115296      2.04573689073913
  C   1.07255963546233      1.17564442311928     -1.26028695549433
  N   1.25991657118269      1.70770448595154     -2.29381317320867
