12
Coordinates from ORCA-job run
  C   -0.36982776223735     -0.28225755687577      0.08214501537724
  C   0.71325197858098      0.54530757166936     -0.15805864105260
  N   -0.23438824323425     -1.62798675287896      0.26818978522527
  H   -0.97890175258767     -2.19860781362241     -0.10126716034934
  H   0.68995714313462     -2.00498245933704      0.12088871159743
  N   -1.64870818810328      0.18916440460487      0.14987962844939
  H   -1.75534795130087      1.19209954520102      0.11672818150919
  H   -2.25334149552440     -0.27310836206099      0.81076978003384
  C   1.98499621872541     -0.02748945345262     -0.42338499679484
  N   3.00724608649238     -0.57487790802361     -0.62809082243676
  C   0.53536455596600      1.95382467500681     -0.13366675360518
  N   0.30869941008843      3.10891410976936     -0.10413272795364
