12
Coordinates from ORCA-job run
  C   -0.36508379529402     -0.29926730007178      0.02382940061170
  C   0.70337794212565      0.57767256650843     -0.04567377517683
  N   -0.89067549706842     -0.71785530961313      1.21211577409581
  H   -1.22660520757992     -1.66825367715282      1.23135938256539
  H   -0.39006733211019     -0.43632055989388      2.04174797517798
  N   -0.96796447810724     -0.80554553108991     -1.09097114523597
  H   -1.96336496307438     -0.95068322508758     -1.02656274805547
  H   -0.65769850510305     -0.42895729070339     -1.97417984213910
  C   1.41608516922191      0.90618019046888      1.13769275909900
  N   1.95233234147543      1.13616385392796      2.16042961302472
  C   1.07026958036460      1.13510286381859     -1.29883460843078
  N   1.31939474514963      1.55076341888863     -2.37195278553646
