12
Coordinates from ORCA-job run
  C   -0.38645832237063     -0.27164576609571     -0.00232140621423
  C   0.74577983606415      0.52423608050896      0.00566397566113
  N   -0.35351691123981     -1.58461069188092     -0.37328517944149
  H   -0.98110951058775     -2.19856154426706      0.12194666658914
  H   0.56066504908684     -1.97473918764128     -0.54710796580444
  N   -1.61441037308983      0.20099042332505      0.36127404432401
  H   -2.39773289102215     -0.17950042639252     -0.14679132893582
  H   -1.67357115349040      1.19308912233951      0.53572165969472
  C   2.02085361378959     -0.07163901592369     -0.18107226415622
  N   3.04107664903852     -0.63506253322383     -0.34874603909300
  C   0.61444008705919      1.92459920480958      0.20047945663139
  N   0.42698392676228      3.07384433444189      0.37523838074482
