12
Coordinates from ORCA-job run
  C   -0.36894336400848     -0.27010506261461      0.00459817478216
  C   0.80747078549764      0.46148765075112     -0.03384230841633
  N   -1.13028998204787     -0.49425000180345     -1.10916774688268
  H   -2.12743866103951     -0.44436702166166     -0.95946938348907
  H   -0.82735291065224     -0.00305737113191     -1.93673310085414
  N   -0.85204524109206     -0.82123289762216      1.15062063142085
  H   -0.27137455716997     -0.76546246956515      1.97104316158083
  H   -1.35766151370603     -1.68295751195005      1.01569859993489
  C   1.58278040773507      0.55036214293341      1.15468534638377
  N   2.13259191385172      0.54834217144732      2.19650590873812
  C   1.13099143544000      1.18530065335339     -1.21120951183356
  N   1.28027168719172      1.73593971786373     -2.24072977136482
