12
Coordinates from ORCA-job run
  C   -0.36677511374077     -0.28122964527738      0.09948745257589
  C   0.70705557129972      0.54219319009588     -0.19135865837841
  N   -0.21320437296811     -1.60468736774127      0.39579689179099
  H   0.71806762340018     -1.97803427435340      0.28868373922290
  H   -0.94570101838813     -2.21555949796107      0.06927213282641
  N   -1.65398104055987      0.17337675581494      0.11040999873138
  H   -1.77289038182610      1.16893756459910     -0.00379956853066
  H   -2.25996576270999     -0.24067743616201      0.80166808561028
  C   0.50724013320917      1.94471280171153     -0.28631653183682
  N   0.26325372001793      3.09455736861500     -0.35558955541541
  C   1.99157949236307     -0.02895598767075     -0.39081329482106
  N   3.02532114990291     -0.57363347167058     -0.53644069177549
