12
Coordinates from ORCA-job run
  C   -0.38866844421723     -0.26928816833317     -0.00357836672619
  C   0.74917551314715      0.51850911208724      0.00516509863449
  N   -0.34631305983976     -1.61154431891775     -0.24907610372205
  H   0.57375457067603     -2.01992927304177     -0.31988142121925
  H   -1.00989915607957     -2.17128090694690      0.26364596292988
  N   -1.63244483809595      0.24132614401288      0.23301132466567
  H   -2.38619412486496     -0.17917828696433     -0.28805403440480
  H   -1.69130673581258      1.24564829220557      0.31186034153184
  C   0.62069952432140      1.93141267670312      0.05879320109887
  N   0.43470401300441      3.09290851061306      0.11059610793685
  C   2.02693131110067     -0.09876564527828     -0.03908624609097
  N   3.04956142666038     -0.68081813613966     -0.08339586463435
