12
Coordinates from ORCA-job run
  C   -0.39956740413819     -0.24573915513174      0.05987009231538
  C   0.76945094065135      0.47393249853392     -0.11586336140191
  N   -1.18043510973940     -0.63861125767861     -0.98848695803455
  H   -2.17422400731151     -0.64130134217312     -0.81876971166167
  H   -0.91440095689000     -0.28752024506334     -1.89625587132788
  N   -0.85335205174115     -0.61240959586608      1.29424446982567
  H   -0.23481398352077     -0.42096707442574      2.06824817093355
  H   -1.31426665677961     -1.50768711407430      1.34346808336827
  C   1.07986652290601      1.00221721503451     -1.39666502394343
  N   1.27366506104398      1.40349523778988     -2.48657939417335
  C   1.64030667880692      0.67288534400086      0.98773611958292
  N   2.30777096671236      0.80270548905377      1.94905338451699
