12
Coordinates from ORCA-job run
  C   -0.39504065079684     -0.25824416850020      0.01493183455808
  C   0.76289389518118      0.49853066952606     -0.03019097073377
  N   -1.60279354835194      0.27420204582629      0.36330148979200
  H   -1.62663519912085      1.27518437746292      0.48871207648601
  H   -2.40404373947767     -0.10426971612660     -0.11718809809678
  N   -0.41001641721802     -1.58920417948034     -0.28674838634999
  H   0.48922348885009     -2.01803941697138     -0.44668165182402
  H   -1.05159495978356     -2.15404516137834      0.24738417985980
  C   0.67869671953323      1.91066065019853      0.08985090796868
  N   0.52947975066546      3.07321572081953      0.20226228993958
  C   2.01559699950311     -0.14981690111437     -0.19221168432170
  N   3.01423366101582     -0.75717392026211     -0.33442198727788
