12
Coordinates from ORCA-job run
  C   -0.40450785126079     -0.24174834635632      0.03467096689727
  C   0.78076171266010      0.46570538861624     -0.06663018169413
  N   -0.85399640167397     -0.74760647423763      1.21984903961882
  H   -1.34158590656604     -1.62833475399481      1.16561413304919
  H   -0.22455282766821     -0.66702701723175      2.00426809081746
  N   -1.20713517408421     -0.48124862408871     -1.04327882370286
  H   -2.19861352967603     -0.47809236034127     -0.86108138690803
  H   -0.94047485831349     -0.02742707736094     -1.90421548574916
  C   1.67025861307085      0.50130881126798      1.03930594286810
  N   2.35262419848765      0.49072522005500      1.99880650834031
  C   1.08871814203362      1.14218621074436     -1.27630836980761
  N   1.27750388299051      1.67155902292785     -2.31100043372936
