12
Coordinates from ORCA-job run
  C   -0.38039326912662     -0.26442241284073     -0.04322357360099
  C   0.74475433029093      0.55064811455656     -0.08099030595604
  N   -0.29084238627811     -1.60245993333011     -0.26758868533658
  H   0.63020478337448     -2.01080739131026     -0.23192955905087
  H   -1.03913545854069     -2.19727620448183      0.04524980536792
  N   -1.62676605481149      0.25943778772561      0.09582574498543
  H   -1.69003393403189      1.21660877791868      0.40539468215995
  H   -2.37734387726412     -0.34206674692050      0.38931675602186
  C   0.59360120339334      1.94714550292253      0.10615343511215
  N   0.37916543367935      3.09226191633381      0.27973936363686
  C   2.01931983717785     -0.03857768952119     -0.27237917440185
  N   3.03746939213695     -0.61049172105257     -0.42656848893784
