12
Coordinates from ORCA-job run
  C   -0.37450962588634     -0.25244722327747      0.11076112862368
  C   0.76513728977699      0.52614679184194     -0.05528601381978
  N   -0.28931286012676     -1.59310397367889      0.31453665751138
  H   0.59481057210157     -2.03361019537158      0.11507919183523
  H   -1.10376566101031     -2.16240175308411      0.16075340275457
  N   -1.60782517654578      0.31183359879522      0.19761443321727
  H   -2.41822446841989     -0.26206953055293      0.03895596157518
  H   -1.69350926712447      1.27471374612740     -0.08736654326571
  C   0.62791186867865      1.92710052268507     -0.21974387314386
  N   0.42353426142859      3.07897034939078     -0.35689635982921
  C   2.03340488641133     -0.10489165225230     -0.09505557546577
  N   3.04334818071641     -0.71024068062312     -0.12535240999298
