12
Coordinates from ORCA-job run
  C   -0.36593758412513     -0.29697555323497      0.03693445706711
  C   0.70405285716520      0.57448004712726     -0.07071103250902
  N   -0.76035184468762     -0.82514148128091      1.23230427826751
  H   -0.16452652772739     -0.62765522552644      2.02229072398026
  H   -1.10914129395250     -1.77048315029456      1.20048608036319
  N   -1.10101409427098     -0.68763397158591     -1.04449442461047
  H   -2.08522467420665     -0.83141941617348     -0.88131089599302
  H   -0.88425358809312     -0.23098070055462     -1.91760568563522
  C   0.93647919781451      1.24809903120758     -1.29868080802051
  N   1.07009973967582      1.76394347958018     -2.34869551434205
  C   1.55270992939073      0.78036335042166      1.04873989172012
  N   2.20710788301713      0.90440359031421      2.01974292971211
