12
Coordinates from ORCA-job run
  C   -0.37200008794400     -0.26440518353855      0.06391001729052
  C   0.73256362310682      0.53964209631051     -0.21208084860331
  N   -0.29826785836267     -1.61897890861206     -0.00475950413799
  H   0.62199352242599     -2.00441530537983     -0.16112742042366
  H   -0.87212612851093     -2.16980770471120      0.61283799547882
  N   -1.56175708969076      0.28818276623093      0.41130840320408
  H   -2.40910403422957     -0.26517818071346      0.42173366273986
  H   -1.65824450494730      1.29074742745496      0.37991910540110
  C   1.98661669902660     -0.08949490371995     -0.36100774960459
  N   2.96247473419216     -0.73896331741611     -0.46493324763377
  C   0.54956942921028      1.94067728324242     -0.31461503658303
  N   0.31928169572339      3.09299393085233     -0.37218537712802
