12
Coordinates from ORCA-job run
  C   -0.37870536174618     -0.28221458183859      0.02332739607763
  C   0.72960407842217      0.54388904061920     -0.04525946475637
  N   -0.27380389226003     -1.64219934493260      0.07544240019205
  H   -0.99683085589544     -2.15718592226583     -0.40244450099032
  H   0.65415622757597     -2.02026273269369     -0.04354118107002
  N   -1.65342336626486      0.20567681563696      0.04377545061775
  H   -2.31163017166838     -0.30880160275940      0.60810636777252
  H   -1.74286968719063      1.20857472220238      0.11131729436651
  C   0.56787937245856      1.94553948445780      0.11256888122373
  N   0.35515022763847      3.09593258363639      0.24601370381336
  C   2.01125489533485     -0.02337798483151     -0.27226893723987
  N   3.04021853359549     -0.56557047723113     -0.45603741000698
