12
Coordinates from ORCA-job run
  C   -0.37469463142228     -0.27852415578505      0.07571418760544
  C   0.72180233483372      0.53629484412531     -0.14624718634071
  N   -0.30641950186578     -1.63826653511651     -0.02311579877517
  H   -0.87917049978850     -2.15523038937049      0.62580839491217
  H   0.61418195832733     -2.02639419536589     -0.16533901584673
  N   -1.60040426441593      0.22126868177061      0.40911048974545
  H   -2.39398863321440     -0.27744753664388      0.03782491355657
  H   -1.69145889685081      1.22588852202807      0.38391266595601
  C   0.54196108560416      1.94203109447279     -0.23290983305860
  N   0.31644727177354      3.09650965313491     -0.28620933102300
  C   2.00936202036314     -0.04593204866718     -0.28371179428764
  N   3.04238175665580     -0.60019793458269     -0.39383769244379
