12
Coordinates from ORCA-job run
  C   -0.38734292220097     -0.27103869100345     -0.00348788412917
  C   0.74691741226156      0.52191771663799      0.00295862946585
  N   -1.64206593356434      0.24629589599185      0.14351590649584
  H   -2.36931826874053     -0.21179701841891     -0.38354237484650
  H   -1.70795175446045      1.25318030242988      0.15483052525044
  N   -0.33072354053540     -1.62650552098529     -0.15742441571101
  H   -1.01249140506868     -2.15471350530583      0.36472437755020
  H   0.59254766413843     -2.03372547599279     -0.16549064197266
  C   2.02729369895357     -0.08933591689080      0.05982720151383
  N   3.05283273665297     -0.66611037186369      0.10532951893801
  C   0.61183075378475      1.93442460517657     -0.04483655016125
  N   0.41847155877910      3.09540798022447     -0.07640429239358
