12
Coordinates from ORCA-job run
  C   -0.38402339805760     -0.26508812279813      0.07590417865113
  C   0.74081496629180      0.51132980760956     -0.14222837316269
  N   -0.30579150607740     -1.58437875084841      0.41817516364653
  H   0.61713140316395     -1.99222463486119      0.40285616580728
  H   -1.02777053778221     -2.17842613463731      0.04063166968924
  N   -1.64976694802699      0.23384320347258     -0.03603616230221
  H   -1.72198874926653      1.22922877371170     -0.18497128030994
  H   -2.32631179494040     -0.13919232666036      0.61168055139926
  C   0.60158148005053      1.91655654965737     -0.29003827935204
  N   0.40504853979265      3.07122658921840     -0.41020719827543
  C   2.01498547244554     -0.11021157017190     -0.21931612740671
  N   3.03609107240666     -0.69466338369230     -0.26645030838443
