12
Coordinates from ORCA-job run
  C   -0.39291409266089     -0.25321793634346      0.06831132276520
  C   0.75900896675311      0.48772061088220     -0.13214736257931
  N   -0.73242565872668     -0.75956428822235      1.28967419755037
  H   -0.04374891059836     -0.65455053252963      2.01975941769679
  H   -1.19470960976810     -1.65539667378163      1.28049740923885
  N   -1.26957599701181     -0.52820618591942     -0.94117037542796
  H   -2.24345686640014     -0.55591340747150     -0.68196922760540
  H   -1.08638171478927     -0.07460464517537     -1.82371250474222
  C   0.95129561207352      1.16009506581460     -1.36777117329105
  N   1.04313597304005      1.68364499419705     -2.41843734471037
  C   1.72895397415835      0.56441683268106      0.90184603404256
  N   2.48281832393023      0.58657616586844      1.80611960706254
