12
Coordinates from ORCA-job run
  C   -0.38029034179254     -0.27906405153237      0.02792749932165
  C   0.73363969612488      0.53860264969892     -0.05127588437658
  N   -1.61217018179720      0.19600764714518      0.37424305678876
  H   -1.69044791320238      1.19735099804288      0.47089078538590
  H   -2.39646397511860     -0.24036267379677     -0.08490139888411
  N   -0.32428660039398     -1.61719751925546     -0.23596862433990
  H   0.59670528774429     -1.99998874177533     -0.38971751100932
  H   -0.92886950029095     -2.20034767117113      0.32145738565924
  C   2.01785621828021     -0.04474882768498     -0.21295914956043
  N   3.04642385334864     -0.60037431133441     -0.35349288750929
  C   0.57397888648892      1.94712568706360      0.02767512686343
  N   0.36392457060872      3.10299681459986      0.10712160166064
