12
Coordinates from ORCA-job run
  C   -0.37598955586799     -0.27066251412318      0.04027740273851
  C   0.82575659235092      0.40371244135969     -0.14227860289794
  N   -1.29062405961497     -0.36491842759109     -0.96013327331703
  H   -2.23723578763356     -0.61707399752027     -0.73351692187029
  H   -1.18033907318035      0.25794289806686     -1.74472767934750
  N   -0.62984109953476     -0.96447113522421      1.18130014731129
  H   -1.58260911202517     -1.19188747821996      1.40918831458931
  H   -0.02578993968307     -0.78736045010742      1.96849387097082
  C   1.76719629922940      0.43803629611366      0.91632278269309
  N   2.48795074136700      0.42301550489679      1.84774446658458
  C   1.06429324501870      1.07075236303673     -1.36969397259101
  N   1.17623174957383      1.60391449931240     -2.41397653486383
