12
Coordinates from ORCA-job run
  C   -0.36469867600143     -0.28167003599241      0.10875997129938
  C   0.70065424103488      0.54096060629086     -0.21254727009663
  N   -0.19927404186439     -1.59501787644060      0.44246867544288
  H   0.73455142863600     -1.96379957359804      0.34174102401393
  H   -0.92802428264833     -2.22055244871182      0.13582824998939
  N   -1.65578032076738      0.16255486736611      0.11291424821951
  H   -1.78256142499307      1.15413145870030     -0.02534623269826
  H   -2.25230205751384     -0.23544861630471      0.82181157702777
  C   0.48939563975812      1.93864408344417     -0.34622107098252
  N   0.23711786799650      3.08425926639319     -0.44757530007836
  C   1.98991269775806     -0.02363240138166     -0.39943032832742
  N   3.03000892860490     -0.55942932976540     -0.53240354380968
