12
Coordinates from ORCA-job run
  C   -0.33714169558761     -0.31226900847999      0.01993571201880
  C   0.72137862101892      0.54231921767780     -0.06539770166794
  N   -0.70053862546902     -0.84728301924127      1.20630725728133
  H   -1.29898328469653     -1.66327102030736      1.21511497814761
  H   -0.54261109321098     -0.37692208083469      2.09432360519656
  N   -1.00778448738803     -0.74626381279027     -1.08455669387262
  H   -0.82177531297081     -0.26307281693317     -1.93915267003038
  H   -1.99549175525481     -0.94987882550536     -0.94644242175697
  C   0.94281973600705      1.24068741602727     -1.26460499596399
  N   1.17854969804543      1.77546085480535     -2.27188717791312
  C   1.57414541581810      0.72831320113591      1.05716387395202
  N   2.28643278368828      0.87217989444576      1.97719623460871
