12
Coordinates from ORCA-job run
  C   -0.37171243142713     -0.27905746884786      0.08500177358120
  C   0.71788154228002      0.53891115851610     -0.15997803749874
  N   -1.61014102103509      0.21981948119171      0.36998963603681
  H   -2.38930321115684     -0.30822625187427      0.00862949690369
  H   -1.71322760380811      1.22051667255683      0.28922854775228
  N   -0.28340266669739     -1.64091719207775      0.05781334478114
  H   -0.86308949400373     -2.13244942042782      0.71991688597505
  H   0.64444869756391     -2.02309443700074     -0.04755763897567
  C   2.01500015253923     -0.03265413910185     -0.24313493109764
  N   3.05614141063391     -0.57906721432326     -0.30537356216014
  C   0.51986401917532      1.93470478755590     -0.32720126726884
  N   0.27754060593588      3.08051402383300     -0.44833424802914
