12
Coordinates from ORCA-job run
  C   -0.37853005110083     -0.28086012189497      0.03391416730908
  C   0.73088196105870      0.54118824953822     -0.06351571567782
  N   -1.64912177751203      0.21259083591921      0.10660211178323
  H   -1.73106024257760      1.21467293188206      0.19142968290074
  H   -2.28965205585678     -0.30748338511695      0.68587804946892
  N   -0.27874017616244     -1.64189146669573      0.06374865449879
  H   -1.02085997153968     -2.14643273536133     -0.39565911505277
  H   0.64259060770185     -2.02174695507967     -0.09481992612253
  C   2.00009174049363     -0.02844683069263     -0.34652805325582
  N   3.01828889283390     -0.57324531626620     -0.57639165450453
  C   0.58056499074603      1.94123201799562      0.11921804648084
  N   0.37654608191526      3.09042277577238      0.27512375217188
