12
Coordinates from ORCA-job run
  C   -0.39931368846049     -0.24406851707234      0.06864263696248
  C   0.76909624003152      0.46988876433196     -0.13282373246846
  N   -1.34879436385448     -0.38049750998802     -0.90250090808291
  H   -1.83442007138077     -1.26386152411739     -0.91981108951806
  H   -1.10600615280245     -0.02146205068195     -1.81369179410111
  N   -0.68342818043999     -0.86077720641860      1.25286776185722
  H   -1.65465003679683     -0.86635813992619      1.52314950552716
  H   -0.04190590129692     -0.68175428083281      2.01084806328894
  C   1.10262818266426      0.91060089039839     -1.44060671228084
  N   1.30890882771908      1.24820055301311     -2.54964839189151
  C   1.61604661077766      0.75010121678790      0.97172709156630
  N   2.26983853383940      0.93798780450595      1.93284756914080
