13
Coordinates from ORCA-job run
  C   0.83322796749320     -0.45342933355635      0.10262966946184
  C   -0.53448144164346     -0.02331068192790     -0.40468066210899
  F   0.73000983882105     -0.96723251171782      1.34867951432172
  H   -0.38895118762049      0.38862634225737     -1.40622441457852
  H   1.28334459380599     -1.18400867327305     -0.56998250498631
  N   1.75053656345751      0.74500130382768      0.13131626238119
  O   2.18131234755752      1.12566290630133      1.20849111506138
  O   1.96441772539032      1.23030880041839     -0.97568198613536
  C   -1.07820759928040      1.04266276063298      0.46260506445649
  N   -1.56176322971396      1.85969723855895      1.15416817449871
  N   -1.36091461087345     -1.21325209949854     -0.49710377770013
  H   -2.22291769033995     -1.00521335132800     -0.98500365554549
  H   -1.59661327705388     -1.54451270069504      0.43078720087347
