13
Coordinates from ORCA-job run
  C   0.71415732797023      0.62547741474455      0.23508288886273
  C   -0.52722215662212      0.03819957608378     -0.41885411263193
  F   1.16680901257970      1.68307836496844     -0.48406737188422
  H   -0.22673968509220     -0.23517112041883     -1.43447632933386
  H   0.57304907863850      0.91301314314766      1.27750140696094
  N   1.77570781175793     -0.44079871358243      0.22344293910104
  O   2.20496028936829     -0.80516958688765      1.31216858546602
  O   2.11577459882239     -0.84603475470648     -0.88208245488485
  C   -1.57204977801029      1.07451824360466     -0.49581810740610
  N   -2.44088007255812      1.86482393624739     -0.50685942214081
  N   -0.89771464000390     -1.16458621593285      0.30129243045733
  H   -1.41014987724398     -0.94399410342745      1.14628726686231
  H   -1.47470190960642     -1.76435618384079     -0.27261771942861
