13
Coordinates from ORCA-job run
  C   0.83639394524704     -0.44083992238999      0.12860760437664
  C   -0.53169485054726     -0.04707392063214     -0.40649350425390
  F   0.72950302753148     -0.89763594334592      1.39641279148546
  H   -0.38313895027462      0.31828318353193     -1.42549902284807
  H   1.29724925363460     -1.19757336559671     -0.50679361467323
  N   1.74299581033566      0.76601864768031      0.10775604511686
  O   2.16453150336876      1.19868711977816      1.16882184381697
  O   1.95875457411119      1.20282125831766     -1.01889046250662
  C   -1.08998617898212      1.05400148876103      0.40583277116846
  N   -1.58503109438574      1.89859100460379      1.05481676070486
  N   -1.34716491825793     -1.24726560532150     -0.44730742942030
  H   -2.20729071519791     -1.07124932648751     -0.95084400236364
  H   -1.58612140658316     -1.53676461889909      0.49358021939652
