13
Coordinates from ORCA-job run
  C   0.73517355614330      0.63493116286010     -0.11026507758085
  C   -0.53725051651489     -0.15436775087921     -0.37778345039221
  F   1.19606263246303      1.18539791734913     -1.26138671304231
  H   -0.26995843586573     -0.90223429091205     -1.12991850466420
  H   0.62874283473177      1.40256399716123      0.65699003022032
  N   1.76901219891663     -0.33559751141946      0.39385349589685
  O   2.22036156169691     -0.12959316476204      1.51468062701836
  O   2.06824837251442     -1.24501198960294     -0.37130376012715
  C   -1.55643320890938      0.74628883213699     -0.94485633968692
  N   -2.40300705722183      1.46065509986680     -1.33535450849874
  N   -0.91986393729813     -0.83315033550469      0.84502836040167
  H   -1.52261242597321     -1.62001252213692      0.64648522068984
  H   -1.40847557468291     -0.20886944415696      1.47483061976533
