13
Coordinates from ORCA-job run
  C   0.86750083468271     -0.18704387024505     -0.56533219927330
  C   -0.65122297871696     -0.08409303661852     -0.45398767721641
  F   1.18988891580475     -1.49153503892186     -0.76035446199561
  H   -1.03514298217677     -0.57638391945205     -1.36239975025261
  H   1.28818472020776      0.42522277205803     -1.36329799913250
  N   1.49488941636003      0.28166552857120      0.72383056791899
  O   1.96507541989067     -0.55775554353714      1.47390110931219
  O   1.44813651417729      1.49503988596135      0.88536651298963
  C   -1.10130134564333      1.31034057089954     -0.49813269995056
  N   -1.52552141394286      2.40149447818988     -0.57776492608001
  N   -1.06081911271452     -0.70587054820040      0.79458642408307
  H   -2.06120631051595     -0.62302250387142      0.92222862207823
  H   -0.81646167741283     -1.68905877483355      0.78335647751888
