13
Coordinates from ORCA-job run
  C   0.86721393894934     -0.39422627304039      0.05533967619770
  C   -0.54921469970104     -0.05455058063740     -0.38167609461721
  F   0.85745034344606     -0.93763286693655      1.29315555950060
  H   -0.47937748476811      0.38577205072831     -1.37928696736694
  H   1.33847437150632     -1.07724672523797     -0.65188293453286
  N   1.69682892626665      0.86709531999784      0.07058274187086
  O   1.82487764796794      1.38752360739420     -1.03372435454695
  O   2.14767817351032      1.25734747211698      1.13600076924322
  C   -1.12717574835197      0.95345065292285      0.53180083024752
  N   -1.63572049002098      1.72056747853641      1.26156110093139
  N   -1.29239238943348     -1.29882394411486     -0.46283124090684
  H   -1.45968465253464     -1.66385692367622      0.46723516333539
  H   -2.18895793683638     -1.14441926805322     -0.90627424935587
