13
Coordinates from ORCA-job run
  C   0.87850920810585     -0.15456446071188     -0.55685473927545
  C   -0.64318517535920     -0.09187223179353     -0.46437802025119
  F   1.23656090633609     -1.44748482440522     -0.76508398098918
  H   -1.00226653627211     -0.57245294966368     -1.38917429643358
  H   1.29284889378819      0.47913804492893     -1.34135033924911
  N   1.47939751496616      0.31220490290633      0.74537824922725
  O   1.96802505728887     -0.52478107394106      1.48667576238295
  O   1.39826207491517      1.52160128569600      0.92377287243517
  C   -1.12953246410190      1.29095938766073     -0.48176372841244
  N   -1.58701719388588      2.37048614914969     -0.53163376956815
  N   -1.05303257324537     -0.75263765358708      0.76419988884421
  H   -2.05765797276768     -0.70260458731626      0.87687318233943
  H   -0.77991173976820     -1.72799198892297      0.73333891895008
