13
Coordinates from ORCA-job run
  C   0.84976057134374     -0.14807071372172     -0.60592966103700
  C   -0.66553483273123     -0.10881218843430     -0.42888683849897
  F   1.21727885271232     -1.43730726012445     -0.82057116146015
  H   -1.06755873966697     -0.61205007532686     -1.32339723050544
  H   1.21062463264660      0.48396726966967     -1.41767716849099
  N   1.51227751544370      0.34203067220514      0.65771359143064
  O   1.42431835299756      1.55229600818899      0.82654144980703
  O   2.04779954008192     -0.47977071830133      1.38326149893749
  C   -1.17580406199454      1.26535701223049     -0.44122549165189
  N   -1.65563428579294      2.33589989057965     -0.46649461248963
  N   -0.99480785515462     -0.75374677205515      0.83190239696095
  H   -1.99130321837258     -0.71262819695801      1.00279653236672
  H   -0.71141647151295     -1.72616492795212      0.80196669463124
