13
Coordinates from ORCA-job run
  C   0.73531874732361      0.52513452293771     -0.25802568202546
  C   -0.65013560370336     -0.11958395129808     -0.39641289804519
  F   1.25264747877666      0.78800877521285     -1.48126559229409
  H   -0.52314052675790     -0.94664853207305     -1.10351936536546
  H   0.74678725508605      1.42306620098041      0.36079297033721
  N   1.61441458697919     -0.48227616031259      0.42929364645586
  O   1.88530841208748     -0.26013583648867      1.60662259810211
  O   1.92951680999025     -1.46770921403772     -0.22885326863622
  C   -1.54434437253621      0.87533236508097     -1.00203274149269
  N   -2.24078572441512      1.70041003489348     -1.46163434875369
  N   -1.22456006580091     -0.63682599215298      0.82486333001155
  H   -1.24824810157570      0.05715103439458      1.56080515880627
  H   -0.73177889545402     -1.45792324713692      1.14936619289980
