13
Coordinates from ORCA-job run
  C   0.88239563243013     -0.35075548673456      0.09460158218096
  C   -0.53214306609129     -0.08906468732049     -0.39898486061073
  F   0.85423690825407     -0.86771407236537      1.34341171931540
  H   -0.44734989298543      0.33228641508300     -1.40357877818496
  H   1.40966781250935     -1.02542815591739     -0.58034476866913
  N   1.65024198031325      0.94880542057086      0.10956051251769
  O   2.04371119601075      1.38292580074541      1.18075122304286
  O   1.79285242652768      1.45129139264802     -1.00123735796130
  C   -1.18952627007509      0.90922623299333      0.47015494944967
  N   -1.75940064114147      1.66670703333065      1.16375312338259
  N   -1.21194981204517     -1.36932183283422     -0.47728543043321
  H   -2.09774193742857     -1.26826720094468     -0.95625729584135
  H   -1.39599433627821     -1.72169085925455      0.45445538181150
