13
Coordinates from ORCA-job run
  C   0.90737988085774     -0.13250274357870     -0.58795534765319
  C   -0.61611087320566     -0.20748896266058     -0.47654332381028
  F   1.40191304716262     -1.33814392524982     -0.93643616358881
  H   -0.91841236017877     -0.82796050113283     -1.32692232181559
  H   1.25051662421163      0.62480867910294     -1.29769355025270
  N   1.49188425226695      0.25496059212717      0.75224820622741
  O   0.92969189430140      1.20098083531552      1.29745602892571
  O   2.46259344661707     -0.36196760615112      1.15639133999504
  C   -1.23125549296809      1.11943410376494     -0.66488151754370
  N   -1.76292313770897      2.15523798684970     -0.81814812079872
  N   -0.98992743583126     -0.89877756402199      0.74253779466563
  H   -1.89559548757790     -1.33588456601682      0.64077915264379
  H   -1.02975435794676     -0.25169632834842      1.52016782300541
