13
Coordinates from ORCA-job run
  C   0.81716809862183     -0.15348681800239     -0.58715863456075
  C   -0.71954615829204     -0.14675801141820     -0.49842494879161
  F   1.22465360414404     -1.44510824021352     -0.68590448708015
  H   -1.05694239951639     -0.56026652109554     -1.45650393719836
  H   1.21061084611942      0.43087123953145     -1.41903210291201
  N   1.40051539092765      0.43920937248779      0.66370801299546
  O   1.50309336804830     -0.30018741952945      1.63726131124499
  O   1.67164611136649      1.63540194136984      0.60604794080874
  C   -1.20244934669727      1.23587986694000     -0.41284215164911
  N   -1.57889020477516      2.34484585013827     -0.33866302216514
  N   -1.28961012407600     -0.95356738557983      0.55749294265009
  H   -0.97093489848930     -1.90993769123803      0.46397177530668
  H   -1.00931428738156     -0.61589618339039      1.47004730135119
