13
Coordinates from ORCA-job run
  C   0.75791545384477     -0.40329453831554      0.12570819816501
  C   -0.62912723817527      0.01633728314790     -0.37284272331232
  F   0.68389027334453     -0.84224808959810      1.40244123000444
  H   -0.50840701991734      0.38209520143104     -1.39635589465875
  H   1.19132903106805     -1.17960966798088     -0.50831501377502
  N   1.69551741040796      0.77499024195059      0.05125377614290
  O   1.90637549696618      1.16120630889523     -1.09512515215390
  O   2.13235841257395      1.24435890177612      1.09018669488806
  C   -1.11360493032814      1.13219834953766      0.45377202976076
  N   -1.48757676792479      2.01782154979811      1.12655115185610
  N   -1.60250145231691     -1.05571553354234     -0.36435964422872
  H   -1.64935441941395     -1.49157420359551      0.54799556132595
  H   -1.37881425012905     -1.75456580350426     -1.06091021401449
