13
Coordinates from ORCA-job run
  C   0.72574333053615      0.65628568196422     -0.00461271430186
  C   -0.51007440778423     -0.12565588094968     -0.42310103126891
  F   1.23911998682663      1.32508980605003     -1.06747846232152
  H   -0.18292299294735     -0.78918449563487     -1.22883869037289
  H   0.55625820867773      1.34341834133965      0.82512281569457
  N   1.75063283493860     -0.34072766260758      0.46441996929661
  O   2.12432973265534     -0.24330725414268      1.62766021385275
  O   2.11919215819381     -1.16125064458427     -0.36787031540151
  C   -1.51760920685256      0.80786735451143     -0.95694525760470
  N   -2.35948094796331      1.54013323259172     -1.32383620745795
  N   -0.94426048335779     -0.93126906307693      0.70166618695289
  H   -1.52309191046691     -1.69987099053021      0.39124736406105
  H   -1.47583630245609     -0.38052842493081      1.36456612887148
