13
Coordinates from ORCA-job run
  C   0.76157216760089      0.56114685595100     -0.15307205654561
  C   -0.62099280367519     -0.09870701953094     -0.23764139910941
  F   1.09604521391061      1.15782151425163     -1.31429002711024
  H   -0.51824872191454     -1.01522491994989     -0.84066214756547
  H   0.79978883998028      1.27067263555451      0.67612681659967
  N   1.80318437991105     -0.50446734584023      0.13493784374396
  O   1.55298326740554     -1.22981026863229      1.09470638627909
  O   2.79022920518259     -0.55342375147539     -0.58044036272015
  C   -1.51420761250147      0.80823938837599     -0.96841124646285
  N   -2.26225892010080      1.51060390171534     -1.53720549132399
  N   -1.15118084539110     -0.29850162204021      1.10479330685800
  H   -0.61761110025531     -1.02217168662475      1.56930631307303
  H   -2.12030307015257     -0.58617768175477      1.05285206428396
