13
Coordinates from ORCA-job run
  C   0.90405984168061     -0.15406927418782     -0.54597854585061
  C   -0.62096951936569     -0.24585586297308     -0.51089342779493
  F   1.46058814756365     -1.38564285547511     -0.59033841508448
  H   -0.90576048348740     -0.58417457977791     -1.51380649640510
  H   1.25452152541190      0.44330674701784     -1.38849069186547
  N   1.44501625188806      0.53810578447505      0.68245165968878
  O   0.99899651598189      0.17679017439967      1.76896707510781
  O   2.31185929993709      1.38650324352567      0.49515569049263
  C   -1.14629490889052      1.12912286173519     -0.34641716660538
  N   -1.58603122575526      2.20729525266876     -0.18921673833384
  N   -1.10527341898518     -1.22411148465095      0.43486646625539
  H   -2.10148597833157     -1.35443371232497      0.31921872841434
  H   -0.91022604764758     -0.93483629443235      1.38348186198086
