13
Coordinates from ORCA-job run
  C   0.81244751802596     -0.19305797265730     -0.58395229984532
  C   -0.72324539925382     -0.12722526805719     -0.49640944553413
  F   1.17219254462859     -1.49995952219412     -0.65825778207806
  H   -1.07661869067915     -0.53722886754609     -1.45026921682317
  H   1.22669298106044      0.36165021660121     -1.42606860849328
  N   1.41618601639784      0.40151247427680      0.65645034406039
  O   1.48307929390853     -0.32014755491738      1.64618728342841
  O   1.73507402814138      1.58428507631231      0.57602998355759
  C   -1.15437138357431      1.27368764717210     -0.42599867139398
  N   -1.49503877500749      2.39510348344036     -0.36530038539556
  N   -1.32374975143311     -0.89987697768241      0.56797045164292
  H   -1.02381000083774     -0.56815719456093      1.47674705309896
  H   -1.04883838137709     -1.87058554018736      0.48087129377525
