13
Coordinates from ORCA-job run
  C   0.89169240920359     -0.32961532404273      0.08624224040038
  C   -0.53448984090626     -0.10444592360565     -0.39189120172838
  F   0.89079392775471     -0.83973013259419      1.33821612612523
  H   -0.47132745497628      0.31167074326229     -1.40019918689975
  H   1.42678124106164     -0.99563722927448     -0.59113154200976
  N   1.62822446804952      0.98801413176453      0.08460428877741
  O   1.74632882547570      1.48656098706271     -1.03082695072939
  O   2.02322276770225      1.43829516566534      1.14854701168847
  C   -1.20471885583244      0.88439918192909      0.47816518622930
  N   -1.78399901082543      1.63437968608433      1.17204190089309
  N   -1.18499323267035     -1.40065686308251     -0.45349543301333
  H   -1.35023386498259     -1.75050321365448      0.48270611981215
  H   -2.07828137905406     -1.32373120951424     -0.92297855954542
