13
Coordinates from ORCA-job run
  C   0.79928881650786      0.55656348417881     -0.10045480173725
  C   -0.56843712719036     -0.05771014377969     -0.35765554716284
  F   1.26464601586307      1.15099041013646     -1.22736962623970
  H   -0.42735877128614     -0.75875177332988     -1.18544724943949
  H   0.82060000905376      1.26062312912162      0.73201732021906
  N   1.73389478269097     -0.56561954272072      0.26140191977921
  O   1.89037714503935     -1.42882671661628     -0.59438616569931
  O   2.25291791604969     -0.51712982733245      1.37066006248526
  C   -1.50314628307185      0.99836795682873     -0.78484071915064
  N   -2.28101723933919      1.83301317194454     -1.06393965747971
  N   -0.96728349785119     -0.79915188738948      0.82286037225582
  H   -1.34468645550990     -0.18423846628675      1.53325985943619
  H   -1.66979531095606     -1.48912979475491      0.59389423273340
