13
Coordinates from ORCA-job run
  C   0.87496967246266     -0.13358218838693     -0.56870925612052
  C   -0.64685297643116     -0.08483299827377     -0.46131721322121
  F   1.23961710179065     -1.41704922099646     -0.82088550926044
  H   -1.01031097040758     -0.54847774148431     -1.39294748192853
  H   1.27902515845780      0.52761855800682     -1.33565017076832
  N   1.48166924919094      0.29473180675322      0.74390574137669
  O   1.39860465858219      1.49779178906548      0.96009378757265
  O   1.96835140285793     -0.56440088779240      1.46078902693309
  C   -1.14122185248384      1.29513489617023     -0.44660372750212
  N   -1.58708126184929      2.38018285495974     -0.47908733746873
  N   -1.04166289932748     -0.77472859779407      0.75590720199785
  H   -2.04392471646585     -0.72383414013563      0.88509648040756
  H   -0.77118256637697     -1.74955413009191      0.69940845798204
