13
Coordinates from ORCA-job run
  C   0.86099389081906     -0.38901373001276     -0.12990764511103
  C   -0.58075018031339      0.05078198240133     -0.33196783074568
  F   0.94564554859284     -1.25314265108742      0.90617062910736
  H   -0.58714867656051      0.75237914590018     -1.16972959471615
  H   1.25635722900248     -0.84807442168702     -1.03647756464929
  N   1.71361871512378      0.82289849451577      0.15971390905088
  O   2.26056263565027      0.90617459772236      1.24805620973783
  O   1.75742355110663      1.62858209491433     -0.76532245903144
  C   -1.06102069759910      0.76035932192520      0.87234132604252
  N   -1.49117190187960      1.29021237438998      1.82829496570640
  N   -1.35040956041467     -1.12622492303539     -0.69218546963430
  H   -1.44814806815569     -1.73605450795560      0.11091447286702
  H   -2.27695248537210     -0.85987777799096     -0.99990094862414
