13
Coordinates from ORCA-job run
  C   0.78550724065958      0.48449223406632     -0.18739308004829
  C   -0.66715695673355      0.02887948090111     -0.38443989236012
  F   1.30152629373496      0.91549541193498     -1.36220986176469
  H   -0.64999284795131     -0.65461680880649     -1.24044838795465
  H   0.91118623062651      1.24439761976974      0.58467112180122
  N   1.55738441846475     -0.72273848542910      0.26619505308665
  O   1.76734321109205     -1.58505993846955     -0.57918350851395
  O   1.84479890684862     -0.76904977884073      1.45977337251342
  C   -1.45535480982702      1.21195517547824     -0.75282257809108
  N   -2.05965569723022      2.18317038921447     -1.01447720081897
  N   -1.27056469473939     -0.65006535496845      0.73955660035794
  H   -0.87336631176001     -1.56969779188829      0.87487336590782
  H   -1.19065498318498     -0.11716215296226      1.59590499588471
