13
Coordinates from ORCA-job run
  C   0.83907697031351     -0.15041343596840     -0.55733381305181
  C   -0.69986405875498     -0.11566299625655     -0.53101309374005
  F   1.22643000680630     -1.44589464698632     -0.68179354662774
  H   -1.00499184417372     -0.49105795590305     -1.51535381866866
  H   1.27616589213924      0.45247652867464     -1.35356232938585
  N   1.38015641797449      0.39000537581999      0.73499104671137
  O   1.67295738853674      1.58229563070637      0.72917715440008
  O   1.42876576400284     -0.38213725122008      1.68693792706838
  C   -1.16118806619256      1.27271445199417     -0.42033344085752
  N   -1.52499785779520      2.38464734652170     -0.32880969957765
  N   -1.32827124618215     -0.94452706898727      0.47338976268449
  H   -1.07339427549063     -0.64724135899174      1.40727993119763
  H   -1.03084509118389     -1.90520461940345      0.35642391984733
