13
Coordinates from ORCA-job run
  C   0.92989372420454     -0.12583827188639     -0.55609514229730
  C   -0.59819975088859     -0.18126049065887     -0.50836397682197
  F   1.42223760702541     -1.32367304175789     -0.93284786220966
  H   -0.87448818304816     -0.77042961854855     -1.38926121930540
  H   1.31121117347759      0.65441489397825     -1.21982015060732
  N   1.46283623998556      0.19960050069704      0.82113960899352
  O   2.39277095354172     -0.46097864601355      1.25096878077894
  O   0.90326910972982      1.14504549756497      1.37007893774208
  C   -1.18542077939368      1.16077903301342     -0.67895410037438
  N   -1.69943012992942      2.20764435177579     -0.81648881593092
  N   -1.03231809489764     -0.90454796660114      0.67148053463161
  H   -1.94251786401813     -1.31719783414633      0.51980622308352
  H   -1.08984400578903     -0.28255840741672      1.46835718231728
