13
Coordinates from ORCA-job run
  C   0.77532084663663      0.52549372433042     -0.11282256887845
  C   -0.63471659820595      0.01222567387909     -0.43431988909627
  F   1.35854815969056      1.01357691416897     -1.23295319274196
  H   -0.51925851224480     -0.64202892377790     -1.30531358587882
  H   0.80711558077397      1.26707500965456      0.68616692166549
  N   1.56642045964660     -0.65891658643577      0.36705718253476
  O   1.78766706152162     -0.71562861458752      1.57396064113011
  O   1.85972281400477     -1.49615033565246     -0.47927661001049
  C   -1.44995440601075      1.16851816852818     -0.82846607747064
  N   -2.09758040649676      2.10695196166095     -1.10592541662257
  N   -1.28935509985124     -0.72894151151294      0.61943252099351
  H   -1.30574645454176     -0.21944691418309      1.49336002393207
  H   -0.85918344492290     -1.63272856607250      0.76110005044327
