13
Coordinates from ORCA-job run
  C   0.76450136604650      0.54746194124433      0.03042848485353
  C   -0.61643287617513      0.08474992044059     -0.45358441409755
  F   1.38423897881605      1.25694234790574     -0.94182196502627
  H   -0.44649723001325     -0.38535983407569     -1.42846075210761
  H   0.74114129822924      1.11641504118016      0.96051512182002
  N   1.56469345692983     -0.69498456828313      0.30581049586028
  O   1.71850452092427     -0.99352764049762      1.48738101686683
  O   1.93443169190447     -1.33327774141117     -0.67316319467304
  C   -1.43887858468269      1.28444843864036     -0.65685832311474
  N   -2.07811430198556      2.26048759415391     -0.78272705781113
  N   -1.30069784428086     -0.85637044382386      0.40308704398157
  H   -0.85284952489752     -1.76250430023131      0.39407852684645
  H   -1.37404095081534     -0.52348075524231      1.35531501660167
