13
Coordinates from ORCA-job run
  C   0.87689504666839     -0.20111215437605     -0.54879149227417
  C   -0.64269311569628     -0.08530848708082     -0.46639618779803
  F   1.19188893631377     -1.51110522963442     -0.71778402056749
  H   -1.01438934755094     -0.58421677223959     -1.37625659247493
  H   1.31667601846437      0.39506004831268     -1.34871137777719
  N   1.48487940802707      0.28232462623592      0.74360280216809
  O   1.93206970916435     -0.54913940495273      1.51666811956119
  O   1.44715407989960      1.49887937737643      0.88497722732400
  C   -1.08276951513675      1.31147999075088     -0.52994499240123
  N   -1.50212289639806      2.40396007643667     -0.61405022042818
  N   -1.07921168422729     -0.69124937437099      0.78132153400153
  H   -0.84942897237294     -1.67839589099664      0.78061713447907
  H   -2.07994766715528     -0.59217680546134      0.89374806618734
