13
Coordinates from ORCA-job run
  C   0.88602383730942     -0.35261670767472     -0.03763242050732
  C   -0.57027881603094     -0.04554410050397     -0.35023810068200
  F   0.98331205837949     -1.01244139607531      1.13839911055573
  H   -0.58676662191654      0.49080162753261     -1.30204402514351
  H   1.33837362538886     -0.93993978825573     -0.83710761978811
  N   1.65743150634685      0.94192084942891      0.05120430278081
  O   2.16011732908328      1.25062203590596      1.12015438980344
  O   1.68780052735210      1.57211589215937     -1.00170543792087
  C   -1.13120478308390      0.83923057942783      0.69213537065716
  N   -1.62459435812636      1.50586838240329      1.52384539243866
  N   -1.26017239892121     -1.31304713871806     -0.50793014505822
  H   -2.19016921230263     -1.16354938557597     -0.87811402501578
  H   -1.34887269347842     -1.77342085005422      0.39003320788000
