13
Coordinates from ORCA-job run
  C   0.81587147771601     -0.18212933292577     -0.58078044221565
  C   -0.72053415956289     -0.12044267193749     -0.50220433196437
  F   1.17854261452655     -1.48706011827434     -0.67619509061528
  H   -1.06604110804714     -0.52097471686830     -1.46291441746125
  H   1.23442294371563      0.38746675387548     -1.41068742616653
  N   1.41074472704766      0.39066998810532      0.67367278820011
  O   1.72305475522827      1.57679254522979      0.61828420391895
  O   1.47853307577298     -0.35028203071781      1.64906117017474
  C   -1.15344914676502      1.27908553831203     -0.41919121395080
  N   -1.49083235061680      2.40087980459264     -0.34970713380683
  N   -1.32643752284318     -0.90684354049767      0.54891952040099
  H   -1.02905532628733     -0.58934823831717      1.46350889232438
  H   -1.05381997988473     -1.87681398057670      0.44823348116154
