13
Coordinates from ORCA-job run
  C   0.93244443388134     -0.17574275006717     -0.56104114326180
  C   -0.59746219552114     -0.19684625775934     -0.52860708617209
  F   1.40337749580235     -1.42040772669743     -0.76682122869874
  H   -0.88842108888763     -0.67213946161901     -1.47180813185463
  H   1.32196641508308      0.50864616461787     -1.31555615406449
  N   1.44556176328393      0.33026734217147      0.76557271760936
  O   1.74795174770488     -0.49691397526957      1.61502699778831
  O   1.46611747582545      1.55363905220431      0.87348735856377
  C   -1.13127387806448      1.18105703533889     -0.53921333501335
  N   -1.62505439924540      2.24652911424279     -0.50695004933880
  N   -1.07058808797092     -1.03245560952388      0.55403226244853
  H   -2.05140717775329     -1.24653104733905      0.43082361396204
  H   -0.95421250413818     -0.58110188029987      1.45305417803189
