13
Coordinates from ORCA-job run
  C   0.82786185824032     -0.18273580583412     -0.56317779234798
  C   -0.70876838591512     -0.09613190439636     -0.52276218230537
  F   1.17076285589958     -1.49140292994882     -0.67900168822168
  H   -1.03515197668387     -0.46795731339735     -1.50162158271452
  H   1.27672717276592      0.39809480255215     -1.36929170095077
  N   1.40000435120165      0.35143059831654      0.71866920952216
  O   1.73605250509162      1.53214395602783      0.69771550129187
  O   1.42884601157401     -0.41184699869571      1.67862010523095
  C   -1.12122210034146      1.30819149525430     -0.41822866989733
  N   -1.44421199390573      2.43310931193970     -0.33221604941733
  N   -1.35543853903188     -0.89625372562096      0.49294845234268
  H   -1.07552880476375     -0.60699313514549      1.42220001223852
  H   -1.09893295413130     -1.86864835105171      0.37514638522882
