17
Coordinates from ORCA-job run
  C   0.60983724803453     -0.56306299892815     -0.24194522997865
  C   -0.66333523161072      0.32430765378995     -0.32522599290617
  H   0.46940599839627     -1.41911406169223     -0.91373214104163
  H   -0.69930830670125      0.69876471536763     -1.35625234319735
  C   0.74111257289721     -1.08441727943450      1.12028656771640
  N   0.82490459037000     -1.44845903608861      2.23391297803506
  C   1.88272472661772      0.18211579781370     -0.65222608851471
  H   2.74612203490448     -0.48551498985719     -0.65233978579646
  H   2.09660983466369      1.00167015001420      0.03597890407852
  H   1.76311386103183      0.59070646251526     -1.65894549109765
  N   -0.66211098029973      1.48521469769128      0.55001654274362
  H   -0.59818099810922      1.19685636325274      1.52042588596088
  H   0.11241864545405      2.10457065355599      0.34961168341337
  C   -1.91736487080770     -0.49498484624451     -0.05652981892741
  H   -1.92341740918614     -0.86385774371940      0.97356867454128
  H   -2.79890933978306      0.13167211526027     -0.19748808178364
  H   -1.98262237587199     -1.35646765329642     -0.72611626324546
