17
Coordinates from ORCA-job run
  C   0.85646349675303      0.02228453326577     -0.25989968665464
  C   -0.68235609382528      0.05187712062025     -0.30100156042944
  H   1.19973388543864      1.03863542924988     -0.02084107921058
  H   -1.01636200843899     -0.92400895978387     -0.67395109082378
  C   1.37006605123475     -0.30629216812832     -1.59345895429055
  N   1.81489562751721     -0.63114055497392     -2.63007487126881
  C   1.43409124572492     -0.95477608927752      0.76957308809641
  H   2.51986084332229     -1.01207008316179      0.67700475953571
  H   1.02768625070051     -1.95728253230988      0.61356464023587
  H   1.19687339503925     -0.63478085185733      1.78477372873052
  N   -1.07683220997436      1.04408500406213     -1.29730544762011
  H   -0.96964976434206      1.97683990009483     -0.91204408025654
  H   -2.05375188561675      0.92874057441739     -1.53924431641912
  C   -1.28333481590816      0.28609159738548      1.08461067918565
  H   -2.36727782564527      0.39745742027414      1.00015713755386
  H   -1.08690857849275     -0.53675457369100      1.77528802318250
  H   -0.88419761348695      1.20709423381376      1.52384903045306
