17

C	0.0	0.0	0.0
C	-0.52886	0.018854	-1.446824
Cl	1.764473	0.0	0.0
H	0.21762	0.577493	-2.018193
C	-0.380526	1.301439	0.700254
H	0.141051	1.359499	1.653964
H	-1.460021	1.300709	0.823856
H	-0.059467	2.13581	0.071192
N	-0.453971	-1.186828	0.832021
O	-0.616741	-2.254644	0.258261
O	-0.527719	-1.006835	2.039976
C	-1.828834	0.696143	-1.63825
N	-2.411193	1.478303	-2.310619
N	-0.516885	-1.331809	-2.131568
O	-1.582269	-1.839923	-2.446542
O	0.599502	-1.79936	-2.3511
F	-2.557872	0.0	0.0
