17

C	0.0	0.0	0.0
C	-0.528588	-0.11212	-1.441523
Cl	1.770866	0.0	0.0
H	0.193712	0.43731	-2.051278
C	-0.381978	1.355684	0.582535
H	0.12895	1.491996	1.534667
H	-0.049504	2.133104	-0.110458
H	-1.461713	1.369905	0.697718
N	-0.443212	-1.116074	0.92718
O	-0.566058	-0.833733	2.110366
O	-0.547498	-2.235577	0.444081
C	-1.860389	0.485548	-1.693113
N	-2.46902	1.127008	-2.48278
N	-0.454796	-1.509881	-2.025617
O	-1.495036	-2.108702	-2.251982
O	0.679368	-1.919498	-2.266792
F	-2.567768	0.0	0.0
