17

C	0.0	0.0	0.0
C	-0.527527	0.052907	-1.44639
Cl	1.765863	0.0	0.0
H	0.206154	0.64908	-1.995515
C	-0.384564	1.28201	0.730791
H	-1.464824	1.276215	0.846796
H	-0.059071	2.131863	0.12559
H	0.130285	1.315139	1.689327
N	-0.448542	-1.209353	0.797421
O	-0.526546	-1.065402	2.010165
O	-0.599309	-2.260893	0.191182
C	-1.844651	0.700861	-1.627938
N	-2.447614	1.449881	-2.320793
N	-0.480479	-1.273947	-2.176798
O	0.646688	-1.689824	-2.435876
O	-1.532311	-1.809383	-2.493063
F	-2.564112	0.0	0.0
