15

C	-0.531343	0.081697	-1.450811
C	0.0	0.0	0.0
Cl	-0.066832	-1.453137	-2.257748
H	1.099894	0.0	0.0
C	-1.99475	0.172788	-1.442624
N	-3.166462	0.249047	-1.415519
C	0.035485	1.168164	-2.251489
N	0.462612	1.968554	-2.997684
N	-0.527106	-1.166703	0.655334
H	-0.822362	-0.901416	1.586352
H	0.235971	-1.824344	0.760992
N	-0.433777	1.235048	0.738305
O	-0.521405	1.162403	1.960429
O	-0.63562	2.250639	0.07698
Br	3.328531	0.0	0.0
