15

C	-0.54853	0.02357	-1.452894
C	0.0	0.0	0.0
Cl	0.316339	1.150025	-2.537791
H	1.099471	0.0	0.0
C	-0.3802	-1.321861	-2.016133
N	-0.274978	-2.384485	-2.504551
C	-1.981122	0.344606	-1.443857
N	-3.125101	0.611459	-1.418908
N	-0.490343	-1.166166	0.668227
H	0.299129	-1.690753	1.02994
H	-1.09378	-0.909587	1.437013
N	-0.42214	1.258929	0.720365
O	-0.657731	1.16506	1.92305
O	-0.463574	2.298682	0.071584
Br	3.324832	0.0	0.0
