15

C	-0.527863	-0.015356	-1.451393
C	0.0	0.0	0.0
Cl	0.344797	1.132947	-2.505155
H	1.099537	0.0	0.0
C	-0.294447	-1.363722	-1.987805
N	-0.110716	-2.440488	-2.423307
C	-1.971608	0.245835	-1.505399
N	-3.131441	0.421769	-1.576182
N	-0.560847	-1.141126	0.70008
H	-0.546547	-0.912078	1.689941
H	0.091916	-1.913668	0.578529
N	-0.444383	1.242379	0.711295
O	-0.356133	1.216609	1.93817
O	-0.819809	2.204356	0.046232
Br	3.366762	0.0	0.0
