15

C	-0.529169	-0.015099	-1.450978
C	0.0	0.0	0.0
Cl	0.342491	1.132181	-2.506395
H	1.099413	0.0	0.0
C	-0.297678	-1.363934	-1.98722
N	-0.114975	-2.440846	-2.42259
C	-1.972859	0.247503	-1.503251
N	-3.129811	0.439596	-1.580244
N	-0.561047	-1.141277	0.699678
H	-0.548765	-0.911899	1.689464
H	0.092322	-1.913593	0.579486
N	-0.443489	1.242642	0.711693
O	-0.359101	1.215204	1.938828
O	-0.813825	2.206599	0.046529
Br	3.366491	0.0	0.0
