15
Coordinates from ORCA-job run
  C   0.91541180574745     -0.06681485100573     -0.06450634968440
  C   -0.51389922227267     -0.24231478674676      0.46472645894297
  Cl  1.93131210478193     -1.44104448179128      0.36042514724446
  H   -0.46027506089401     -0.37575242789282      1.54437516192789
  N   1.44698907277161      1.18588317083074      0.68204387475501
  O   1.77387555428917      2.14226336794376      0.00007228971704
  O   1.47086375970770      1.08565689217454      1.89794509770818
  C   0.96924838871137      0.18576278660301     -1.49530577024870
  N   1.01291537315454      0.35263977612319     -2.65806156385885
  N   -1.06885185489766     -1.55709730292826     -0.07412374872275
  O   -1.33790706978472     -1.57641010071186     -1.27272847552539
  O   -1.24803948913785     -2.46239483425630      0.73599204326380
  N   -1.27525369872935      0.89396478299201      0.10819249533365
  H   -1.49389862406261      0.90765814318146     -0.88206658498679
  H   -2.12349103938487      0.96999986548431      0.65301992413390
