15
Coordinates from ORCA-job run
  C   0.89582092903076     -0.12154820405596      0.09544909386510
  C   -0.57271457369877     -0.59320717110965      0.14385770039177
  Cl  1.75691715798222     -0.88846810811747      1.44043465166479
  H   -0.54495710609186     -1.68008292902640      0.02366015368228
  N   1.05052983730463      1.40655619522252      0.27117237287188
  O   1.64376379779046      2.00751235220496     -0.60671005787390
  O   0.58136891735123      1.86424908073250      1.30275991878551
  C   1.51273588282487     -0.51091957293867     -1.16340891056640
  N   1.99397621142109     -0.91014686161073     -2.15909176349603
  N   -1.26163558542927     -0.09421144242901     -1.12032142310152
  O   -2.06573504635576     -0.86247571304439     -1.63308141633876
  O   -1.00124285750527      1.05237525040596     -1.47257027924127
  N   -1.33192961563614     -0.16764159790994      1.25815084546696
  H   -1.81550888566920     -0.92604465530829      1.71084770870433
  H   -0.84338906331898      0.42605337698457      1.90885140518527
