15
Coordinates from ORCA-job run
  C   0.90497854567698     -0.10730180626099     -0.15192809449464
  C   -0.51495628016866     -0.35205624902437      0.38320992900303
  Cl  1.81559890774170     -1.60192994508888     -0.33442333213991
  H   -0.43781565677886     -0.83449486335683      1.35653893689880
  N   1.59187896501996      0.74149262605192      0.95394465983934
  O   2.03987260072728      1.82618136155292      0.62156173118137
  O   1.59545669774784      0.23431103727622      2.06171804394137
  C   0.89688501812489      0.66478567380395     -1.38241349903852
  N   0.83239667895055      1.32928466957972     -2.35133324906713
  N   -1.18994035450789     -1.38467874371327     -0.51778074366260
  O   -1.56882345368153     -0.97272532179735     -1.61192473868527
  O   -1.33040739433271     -2.51564705832568     -0.06537368466563
  N   -1.19058254476441      0.88421202849575      0.45072262009485
  H   -1.44300366830111      1.23801757393595     -0.46448052664182
  H   -2.00153806145403      0.85054901687093      1.05196194743675
