15
Coordinates from ORCA-job run
  C   0.79891040642818      0.22739690583405      0.33268601500303
  C   -0.53868872454428     -0.38008362976418     -0.18083093946121
  Cl  0.58814803345372      0.95616676682445      1.90562826960989
  H   -0.40344065276245     -0.60508705185220     -1.23931384887305
  N   1.33663921228210      1.25774408662455     -0.69775072307326
  O   1.61663380654417      2.37548054292149     -0.33609936832688
  O   1.45344303252759      0.80851950662946     -1.82160210586504
  C   1.80014946017886     -0.83178927340384      0.38707150238824
  N   2.61349819722858     -1.67873227769928      0.40344988244498
  N   -1.57951170974139      0.73173322044504     -0.14635516641335
  O   -1.26486991264389      1.76684826244641     -0.70621635039141
  O   -2.62179268860809      0.48015852061972      0.43628429612698
  N   -0.93254879208491     -1.50059313891900      0.58061639061127
  H   -1.03955537241954     -2.29522376005905      0.00111627666754
  H   -1.82801429583865     -1.31353868064761      1.08231586955228
