15
Coordinates from ORCA-job run
  C   0.91025678481938     -0.14330269403819     -0.07739283926189
  C   -0.54548765485285     -0.28297834076278      0.37900879604824
  Cl  1.85788841175995     -1.56729216045337      0.36978044064511
  H   -0.54364792982831     -0.53150916810040      1.44093986875029
  N   1.50507356993938      1.03904041787276      0.73348572999660
  O   0.99832802270567      1.25216155669640      1.82647839821752
  O   2.44734322572881      1.61953456834699      0.22465675693889
  C   1.05870564592300      0.17748207344887     -1.48658266871280
  N   1.23153331806316      0.44215141325175     -2.61847358315349
  N   -1.22599235859153     -1.43532139550628     -0.30868455628658
  O   -0.72129018149932     -1.89374267820953     -1.32752820770603
  O   -2.21050654294559     -1.86766642561130      0.28243417022672
  N   -1.23703012043497      0.94378959850353      0.06404177018729
  H   -2.11332616128092      0.78140298716835     -0.41353044841785
  H   -1.41384802950584      1.46625024739320      0.91136637252799
