15
Coordinates from ORCA-job run
  C   0.75274894234713      0.22716626146600      0.34423598798007
  C   -0.58441939388002     -0.33439769292413     -0.19631262617554
  Cl  0.58584113836128      0.91521763523581      1.93351310080520
  H   -0.43525322939114     -0.55055078831872     -1.26319329441555
  N   1.31610177735393      1.27106055393340     -0.67004487980650
  O   1.45613725723272      0.80814515693703     -1.79290665229150
  O   1.59684239597877      2.38110552088808     -0.27009918437021
  C   1.72728288202162     -0.85907365930538      0.35608862872763
  N   2.47272381372465     -1.76534429566384      0.43605885564415
  N   -1.61464748694944      0.78828852419784     -0.18085601959525
  O   -2.73108378424475      0.53369813889133      0.24413154910946
  O   -1.21759884052689      1.86551479038726     -0.61199935263682
  N   -1.04682232101569     -1.38730286177589      0.64164579202329
  H   -0.36054458392075     -2.12626826778944      0.73232030759342
  H   -1.91730856709143     -1.76925901615936      0.29741778740815
