15
Coordinates from ORCA-job run
  C   0.98624098260677     -0.19373285468258      0.09332191735409
  C   -0.49607433345061     -0.62022702196042      0.25606341319672
  Cl  1.94109720857213     -1.03320919863604      1.30250531707457
  H   -0.49934813678461     -1.70801321589939      0.33228769290457
  N   1.03029885613454      1.33623996184228      0.34370189482434
  O   1.72732494389109      1.78030807356516      1.23268627133158
  O   0.30186543731893      1.94968934073164     -0.42805311403923
  C   1.57278264992520     -0.40038121385929     -1.22311435390933
  N   2.12339824972086     -0.53771210064117     -2.25306604915467
  N   -1.28578771046994     -0.35020432229450     -1.03875996600741
  O   -2.17432700143763      0.49048753193368     -0.99475790845187
  O   -0.97497201165583     -1.04808906025843     -1.99756775092339
  N   -1.05047761448190     -0.01519196211843      1.40249592416898
  H   -1.39534884901944      0.91405506887762      1.19075790075879
  H   -1.80667267086956     -0.56501902660013      1.78449881087227
