13
Coordinates from ORCA-job run
  C   -0.50810743545098     -0.52273470278587     -0.23628694244042
  C   0.79773809548622      0.29023566415766     -0.36902083470440
  F   -0.97676179432259     -0.70049063939469     -1.52841300613594
  H   0.54487783383886      1.24086837208592     -0.85442551109220
  H   -0.27517103886468     -1.51228640391800      0.16718809744451
  C   -1.55635616578670      0.18716084225720      0.58458690593187
  H   -1.23442535696202      0.30371599138875      1.62062777574297
  H   -2.47726962876395     -0.39722016806165      0.57042121222992
  H   -1.76674411474952      1.17193660385093      0.16146501583658
  C   1.76866084864943     -0.41515741036037     -1.21230718362622
  N   2.53832185744962     -0.98793436614660     -1.88777566408417
  C   1.36653640715600      0.56764646456317      0.95235052894362
  N   1.77870049232030      0.77425975236354      2.03158960595387
