13
Coordinates from ORCA-job run
  C   -0.51203318774010     -0.37801556675889      0.42920747111887
  C   0.85225100182668     -0.22578077360457     -0.27675217495468
  F   -0.83636368783122     -1.72248160366965      0.33803013384868
  H   0.72294472812855     -0.55892986915861     -1.31397340301403
  H   -0.39654444463132     -0.13981433355276      1.49044538998795
  C   -1.59868632425646      0.44537803508791     -0.21718057032265
  H   -1.68710705207237      0.19282008479061     -1.27607352006508
  H   -2.55004786148812      0.22643843312654      0.26934095902255
  H   -1.39584932968610      1.51290745940107     -0.11915349273480
  C   1.86557905271695     -1.07511805324005      0.35815217254180
  N   2.66556254620299     -1.75976716496238      0.87609910886993
  C   1.28123272069846      1.17518259974274     -0.28062750214911
  N   1.58806183813205      2.30818075279804     -0.27551457214943
