13
Coordinates from ORCA-job run
  C   -0.58221486533693     -0.68656489204534     -0.10932843766637
  C   0.93707421301069     -0.43388252907447     -0.23172581967199
  F   -1.00293957420570     -1.10153713101358     -1.36296224847247
  H   1.39197743832144     -1.34865742997114     -0.62931254911615
  H   -0.72463734764951     -1.52565126843644      0.57879210446010
  C   -1.37131788922014      0.52494211656160      0.31720341457493
  H   -1.23850004637520      1.33686212633751     -0.39977622746514
  H   -2.43062580943351      0.26830607276082      0.35776549771829
  H   -1.05806141978831      0.86427321503159      1.30655237473723
  C   1.51127330445951     -0.15466016236695      1.08711237473587
  N   1.92904606428270      0.05276790659605      2.16414083331026
  C   1.21710188906347      0.66288948733950     -1.16432338566198
  N   1.42282404287149      1.54191248828084     -1.91413793148257
