13
Coordinates from ORCA-job run
  C   -0.53327679546622     -0.55182230790325      0.12760459526155
  C   0.90167075054427      0.00129041443237      0.24352332829408
  F   -0.61105953905665     -1.25321428030932     -1.06177243022315
  H   0.99014910307741      0.52768096945888      1.20237765973590
  H   -0.68058748566544     -1.27012336060535      0.94041963434661
  C   -1.58394210012466      0.53154939574975      0.14298110380472
  H   -1.44408787112843      1.21090193300643     -0.69904310362384
  H   -1.54353854722025      1.10115334358283      1.07413299109428
  H   -2.57140527859595      0.07656325614497      0.05900262192269
  C   1.18212469988038      0.95884135680951     -0.83215552047446
  N   1.37296434855094      1.74569750265849     -1.68145428858619
  C   1.87894527501411     -1.09276512802237      0.23082156749770
  N   2.64204344019049     -1.98375309500295      0.25356184095010
