13
Coordinates from ORCA-job run
  C   -0.49779282614137     -0.58599810727705      0.12123298634379
  C   0.89304168564874      0.06428557786604      0.26606694135213
  F   -0.49847043132550     -1.30207499877487     -1.06193913208207
  H   0.92239372484563      0.60128216307808      1.22254149161199
  H   -0.61607652849187     -1.30513643173813      0.93807866910638
  C   -1.61965293587442      0.42333145884804      0.09925453520117
  H   -1.63821748736896      1.00661696422446      1.02276750941130
  H   -2.57191696232268     -0.09926278374115      0.00109528436407
  H   -1.50784445717365      1.09968498889431     -0.74966918540582
  C   1.13419791906687      1.03159672103777     -0.81019421141763
  N   1.29156902437149      1.82302375100393     -1.66215414795278
  C   1.94258663372326     -0.96040501880497      0.28435870361305
  N   2.76518264104247     -1.79594428461647      0.32956055585440
