13
Coordinates from ORCA-job run
  C   -0.54543156395065     -0.53153922969607      0.15900004315728
  C   0.91324809810725     -0.03197667208270      0.19749887095425
  F   -0.71014270258852     -1.23581030558320     -1.02002191565554
  H   1.07105860186295      0.49250302888086      1.14831868109183
  H   -0.67674180619212     -1.23984979679309      0.98339202853801
  C   -1.55357013776844      0.58990860238430      0.22041808306533
  H   -2.56018500226012      0.17091255075041      0.19116833720125
  H   -1.43303630328096      1.25906817369799     -0.63311659401796
  H   -1.44401272530991      1.16301276692364      1.14417145594204
  C   1.17279513543044      0.91337707108906     -0.89393342399490
  N   1.34581848864995      1.69394052500000     -1.75300591557544
  C   1.84622734320601     -1.16212030116501      0.13638705720221
  N   2.57397257409413     -2.08242641340620      0.11972329209164
