13
Coordinates from ORCA-job run
  C   -0.57653585109878     -0.69045874229942     -0.10724185775091
  C   0.92909241180585     -0.40525876867718     -0.30544172390081
  F   -1.06345935780643     -1.05808862419758     -1.35182845059437
  H   1.37228419579577     -1.29093081241155     -0.77538668748842
  H   -0.66533102476248     -1.56122325054166      0.54990430954147
  C   -1.35840163816666      0.48692449637393      0.41712557115002
  H   -0.99007623385675      0.79246555246134      1.39861398331959
  H   -2.40860567836783      0.20782827548654      0.51183817264058
  H   -1.28450599470246      1.32939220742814     -0.27273090771959
  C   1.57606911946269     -0.18443994650922      0.99040669249820
  N   2.05450661921144     -0.02971863312272      2.05102041962361
  C   1.13667471842128      0.74155176295166     -1.19555390613092
  N   1.27928871406436      1.66095648305771     -1.91072561518844
