13
Coordinates from ORCA-job run
  C   -0.56826775972871     -0.70057957931115     -0.09077241041519
  C   0.94601211784784     -0.42266192955120     -0.22242779199573
  F   -0.98327375939422     -1.15623600297242     -1.33230224400541
  H   1.41759668084847     -1.33788258610958     -0.59878461727290
  H   -0.69401695791052     -1.52390248436586      0.61934351574878
  C   -1.37918313249245      0.50710306593722      0.30509483156025
  H   -2.43273146792726      0.23054931932077      0.36282000672820
  H   -1.26886081109918      1.29846799399532     -0.43825878809814
  H   -1.06494466113101      0.88357012858770      1.28066028740439
  C   1.51557615725333     -0.10114383281227      1.08848139672431
  N   1.92757581788059      0.14123357809180      2.16053869129216
  C   1.20249324795664      0.65680170893488     -1.18147266235575
  N   1.38202452789646      1.52368062025479     -1.95192021531499
