13
Coordinates from ORCA-job run
  C   -0.59570783122001     -0.67349592694949     -0.10921207783445
  C   0.92150366819734     -0.43768481994074     -0.28131472930291
  F   -1.06994478885541     -1.04439800608695     -1.35775371811820
  H   1.34573654136943     -1.34222243093236     -0.73214402414907
  H   -0.72413658810587     -1.53130791232506      0.55854209228116
  C   -1.35047371960440      0.53537569331525      0.38243954732049
  H   -0.98327585505833      0.85261524864873      1.36072365426572
  H   -2.40880291719414      0.28714386327132      0.47239427746122
  H   -1.24644278416981      1.35995790091137     -0.32507391440758
  C   1.54968508314098     -0.22101835716132      1.02431821113861
  N   2.01050893728247     -0.07042581393436      2.09327682515860
  C   1.18271372865821      0.69045913136300     -1.18106954376924
  N   1.36863652555957      1.59500142982059     -1.90512660004433
