13
Coordinates from ORCA-job run
  C   -0.52971845190555     -0.56352900284446      0.09388743323860
  C   0.91036608911019     -0.02327282338606      0.20780814438292
  F   -0.65636835443387     -1.14625687347750     -1.15375319276049
  H   1.03718047634139      0.40197617644337      1.21146295335703
  H   -0.64724300479800     -1.35742040277347      0.83843157908642
  C   -1.57515877532820      0.51297792364373      0.25510398019860
  H   -1.47261347334944      1.26355309040628     -0.53028144345350
  H   -2.56737062339599      0.06661501780158      0.17872167021536
  H   -1.48814543538464      0.99934441224828      1.22948645831673
  C   1.15106129868101      1.04001145890368     -0.77377270142345
  N   1.30962097290778      1.91053199332067     -1.54452986485266
  C   1.88357946921272     -1.10867023561081      0.04465947204026
  N   2.64480981234262     -1.99586073467530     -0.05622448834584
