13
Coordinates from ORCA-job run
  C   -0.58419252732048     -0.68765631613079     -0.07224697832526
  C   0.92717543041029     -0.43385136509131     -0.26894615413769
  F   -1.06199251387264     -1.12083470393165     -1.29941442590130
  H   1.36489795566533     -1.35270357947585     -0.67610251291909
  H   -0.69262358159576     -1.51763487390028      0.63306080599270
  C   -1.35569574262914      0.52846752497365      0.37312715027674
  H   -2.41039820607224      0.26886724691844      0.47310568788249
  H   -1.26379434989008      1.32739162562988     -0.36472579419869
  H   -0.99305857615644      0.88715809673571      1.33863078951639
  C   1.56208532057241     -0.13991801683961      1.01823381381338
  N   2.03114333788778      0.07131757169592      2.07323100790821
  C   1.15868734111865      0.65107875633821     -1.22790749718133
  N   1.31876611188232      1.51931803307768     -2.00104589272654
