17

C	0.0	0.0	0.0
C	-0.434284	-0.114237	-1.456446
F	1.389687	0.0	0.0
H	0.014438	0.709487	-2.008587
N	-0.303093	1.412375	0.518552
O	-0.341759	1.538853	1.737597
O	-0.389409	2.317246	-0.302722
N	-0.596387	-0.902074	0.845333
H	-0.56394	-1.852791	0.512776
H	-0.389754	-0.76559	1.821232
N	-1.803996	-0.270079	-1.672487
H	-2.412806	-0.416022	-0.8594
H	-2.205578	0.46866	-2.226883
N	0.331883	-1.336415	-2.022455
O	1.018288	-1.148443	-3.023439
O	0.161922	-2.426503	-1.478112
Cl	-4.453006	0.0	0.0
