17

C	0.0	0.0	0.0
C	-0.192458	-0.07353	-1.553329
F	1.385131	0.0	0.0
H	0.196679	-1.069868	-1.762973
N	-0.29229	1.39742	0.624194
O	-0.344567	2.382673	-0.104762
O	-0.368039	1.406942	1.848681
N	-0.586111	-1.036806	0.695924
H	-1.602221	-0.990371	0.503492
H	-0.457814	-0.883676	1.692278
N	0.589499	0.900613	-2.247327
H	0.161717	1.811225	-2.140102
H	0.616812	0.656036	-3.229315
N	-1.591486	-0.141276	-2.160158
O	-2.090372	0.918585	-2.516282
O	-2.017701	-1.266278	-2.399886
Cl	-3.604845	0.0	0.0
