17

C	0.0	0.0	0.0
C	-0.492972	-0.263896	-1.422287
F	1.380436	0.0	0.0
H	0.216438	0.1807	-2.126207
N	-0.288536	1.490003	0.279403
O	-0.861438	1.787697	1.31967
O	0.178094	2.26852	-0.54088
N	-0.627302	-0.758894	0.965378
H	-0.344681	-1.72408	0.964018
H	-0.699507	-0.321628	1.869168
N	-1.777082	0.236282	-1.599383
H	-2.504738	-0.028911	-0.919686
H	-2.120913	0.128936	-2.541189
N	-0.324323	-1.79278	-1.730969
O	-0.865433	-2.170227	-2.76372
O	0.362186	-2.503643	-0.994825
Cl	-4.510095	0.0	0.0
