17

C	0.0	0.0	0.0
C	-0.615757	-0.006605	-1.41632
F	1.362818	0.0	0.0
H	-1.40457	0.743709	-1.421622
N	-0.267447	1.398268	0.681554
O	-0.763961	2.319335	0.049718
O	0.092984	1.44862	1.857324
N	-0.485114	-1.038102	0.779187
H	-1.484342	-1.147298	0.597927
H	-0.319254	-0.824095	1.755578
N	-1.1176	-1.268866	-1.796485
H	-0.466836	-1.787971	-2.364945
H	-2.037602	-1.190366	-2.200097
N	0.474282	0.500921	-2.369716
O	0.915342	-0.286041	-3.206165
O	0.852289	1.657469	-2.226842
Cl	-3.558094	0.0	0.0
