17

C	0.0	0.0	0.0
C	-0.59206	0.261812	-1.384362
F	1.345663	0.0	0.0
H	-1.627522	0.585871	-1.238551
N	-0.313242	1.217971	0.9276
O	-0.865387	2.207233	0.468303
O	0.052728	1.066257	2.092067
N	-0.517901	-1.18613	0.536588
H	-1.544433	-1.118276	0.492032
H	-0.227728	-1.256002	1.506131
N	-0.466496	-0.904634	-2.219389
H	-1.33428	-1.034614	-2.72076
H	-0.321721	-1.711124	-1.625256
N	0.072929	1.410418	-2.119825
O	1.002229	2.036224	-1.619764
O	-0.412764	1.631139	-3.225984
Cl	-3.553476	0.0	0.0
