12

C	0.0	0.0	0.0
C	-0.506507	-0.151721	-1.424896
F	1.404412	0.0	0.0
H	-0.290998	-1.164245	-1.780194
H	-0.329456	0.952993	0.415832
H	-1.599438	-0.035744	-1.372694
N	-0.493711	-1.058289	0.790623
H	-0.502781	-0.852767	1.776024
H	-0.013909	-1.925094	0.597042
C	0.097034	0.81078	-2.341801
N	0.587215	1.582627	-3.07719
Br	-3.935463	0.0	0.0
