12

C	0.0	0.0	0.0
C	-0.437898	-0.185861	-1.454531
F	1.401184	0.0	0.0
H	-0.13536	-1.185333	-1.785711
H	-0.333275	0.973732	0.363089
H	-1.533162	-0.130754	-1.468944
N	-0.47891	-1.001041	0.893054
H	-1.478472	-0.8297	1.017235
H	-0.384848	-1.913672	0.4595
C	0.14663	0.802615	-2.359634
N	0.649871	1.554295	-3.105783
Br	-3.703778	0.0	0.0
