12

C	0.0	0.0	0.0
C	-0.475771	-0.494294	-1.358964
F	1.380787	0.0	0.0
H	-0.140315	0.203552	-2.131299
H	-0.300962	1.05044	0.112024
H	-1.572586	-0.50492	-1.352925
N	-0.472679	-0.869274	1.030965
H	-0.285276	-0.443944	1.931841
H	-1.488878	-0.917473	0.932517
C	0.052154	-1.819705	-1.674012
N	0.463351	-2.874611	-1.982229
Br	-3.734566	0.0	0.0
