15

C	-0.147162	0.010906	0.042613
C	-0.526409	0.153775	-1.426216
F	1.022739	-0.724643	0.191758
H	-1.517582	0.606926	-1.452047
H	-0.984964	-0.522388	0.50963
C	0.052247	1.312251	0.696226
N	0.22753	2.342186	1.231458
C	-0.512108	-1.179849	-2.142889
H	-1.267259	-1.807413	-1.66815
H	-0.780664	-1.040576	-3.192619
H	0.472939	-1.638873	-2.081322
N	0.403543	1.119862	-2.096101
O	-0.024868	2.250658	-2.331379
O	1.542522	0.72979	-2.352657
Cl	-3.259187	-1.119955	0.117351
