14

C	0.0	0.0	0.0
C	-0.428383	-0.39443	-1.440661
F	1.377411	0.0	0.0
H	0.505508	-0.495372	-2.012299
C	-0.434685	1.322489	0.47207
N	-0.501579	2.388655	0.964721
C	-0.413308	-1.017095	0.98218
N	-0.468816	-1.885025	1.774196
N	-1.162736	0.694258	-2.181258
O	-2.118109	0.386947	-2.874886
O	-0.634958	1.800266	-2.119639
C	-1.162492	-1.648522	-1.523735
N	-1.58448	-2.729037	-1.709747
F	-2.231012	0.0	0.0
