14

C	0.0	0.0	0.0
C	-0.436235	-0.123346	-1.487956
F	1.362493	0.0	0.0
H	0.497729	-0.148417	-2.069242
C	-0.450573	1.207189	0.709643
N	-0.524048	2.164243	1.390558
C	-0.418867	-1.183127	0.774068
N	-0.475574	-2.158294	1.429181
N	-1.13389	1.103394	-2.018866
O	-0.565619	2.161383	-1.766802
O	-2.106691	0.958622	-2.740678
C	-1.206459	-1.320372	-1.79635
N	-1.660269	-2.329677	-2.191339
F	-2.235209	0.0	0.0
