14

C	0.0	0.0	0.0
C	-0.379987	-0.014534	-1.497367
F	1.361267	0.0	0.0
H	-0.096317	-0.995621	-1.887142
C	-0.442635	1.18455	0.752285
N	-0.544798	2.130575	1.442515
C	-0.457828	-1.235369	0.654463
N	-0.557999	-2.279248	1.186293
N	0.544308	0.948044	-2.206877
O	0.513262	2.115652	-1.836032
O	1.244618	0.490876	-3.105954
C	-1.754344	0.298294	-1.896705
N	-2.541124	0.532893	-2.747883
F	-2.322813	0.0	0.0
