12
Coordinates from ORCA-job run
  C   -0.59454591755002     -0.84324586915130     -0.26854451725264
  C   0.15207325727608      0.50182027880943     -0.18517685871550
  Cl  -1.32386064294017     -1.05625347156723     -1.87934517641240
  H   -0.58465800770813      1.29420819898864     -0.34804828716877
  H   0.11511710212426     -1.66244920975698     -0.12557664245441
  C   -1.62224987301014     -0.90492822069215      0.76525544311236
  N   -2.46838467070129     -0.95870230546303      1.57726755134249
  C   1.16173102053144      0.58380651048890     -1.25760806513306
  N   2.02880183569245      0.65411932145431     -2.04705219721797
  N   0.70097847571433      0.63514474106113      1.15051041261179
  H   1.58552664418982      0.14912529698852      1.23170784887973
  H   0.84847077638136      1.60735472883977      1.38661048840838
