12
Coordinates from ORCA-job run
  C   -0.56929642651232     -0.77609245568257     -0.29007639075409
  C   0.24191025078019      0.54865446154840     -0.27290309107557
  Cl  -1.38259184843480     -0.99926520699507     -1.85746256712224
  H   -0.44669008660824      1.35057110202768     -0.55955800165054
  H   0.10928277677649     -1.62213542520417     -0.15206120561741
  C   -1.54433627971520     -0.75108902519725      0.79507494161652
  N   -2.30081867096793     -0.67691984512890      1.69061060215258
  C   1.29452897305631      0.46422888924124     -1.29371878902694
  N   2.15455473788151      0.36462630639787     -2.08595360051468
  N   0.83544333769738      0.88346333301989      1.00124706731384
  H   0.12761462020550      1.04146640378276      1.70714042704814
  H   1.48039861584111      0.17049146219011      1.31766060763040
