12
Coordinates from ORCA-job run
  C   -0.93116610313970     -0.50812309634648      0.09809788663499
  C   0.22964550325510      0.41441599505249     -0.30005496085421
  Cl  -0.91249678664264     -0.82171902495380      1.85356987700682
  H   0.16193427705308      0.53895651017180     -1.38673047829046
  H   -1.85751168624621      0.02794743306121     -0.11844528227085
  C   -0.88788484127998     -1.76339847660794     -0.64368127347327
  N   -0.84595419648093     -2.75263725179792     -1.27526276862185
  C   1.52606519361824     -0.22640326487992     -0.00228472969858
  N   2.57989473081374     -0.67759703144892      0.25414669442697
  N   0.03526604967803      1.71623083596979      0.31006462810752
  H   0.22254837268945      1.66745508055993      1.30483255854727
  H   0.67865948668181      2.38587229121976     -0.09425215151433
