12
Coordinates from ORCA-job run
  C   -0.87005126336225     -0.51069858123097     -0.44185053126295
  C   0.28212438971284      0.50465871822590     -0.34358097780460
  Cl  -2.42555287027241      0.35279256913964     -0.26958977702296
  H   0.11028796538592      1.24829787117212     -1.13739190187581
  H   -0.87652304036048     -0.96258056240518     -1.43626918248820
  C   -0.75348533860932     -1.55553031160062      0.56892781042801
  N   -0.66240531569453     -2.43057135261711      1.34636227969557
  C   1.53505746682162     -0.19302695047215     -0.65523434051627
  N   2.53485403138304     -0.74590684724854     -0.92463378179561
  N   0.34292990783316      1.04992798234560      1.00022872102490
  H   1.21018231207075      1.55120956992258      1.14442473466937
  H   -0.42741824490833      1.69042789476873      1.14760694694854
