12
Coordinates from ORCA-job run
  C   -0.89454272892283     -0.57178177883520     -0.43561533917536
  C   0.16814328631422      0.54503836198417     -0.40557118593984
  Cl  -2.52620508272472      0.13079481124058     -0.39639108849343
  H   -0.10381502837887      1.25923243541821     -1.18848828610506
  H   -0.80911071013421     -1.13330034788390     -1.36883537855793
  C   -0.69793324319545     -1.47858465281763      0.69173211986360
  N   -0.49443160238123     -2.18196383058078      1.60999551570111
  C   1.47225167576825     -0.05370610796007     -0.76314394974449
  N   2.52177704183213     -0.52212870241843     -1.00771956410332
  N   0.14460335231172      1.22957739991832      0.86745781656906
  H   0.57948720978831      0.66667018288828      1.58940897009007
  H   0.63877582972268      2.11015222904644      0.80817036989557
