12
Coordinates from ORCA-job run
  C   -0.97515614512992     -0.41647138736101      0.10297557521962
  C   0.29245966732439      0.31740409911215     -0.35786685205341
  Cl  -1.15782545342793     -0.30641998899804      1.87333699991834
  H   0.34371767768217      0.18511199988124     -1.44454459105681
  H   -1.82684897246741      0.10631910494375     -0.33699452334913
  C   -0.96297184514686     -1.81171078715197     -0.32168483833254
  N   -0.94184354995175     -2.92313588525157     -0.70038593766188
  C   1.49494907516890     -0.30847253898834      0.22742484948483
  N   2.47740085427920     -0.74534303415908      0.70049613474527
  N   0.14703164253880      1.73519437648241     -0.08843316176353
  H   0.87794968859766      2.25368031814009     -0.56000132135206
  H   0.23113736053275      1.91284372335038      0.90567766620130
