12
Coordinates from ORCA-job run
  C   -0.68745727020613     -0.74510301338225     -0.33204171863934
  C   0.18648161376808      0.50752828581905     -0.13033150896144
  Cl  -1.53313458801563     -0.67322226842890     -1.89769307262810
  H   -0.48055490450550      1.37472459463286     -0.13609214855481
  H   -0.05044963532602     -1.63342023735621     -0.35046536982444
  C   -1.64879855897933     -0.86035401739994      0.75970470652665
  N   -2.44147444320054     -0.95702459569735      1.61997855077202
  C   1.13270585997526      0.64664571096618     -1.25340744942442
  N   1.95409049748044      0.75029984883574     -2.08696994535362
  N   0.82572077597634      0.41198607933536      1.16796770955373
  H   1.66663908906023     -0.14994293940476      1.12048340664200
  H   1.07423156397280      1.32788255208023      1.51786683989178
