12
Coordinates from ORCA-job run
  C   -0.55279454742331     -0.88773881700615     -0.24559035650509
  C   0.20700719414388      0.45434657459282     -0.26623601713296
  Cl  -1.34359367033716     -1.19012846954923     -1.81024509349947
  H   -0.50252723940465      1.23295176950231     -0.58196916324623
  H   0.16351364839579     -1.69054940240808     -0.06281938145742
  C   -1.54126274230558     -0.85570400043506      0.82753407191791
  N   -2.32044259925532     -0.77084161370897      1.70204662207826
  C   1.27423064510027      0.38860155920134     -1.26880931211161
  N   2.15004977628696      0.35057001685631     -2.04909404668090
  N   0.78899070291769      0.64909106113858      1.05520706704358
  H   0.09798575417208      1.03910683819016      1.68504433048112
  H   1.57884307770935      1.28029448362597      1.01493127911282
