12
Coordinates from ORCA-job run
  C   -0.95795174223445     -0.45914201188044     -0.07880312313047
  C   0.34251636160758      0.32581655119181     -0.30293844626516
  Cl  -1.48512546483335     -0.33184393475287      1.62006351026061
  H   0.60852927336619      0.18118426664850     -1.35620038497956
  H   -1.72971216048341      0.01698594925506     -0.68709996731284
  C   -0.80418810182538     -1.85873500885209     -0.45925729104980
  N   -0.66316347983358     -2.97463235941645     -0.79690691497893
  C   1.43471129353280     -0.23614511435472      0.51667672724080
  N   2.32672942267195     -0.61890714466433      1.17825253532822
  N   0.08748225311424      1.73902156772292     -0.09818106432700
  H   0.87671043308716      2.28339771071606     -0.42456455277703
  H   -0.03653808816975      1.93199952838654      0.88895897199117
