12
Coordinates from ORCA-job run
  C   -0.84175445711625     -0.57230967375106     -0.42351369349140
  C   0.25901000010099      0.50136006565295     -0.36356347388661
  Cl  -2.43840473038634      0.22109440952695     -0.29749289340886
  H   0.05629328906706      1.20095091788273     -1.18943001904755
  H   -0.81853400818308     -1.06686320715713     -1.39723819297861
  C   -0.68142449542068     -1.56509226474468      0.63286696185116
  N   -0.54968887394664     -2.39702841912801      1.45061180589743
  C   1.54700270437185     -0.14577708530409     -0.63893209093616
  N   2.57667728573340     -0.65543104863677     -0.87995931948290
  N   0.28373314153859      1.10660606239669      0.95563781402468
  H   1.12513316595489      1.65445351015957      1.08225258490490
  H   -0.51704302171380      1.71603673310285      1.06976051655391
