12
Coordinates from ORCA-job run
  C   -0.85637713610460     -0.58553156145019     -0.49056804985848
  C   0.16763722138015      0.56191924858711     -0.38001781792907
  Cl  -2.50972804581526      0.06625433794854     -0.50090668322401
  H   -0.09673091417287      1.29417718779533     -1.14870875217252
  H   -0.71388657797470     -1.11457570278932     -1.43569117503214
  C   -0.68031205055740     -1.52051894467632      0.61708649700140
  N   -0.49657209290874     -2.24426655408179      1.52350818065546
  C   1.50364601621087      0.01830001674786     -0.70609071209189
  N   2.57705784935491     -0.40569583349955     -0.92742290615533
  N   0.07176915372061      1.20008257547981      0.91324158895910
  H   0.53321571309316      2.10011479830947      0.90317699892780
  H   0.50028086377386      0.62874043162904      1.63239283091968
