12
Coordinates from ORCA-job run
  C   -0.85579287054412     -0.61384322607564     -0.45520801427572
  C   0.15648995692044      0.54819153066402     -0.40390930516798
  Cl  -2.51650924080298      0.01878663414473     -0.46998148170211
  H   -0.12570319297920      1.24633879923410     -1.19763691455297
  H   -0.71935320508278     -1.17886758236417     -1.38022257643659
  C   -0.65451396154973     -1.50205677255581      0.68603930827268
  N   -0.44925032112848     -2.18761678573109      1.61720474642767
  C   1.49372008862249      0.00557541758858     -0.72602445139316
  N   2.56680799454144     -0.41988939548767     -0.94605222877262
  N   0.06977592899223      1.23628242633088      0.86420688218874
  H   0.51430020493152      2.14313537137897      0.81092219396912
  H   0.51902861807918      0.70196358287311      1.59866184144294
