12
Coordinates from ORCA-job run
  C   -0.50635800375268     -0.92470318124296     -0.16106421802159
  C   0.11673185231698      0.48157498589281     -0.25196282518592
  Cl  -1.14133734930511     -1.43219712533647     -1.74568429682952
  H   -0.67768191457602      1.17105138053564     -0.55299761560945
  H   0.26424504627733     -1.64609479280863      0.12288342336353
  C   -1.57067546333207     -0.93089108622569      0.83690359375754
  N   -2.44504337184189     -0.94456136409216      1.62013864761202
  C   1.16335642846583      0.50147504462275     -1.29132501364179
  N   2.05698884547250      0.53657788648503     -2.05296915757967
  N   0.59076923677730      0.85479571318594      1.06678331549864
  H   0.63934740771992      1.86032009242900      1.16403956490440
  H   1.51065728577791      0.47165244655475      1.24625458173181
