12
Coordinates from ORCA-job run
  C   -0.84406658431566     -0.51147969146675     -0.41451866818747
  C   0.28528251770933      0.55705443749548     -0.44060197343176
  Cl  -2.42016647280633      0.30863416186953     -0.25114813260769
  H   0.03513484842265      1.25002123998754     -1.25128008793141
  H   -0.86686126738586     -1.05954699728916     -1.35946285776245
  C   -0.63848847162648     -1.43635564328888      0.69355965893688
  N   -0.42668940242254     -2.14677129611627      1.60478299255196
  C   1.53176542021266     -0.13297231149546     -0.80084099738046
  N   2.50609610522224     -0.72224421490237     -1.08584866415171
  N   0.47642601471063      1.32070435974473      0.76670234505695
  H   0.71493138066000      0.72161557327117      1.54807138974731
  H   -0.35536408838064      1.85134038219045      0.99058499515985
