12
Coordinates from ORCA-job run
  C   -0.96177562500292     -0.45005009589051      0.08400237222081
  C   0.28006542950521      0.34698406603720     -0.34048211868354
  Cl  -1.13214981731070     -0.45248652374764      1.85912055462151
  H   0.32552053063833      0.28150157513105     -1.43348243830173
  H   -1.83199007249518      0.07320338750952     -0.31753428846595
  C   -0.91296577863637     -1.81624923968124     -0.42408562997104
  N   -0.86177897286746     -2.90171891555105     -0.86939292142153
  C   1.50515792943518     -0.27739229283630      0.19747849133973
  N   2.50426322833653     -0.71323652620210      0.63539895790654
  N   0.09579478206708      1.74125660634962      0.01447379964037
  H   0.17524027287346      1.86004100352025      1.01784487144183
  H   0.81261809345684      2.30714695536120     -0.42334165032699
