12
Coordinates from ORCA-job run
  C   -0.61676790748947     -0.83798639206728     -0.23232999733169
  C   0.15833167786944      0.49311219795579     -0.20323230236397
  Cl  -1.37725679568918     -1.08662416116289     -1.82330650513463
  H   -0.56534251742436      1.29571189183210     -0.37439583780123
  H   0.07808197177938     -1.66698933391677     -0.07433104584374
  C   -1.62780174423934     -0.84547528936760      0.81964625867373
  N   -2.45901134543798     -0.85748193832414      1.64846274183432
  C   1.14905360213942      0.52297220899867     -1.29561072657004
  N   2.00512443170851      0.54959297215764     -2.09972105597378
  N   0.73574759303593      0.65265723196168      1.11791903130683
  H   1.61222066520734      0.15147530289315      1.19473551516646
  H   0.90862036854032      1.62803530903967      1.32216392403774
