12
Coordinates from ORCA-job run
  C   -0.80425433547044     -0.52953449284258     -0.46763253249684
  C   0.28420361187206      0.57929952169273     -0.40911881416240
  Cl  -2.41590834524760      0.22677707634943     -0.35310836539141
  H   0.04444654439226      1.28875682222350     -1.20859214881687
  H   -0.76323670802937     -1.04780913074125     -1.42854470165154
  C   -0.61420630045286     -1.48050054014799      0.62092791141764
  N   -0.41566664813497     -2.20739107364316      1.52195806708888
  C   1.57045455048668     -0.05281315099867     -0.73449453714498
  N   2.57794484700043     -0.59549206270250     -0.99629685731467
  N   0.39259672922871      1.31037083800498      0.82811739112394
  H   0.60781594355863      0.69465417544057      1.60363596536873
  H   -0.46418988920353      1.81168201736494      1.02414862197952
