12
Coordinates from ORCA-job run
  C   -0.81679537531021     -0.45795690595307      0.28647912493368
  C   0.27391492748885      0.41640792407076     -0.38861441998568
  Cl  -0.46045134027712     -0.68127136474258      2.01708874165018
  H   -0.01207084443780      0.49394952602748     -1.44476456377740
  H   -1.76659905255877      0.08057794994704      0.22763371998896
  C   -0.95241118729410     -1.74640822484389     -0.38251686509875
  N   -1.05560034507703     -2.76083484392150     -0.96586677062473
  C   1.56456412776033     -0.28271653195379     -0.33027580619865
  N   2.59397079648217     -0.84283866544669     -0.26960678572892
  N   0.41820058195220      1.75368034029498      0.13556105499027
  H   -0.42596918445357      2.29291602619062     -0.00921829630825
  H   0.63924689572506      1.73549477033065      1.12310086615930
