12
Coordinates from ORCA-job run
  C   -0.83405920803492     -0.49528865099024      0.13579011763901
  C   0.30564383105964      0.46440367666596     -0.29938132246163
  Cl  -0.65507033352547     -0.94705579785898      1.84926445864078
  H   0.13043584368367      0.68005428792526     -1.36057273658728
  H   -1.78161287343240      0.04361753099667      0.04996559231164
  C   -0.87884319631757     -1.68265053163217     -0.70927135758568
  N   -0.90509766830079     -2.60763143948877     -1.43298789026332
  C   1.59541748457777     -0.23109801864437     -0.19624140862538
  N   2.62412231939350     -0.78685639542085     -0.09695310110877
  N   0.37135137751799      1.72084655440858      0.40852548238596
  H   0.49121873631497      1.57197172320711      1.40261270253478
  H   -0.46350631293638      2.27068706083180      0.25024946311990
