12
Coordinates from ORCA-job run
  C   -0.89728285197379     -0.50808947241879      0.30938711083177
  C   0.22204000677964      0.38590098141955     -0.26890548587372
  Cl  -0.53353977902778     -0.98041814250208      1.98112162117771
  H   -0.01420736452925      0.52874962754144     -1.33241057160912
  H   -1.80887830949809      0.09317142761332      0.34048160432825
  C   -1.11038086156134     -1.68637826810041     -0.52567507742953
  N   -1.27083335452188     -2.60714993096920     -1.23687193857528
  C   1.50923413339880     -0.31441910747098     -0.20914816891065
  N   2.55761392789417     -0.84005962766564     -0.15812319718416
  N   0.25467764860020      1.64783837868677      0.45410732217683
  H   -0.09199482678076      2.39916649915890     -0.12530877856777
  H   1.18355163122008      1.88268763470711      0.77234555963565
