12
Coordinates from ORCA-job run
  C   -0.60023315131737     -0.76520163823623     -0.25284583529804
  C   0.25809798491115      0.52918242602733     -0.29406757248845
  Cl  -1.44182815626946     -1.01591754057071     -1.80115146522937
  H   -0.40634861329469      1.34515399112102     -0.59728936806946
  H   0.04939759402737     -1.62960446663923     -0.09163230392468
  C   -1.56014381348408     -0.66355890987066      0.84123504466157
  N   -2.30520734525511     -0.52452659066171      1.73876311965818
  C   1.28944371530179      0.37238291824086     -1.32783703742933
  N   2.13000040693622      0.21506528204395     -2.13144474746567
  N   0.88413469909169      0.88477480137162      0.95855192792937
  H   1.50934460805975      0.16049413556950      1.28880393730098
  H   0.19434207129274      1.09175559160428      1.66991430035488
