12
Coordinates from ORCA-job run
  C   -0.90185695731613     -0.54522736924897      0.15517473368515
  C   0.17753783897442      0.46887616910077     -0.24991110770958
  Cl  -0.58807745220518     -1.17867698115444      1.79219284496851
  H   -0.07240882213295      0.78991889464211     -1.26752416655911
  H   -1.84964675803975     -0.00488626866914      0.20029820812139
  C   -0.98802788568319     -1.63858978431665     -0.80626334556156
  N   -1.05877826243902     -2.48960643403872     -1.61252386290428
  C   1.50403389228295     -0.17803375394628     -0.29813416319846
  N   2.58501424885724     -0.63738418615009     -0.31553435743054
  N   0.09159519230715      1.62875735072250      0.61672590493529
  H   0.65773466265514      2.38143023381446      0.24449996197683
  H   0.44288030273933      1.40242212924446      1.53999934967636
