12
Coordinates from ORCA-job run
  C   -0.80970548208593     -0.55560201334761     -0.42477408352725
  C   0.26876982892787      0.56439372646119     -0.44075097787274
  Cl  -2.42555578751138      0.19078961251484     -0.30322841837396
  H   0.00331147820267      1.23580760354004     -1.26457602047508
  H   -0.78700701253366     -1.11421925157726     -1.36337018002021
  C   -0.58414041408758     -1.45702967843831      0.69853699592053
  N   -0.35720362831329     -2.14411207503268      1.62381567919478
  C   1.55299729426927     -0.07060461673666     -0.76844149881114
  N   2.55784702837808     -0.61780560696563     -1.03084700293593
  N   0.39888972680231      1.34988670302490      0.76055732872984
  H   -0.45935051132085      1.84838064870738      0.95717617186969
  H   0.64214747927247      0.77111494784980      1.55590200630146
