12
Coordinates from ORCA-job run
  C   -0.95557374900776     -0.45587614719736     -0.11856114944955
  C   0.37667658249026      0.28526818680197     -0.30210394034952
  Cl  -1.64024011376766     -0.12984364424812      1.49527250146584
  H   0.73993038601719      0.01720200369143     -1.30068484179273
  H   -1.65505891337055     -0.04442943130870     -0.84914604347220
  C   -0.79528346519869     -1.89106048886096     -0.32288685670912
  N   -0.64500275401254     -3.03894137739994     -0.52035269532941
  C   1.37253743023276     -0.18846788511472      0.67978892280184
  N   2.18613612905494     -0.50277891193659      1.46663543604272
  N   0.13279579533628      1.71504317159290     -0.28608520384182
  H   0.95875440349972      2.21029840974390     -0.59906020500467
  H   -0.07667173127394      2.02358611423619      0.65618407563863
