12
Coordinates from ORCA-job run
  C   -0.58709850345074     -0.86355703426890     -0.21634651732286
  C   0.14869392466036      0.49015024923954     -0.21367154888950
  Cl  -1.30866232353968     -1.18303139500505     -1.81288578293417
  H   -0.59521123782553      1.26554781895657     -0.41980543248512
  H   0.12827244912966     -1.66644665685877     -0.01931113350820
  C   -1.61850336992818     -0.86709832307783      0.81581012928347
  N   -2.46825757542930     -0.87373359866879      1.62570838433203
  C   1.15518813049033      0.51975172609846     -1.29136619308432
  N   2.01942846328522      0.55353797102682     -2.08627282840054
  N   0.69874463812969      0.70424973621053      1.11129873945996
  H   1.58855476281992      0.23291551988248      1.21691636597274
  H   0.83785064165826      1.68971398646494      1.29092581757650
