12
Coordinates from ORCA-job run
  C   -0.64827108434359     -0.79927753249826     -0.30587432412151
  C   0.23905622234239      0.45998924081603     -0.22824643157374
  Cl  -1.53306650564992     -0.85492061170197     -1.84817636103585
  H   -0.40268605449205      1.33172099912057     -0.42205567286780
  H   -0.00664343255702     -1.68008801586167     -0.24665722620633
  C   -1.58041113133502     -0.79322083704445      0.81692666304150
  N   -2.30914291420109     -0.73592815616198      1.73607860789481
  C   1.24892093884992      0.40336780278489     -1.28909275539889
  N   2.07947708748960      0.36887367942536     -2.11753655558631
  N   0.89485835567971      0.45444308433073      1.07274229280351
  H   1.74256763568078      1.00666853165390      1.05512339725985
  H   0.27534088253627      0.83937181513683      1.77576836579075
