12
Coordinates from ORCA-job run
  C   -0.62095786558040     -0.82363709539474     -0.29930826620830
  C   0.22974665287878      0.46116713568276     -0.23366748299251
  Cl  -1.47711292880734     -0.93583864271096     -1.85477024207765
  H   -0.43294079275423      1.31041371097661     -0.45457510492218
  H   0.04313030225521     -1.68515352683894     -0.21027525678576
  C   -1.57241116077911     -0.81931332840678      0.80742432669770
  N   -2.31787705246945     -0.76179468147534      1.71306667036915
  C   1.25765841982680      0.41249161786010     -1.27742270886183
  N   2.10360550133345      0.38449827122287     -2.09039008993017
  N   0.86508768621643      0.49976502495475      1.07685807763470
  H   0.22495526945181      0.88160601365329      1.76254169571394
  H   1.69811596842804      1.07379550047637      1.06051838136290
