12
Coordinates from ORCA-job run
  C   -0.82148632924884     -0.43860506926366      0.29958566263087
  C   0.27430741462256      0.43087138907354     -0.37299494759892
  Cl  -0.38376984428262     -0.80638772627118      1.98635261781269
  H   -0.06415204160939      0.60078863596891     -1.40248064776630
  H   -1.74398952932529      0.14732540245183      0.33439759076360
  C   -1.06056141349163     -1.66637989490922     -0.44965162845605
  N   -1.25191774819176     -2.63033460374240     -1.09327356879445
  C   1.52861852341341     -0.33067728378893     -0.44104778754342
  N   2.52916377736575     -0.94217499229984     -0.48512620908940
  N   0.51481650503223      1.71723974988126      0.23696938295620
  H   -0.30757291098339      2.30458577819673      0.17926351960761
  H   0.78554359669895      1.61474861470299      1.20700601547756
