12
Coordinates from ORCA-job run
  C   -0.91972140489793     -0.48824437853233      0.22513172726496
  C   0.19517188979757      0.41170372476037     -0.32721216975756
  Cl  -0.65938392306317     -0.82151584362139      1.95758885502365
  H   -0.02265169372842      0.54876359823905     -1.39242443636079
  H   -1.85379183914968      0.07189756222863      0.14691978042469
  C   -1.01270441798862     -1.73574617181261     -0.52450356147738
  N   -1.08388326474796     -2.71838392351986     -1.16355095094669
  C   1.50468037327542     -0.26158119129882     -0.21913574402188
  N   2.57369262926962     -0.73719531849176     -0.11379686739802
  N   0.12027051778251      1.71096272860532      0.31351170378208
  H   0.44587123666203      1.64781277384081      1.27116727284952
  H   0.71344989678863      2.37152643960259     -0.17369560938257
