12
Coordinates from ORCA-job run
  C   -0.90489181517742     -0.53773072764651      0.11055872491773
  C   0.19534902026610      0.47311469705836     -0.24505006498436
  Cl  -0.68063072103003     -1.15636319017629      1.76788155108573
  H   -0.00047149014868      0.78777423697294     -1.27640592123124
  H   -1.85263821208491      0.00459594689958      0.10030238955006
  C   -0.94279744309553     -1.64010234060420     -0.84326246887300
  N   -0.98532276132801     -2.50404704695321     -1.63771228620481
  C   1.51951105527242     -0.17889488411159     -0.21853959097010
  N   2.57218916100026     -0.69819663996862     -0.17274663793920
  N   0.06408989553588      1.63927676786018      0.60804451803608
  H   0.36880311353714      1.41992672201104      1.54931481071206
  H   0.64681019725278      2.39064645865834      0.25961497590104
