12
Coordinates from ORCA-job run
  C   -0.84027426665190     -0.55664528102860     -0.44823783203359
  C   0.27049582722444      0.50400093067469     -0.35159265228727
  Cl  -2.43015263882183      0.25332604277151     -0.33884104326694
  H   0.08889927630932      1.21957576666220     -1.16868420359255
  H   -0.80545763118761     -1.03683037536359     -1.42870372853628
  C   -0.71094370842796     -1.56601329974850      0.59664963540070
  N   -0.60566714180695     -2.40890696514201      1.40694683479515
  C   1.55641655564882     -0.15185345263510     -0.61653657143377
  N   2.58516671158363     -0.66758579948244     -0.84824773509336
  N   0.27917123360338      1.08640013796715      0.97780098457847
  H   1.12566774525760      1.61942622522820      1.13034699739427
  H   -0.51532196273093      1.70410607009649      1.08909931407516
