12
Coordinates from ORCA-job run
  C   -0.93833397496567     -0.50408908815250      0.00653390467394
  C   0.28871463322603      0.35986390199922     -0.31830747135531
  Cl  -1.26241188356878     -0.50257919565657      1.76008594352845
  H   0.43317996751114      0.29050443098425     -1.40254754615355
  H   -1.79829396846280     -0.03466927613753     -0.47559963832924
  C   -0.76855167393380     -1.86899111890888     -0.47874496593927
  N   -0.62117797738332     -2.95259369113144     -0.90687093339876
  C   1.49581212515216     -0.18952662820551      0.33091103341840
  N   2.47652543054717     -0.56559370357469      0.85703871374515
  N   -0.00414305955444      1.74390988198253      0.00240762265319
  H   0.71234041143092      2.34691279757632     -0.38299730592778
  H   -0.01466002999861      1.87585168922480      1.00709064308479
