12
Coordinates from ORCA-job run
  C   -0.86168001180453     -0.58526582149210     -0.48105298771595
  C   0.16689306115267      0.55940411413091     -0.38507229692124
  Cl  -2.51299224097039      0.07100594982774     -0.48398719171552
  H   -0.09852901900588      1.28658103586703     -1.15825998480894
  H   -0.72719649151821     -1.12050191983470     -1.42382139363189
  C   -0.67991166826179     -1.51408362579299      0.63072055503645
  N   -0.48948211205092     -2.23352849886602      1.53920678614818
  C   1.49892506847723      0.00715846123321     -0.71338939966572
  N   2.56846584244273     -0.42610675759940     -0.93535672374402
  N   0.08042804448801      1.20841488128951      0.90358947275356
  H   0.54521142163786      2.10655361233947      0.88341544787766
  H   0.51086810541324      0.64136856889734      1.62500771638743
