12
Coordinates from ORCA-job run
  C   -0.93434315245096     -0.48472649998901     -0.16141694679846
  C   0.36558996041820      0.32489157096299     -0.27328912505340
  Cl  -1.63486788290683     -0.32870638923841      1.47060739125824
  H   0.74364001308466      0.15741364580451     -1.28814639876144
  H   -1.64915811570882     -0.04112380354459     -0.85752153522655
  C   -0.71382848904240     -1.88860104918237     -0.48981751661357
  N   -0.51662779508885     -3.00696289352847     -0.78899553114512
  C   1.37738976158191     -0.18659360211345      0.67280150276575
  N   2.20154437985955     -0.53050675029682      1.43590572597094
  N   0.06028159693032      1.73667037071816     -0.13939259402289
  H   0.86503758761418      2.29116942951921     -0.40477278629547
  H   -0.16465786429095      1.95607597088826      0.82403781392197
