12
Coordinates from ORCA-job run
  C   -0.85296991030431     -0.47802531111318      0.04239427221090
  C   0.38065415933054      0.39450082960157     -0.31266699151742
  Cl  -1.09916295740189     -0.53015479674752      1.80525318783229
  H   0.47103463795029      0.36049735048190     -1.40530844253633
  H   -1.73881300064704     -0.00048401576497     -0.38512268206668
  C   -0.72446924356141     -1.82479947157689     -0.50154436773414
  N   -0.60259647124892     -2.88860150480405     -0.98451718950217
  C   1.59086105403480     -0.21942946525859      0.25007258750178
  N   2.55193093435632     -0.71138306030356      0.70971281867167
  N   0.30345038471096      1.77971467858427      0.08700241679951
  H   -0.45198154039274      2.25314865458143     -0.39233856394884
  H   0.17006195317339      1.86301611231961      1.08706295428943
