12
Coordinates from ORCA-job run
  C   -0.81030755713923     -0.52878276558488     -0.45753111531734
  C   0.28519891632629      0.57390400342751     -0.41696413561874
  Cl  -2.41665688910954      0.23879949516312     -0.34172575682265
  H   0.04511470661926      1.27626522230154     -1.22258017090621
  H   -0.77805623915277     -1.05727564183160     -1.41317772951813
  C   -0.61976024182822     -1.46946287495803      0.63983001727705
  N   -0.42042364404055     -2.18968684588552      1.54610825252395
  C   1.56552046755951     -0.06995514653109     -0.74261348256271
  N   2.56697570305103     -0.62371368662685     -1.00406577606727
  N   0.40512736092343      1.31722309108667      0.81186738571003
  H   0.62339231415109      0.70864067316180      1.59202584783318
  H   -0.44812489736031      1.82404447627734      1.00882666346883
