17
Coordinates from ORCA-job run
  C   0.65640279130867      0.38585378344366      0.20167915236701
  C   -0.88003585859802      0.29534983812006      0.18873560786517
  Br  1.26288416634876      0.84518258476457      1.99721923540824
  H   -1.26271576788038      1.24686974124721      0.56631366981343
  N   1.04595487550726      1.59288087924074     -0.66362439475286
  O   2.03909716990012      1.47922101868146     -1.37161341639301
  O   0.33701846110250      2.58736233918720     -0.56446352766894
  C   1.36696497968754     -0.85309424905741     -0.28445813638255
  H   1.04330034421171     -1.09011746807146     -1.30100126148082
  H   2.44331117989692     -0.69619992527766     -0.29044776028961
  H   1.13697615152536     -1.68898739229773      0.37609243827457
  C   -1.44417650210055     -0.86254935613703      1.01683679562650
  H   -1.15805601753138     -1.82847273405008      0.59958850585714
  H   -1.09888561676317     -0.79816953518420      2.04871565335519
  H   -2.53388319105555     -0.80482362488071      1.01382681720763
  C   -1.31066774976159      0.16677441265553     -1.20748319505630
  N   -1.64348941579821      0.02391968761584     -2.32491618375079
