17
Coordinates from ORCA-job run
  C   0.65308066283091      0.47979786554425      0.19500461432447
  C   -0.82640404515218      0.16618168941304      0.46864069023099
  Br  1.14289196992462      2.10890698272596      1.14678713003689
  H   -0.86985131292026      0.00320777285181      1.55284083556659
  N   0.89487965648338      0.77597502497407     -1.28428206534836
  O   2.05820639069396      0.73230017793980     -1.66542176693537
  O   -0.08232035888180      1.04184283617876     -1.97668701256711
  C   1.58241854163695     -0.64262062046272      0.61209687162114
  H   1.43327400797444     -1.51415522421966     -0.02871277098824
  H   1.38054239764446     -0.91553657665991      1.64937517516194
  H   2.61882453744072     -0.32654053682153      0.52053520008010
  C   -1.33353224938141     -1.10375422914583     -0.22969565974076
  H   -1.28822723567144     -1.00124910706301     -1.31302196935962
  H   -0.75894317106704     -1.97663954200801      0.08128953243401
  H   -2.37445824837435     -1.27111440498017      0.05202789232276
  C   -1.72147626575726      1.29389899568762      0.19520387042773
  N   -2.50890527742369      2.14749889604553      0.02301943273286
