17
Coordinates from ORCA-job run
  C   0.63953196736366      0.40398272713927      0.21990735767808
  C   -0.89238836242509      0.25853739906632      0.18439475708733
  Br  1.20706418476595      0.84077791281209      2.03336386898068
  H   -1.31402639652501      1.18622015338755      0.57939297964106
  N   0.99521517215242      1.64523632104887     -0.61164269527372
  O   0.24888635251068      2.61045607765018     -0.49863853372388
  O   2.00032026025015      1.58484525284748     -1.30912208393482
  C   1.40053403015998     -0.79608509360224     -0.28707658475246
  H   2.47037668167577     -0.60005163421419     -0.27575030578306
  H   1.09755066415378     -1.01949983112221     -1.31302060351779
  H   1.19360773896180     -1.65589435930569      0.35000835923738
  C   -1.42421663851853     -0.93860489497095      0.97711753375364
  H   -2.51518125150485     -0.92095854456854      0.96018170914423
  H   -1.09517059868931     -0.88607313076287      2.01496546116089
  H   -1.09701691345080     -1.88322253663744      0.54168059684720
  C   -1.30022172580802      0.14864661634242     -1.22030550380291
  N   -1.61286516507258      0.02168756488995     -2.34545631274184
