17
Coordinates from ORCA-job run
  C   0.60057134716384      0.54413198562977      0.19453514326351
  C   -0.85323656702543      0.10821009018483      0.43596880938005
  Br  0.91001862681075      2.24804267895237      1.08961827644781
  H   -0.91876970915560     -0.01737775596717      1.52403259776269
  N   0.86432552549161      0.80220339898698     -1.28847352027836
  O   -0.10927099029255      0.95840264625374     -2.01825153991763
  O   2.03879743836732      0.84140184426379     -1.63423462833494
  C   1.61191274629514     -0.47129069695813      0.68779774211948
  H   2.61845525141536     -0.06694106054795      0.61175059396555
  H   1.40145285020439     -0.71662859267100      1.73025834218061
  H   1.56169712747104     -1.37925886707086      0.08318386217047
  C   -1.22033203476426     -1.22782075564572     -0.22589402351876
  H   -2.25161194449699     -1.47751334714279      0.02916266334778
  H   -0.58193929698877     -2.03310500897314      0.13857989120351
  H   -1.14623053211650     -1.16302410285000     -1.31058905761761
  C   -1.83636094716687      1.13849958448172      0.09029453994564
  N   -2.69047889121251      1.91106795907355     -0.13773969211982
