17
Coordinates from ORCA-job run
  C   0.66740697324462      0.47093757154191      0.16662053130230
  C   -0.81074536536564      0.19539104059632      0.48426580779950
  Br  1.21422541098342      2.11222972137710      1.06534030874628
  H   -0.83052343501132      0.06084700769296      1.57304878898710
  N   0.87811816122802      0.72656389867331     -1.32518194545929
  O   -0.11086815026150      0.99522348268222     -1.99945658178447
  O   2.03052958582769      0.65015952519283     -1.73316853792554
  C   1.58356693833753     -0.66044581924913      0.58835730287309
  H   1.40317502952509     -0.90267378305524      1.63714696106264
  H   2.62357113230600     -0.36899840449923      0.46218600289454
  H   1.39923231576088     -1.54434026775800     -0.02582186997672
  C   -1.36047950135091     -1.08124712011916     -0.16837392759148
  H   -2.39883878382922     -1.21694989649860      0.13872425007777
  H   -0.79929335716760     -1.95825277922775      0.15527948789344
  H   -1.33544126134611     -1.00965652460487     -1.25484851074765
  C   -1.68956310822269      1.33399915405962      0.20371519743620
  N   -2.46307258465826      2.20021319319570      0.03116673441228
