19

C	-0.557564	0.012903	-1.623132
C	0.23884	-0.04368	-0.315222
F	-0.070568	-1.014651	-2.456454
H	1.29689	-0.148339	-0.60078
C	-2.032063	-0.246995	-1.407071
H	-2.583437	-0.134315	-2.34504
H	-2.421081	0.45591	-0.668097
H	-2.159769	-1.26648	-1.042341
C	-0.310081	1.307847	-2.37553
H	-0.770091	2.151117	-1.858751
H	0.764267	1.489026	-2.47483
H	-0.737939	1.230714	-3.378567
N	-0.100323	-1.226241	0.451853
H	0.629208	-1.320814	1.157712
H	-0.944243	-1.005496	0.974205
N	-0.017696	1.176327	0.461923
H	0.463806	1.022696	1.351208
H	0.47705	1.953076	0.032293
Cl	2.138424	-0.025753	2.757593
