19

C	-0.266831	0.072893	-1.393503
C	0.190653	0.284127	0.054748
F	-1.680696	-0.146693	-1.337442
H	1.272917	0.531309	0.017934
C	-0.055975	1.309306	-2.242736
H	-0.520466	2.17378	-1.771383
H	-0.482193	1.152852	-3.237892
H	1.015205	1.499729	-2.346078
C	0.346653	-1.157845	-2.019647
H	0.069691	-1.21708	-3.076404
H	1.432661	-1.142339	-1.907922
H	-0.007596	-2.056701	-1.515007
N	0.077371	-0.8935	0.901352
H	-0.712272	-1.457939	0.609161
H	0.936295	-1.434988	0.804396
N	-0.533967	1.437325	0.59971
H	-0.275445	1.473819	1.580199
H	-1.519491	1.190086	0.58331
Cl	3.27352	-1.624451	0.043876
