18

C	-0.403697	-0.065018	-1.469326
C	0.0	0.0	0.0
F	-1.791858	-0.298029	-1.584004
H	1.091728	0.0	0.0
C	-0.178137	1.269971	-2.068617
N	-0.028489	2.321926	-2.570076
C	0.346138	-1.0855	-2.307892
H	1.411544	-0.993587	-2.070437
H	0.009642	-2.085138	-2.046908
H	0.168706	-0.892123	-3.368227
N	-0.391291	-1.230525	0.700455
O	-0.928516	-1.134564	1.81212
O	-0.066542	-2.314218	0.198104
C	-0.503215	1.222682	0.7353
H	-1.594178	1.283191	0.746085
H	-0.144377	1.191917	1.763269
H	-0.089804	2.116151	0.26449
H	2.607739	0.0	0.0
