18

C	-0.41113	0.070884	-1.461233
C	0.0	0.0	0.0
F	-0.002271	-1.085052	-2.119314
H	1.091474	0.0	0.0
C	-1.873068	0.203372	-1.646075
N	-3.01711	0.436069	-1.776614
C	0.317633	1.226596	-2.133147
H	1.374584	1.14209	-1.86252
H	-0.073538	2.193165	-1.814095
H	0.192411	1.1324	-3.213806
N	-0.503829	-1.218518	0.658774
O	-0.101662	-1.423828	1.806701
O	-1.277569	-1.967946	0.048775
C	-0.412944	1.209586	0.820364
H	-0.097923	1.040405	1.849879
H	0.118594	2.091446	0.46117
H	-1.492446	1.390185	0.793063
H	2.686594	0.0	0.0
