18

C	-0.420596	0.057736	-1.458796
C	0.0	0.0	0.0
F	0.049171	-1.059297	-2.137398
H	1.091475	0.0	0.0
C	-1.890417	0.106837	-1.630485
N	-3.045727	0.275283	-1.766819
C	0.225537	1.265174	-2.124901
H	1.288828	1.242796	-1.871232
H	-0.222379	2.201058	-1.790506
H	0.091998	1.175329	-3.204187
N	-0.485974	-1.217782	0.667718
O	-1.147243	-2.041702	0.022444
O	-0.157443	-1.370619	1.84843
C	-0.404404	1.221578	0.805952
H	0.17859	2.081452	0.471681
H	-1.474357	1.446117	0.734243
H	-0.141403	1.0402	1.847189
H	2.652992	0.0	0.0
