18

C	-0.412943	0.076694	-1.460723
C	0.0	0.0	0.0
F	-0.002687	-1.073029	-2.125064
H	1.09152	0.0	0.0
C	-1.876077	0.211013	-1.636944
N	-3.015871	0.478073	-1.733954
C	0.310523	1.240091	-2.12589
H	0.188027	1.14848	-3.207481
H	1.367605	1.160899	-1.853514
H	-0.088237	2.202015	-1.803584
N	-0.501646	-1.22368	0.65191
O	-1.284153	-1.963216	0.042168
O	-0.088547	-1.443488	1.793393
C	-0.410005	1.205388	0.827294
H	-1.488707	1.394644	0.796568
H	0.131085	2.086174	0.476865
H	-0.099529	1.025783	1.856788
H	2.687497	0.0	0.0
