18
Coordinates from ORCA-job run
  C   -0.47535133425391      0.11564138537322      0.62412066693771
  C   0.62761901248975     -0.20898297639453     -0.38963047889755
  Cl  -0.20614911320541      1.71230310251367      1.34599022208202
  H   0.39343391412191     -1.22112076841307     -0.73325414827789
  N   -0.35677792975957     -0.95307953646353      1.71816216903738
  O   -0.54460051574242     -2.09347596866487      1.30363375654298
  O   -0.11565893001149     -0.63437348420778      2.86921732015336
  C   -1.88686577616931      0.03922424242516      0.07594399404555
  H   -2.04062408276799     -0.92287184783655     -0.41410854464336
  H   -2.05562882845617      0.84693986678965     -0.63513018692388
  H   -2.60754926832257      0.14516597194074      0.88899130894566
  N   1.88800198589057     -0.29364078717007      0.33349052174236
  H   2.57077999751659     -0.79925865473858     -0.21603587701192
  H   2.25508163708993      0.63314065874842      0.51602375207037
  C   0.62690239682843      0.73401607268195     -1.58986036884330
  H   -0.31601362322499      0.71098028053558     -2.14103630401996
  H   0.82484838221548      1.76242776494159     -1.28061911806553
  H   1.41955207576117      0.42796467793899     -2.27689868487401
