18
Coordinates from ORCA-job run
  C   -0.80693917436784      0.22297543461495      0.28758760400579
  C   0.29575864473252      0.12858261393985     -0.79015106411712
  Cl  -1.72447634965484      1.72028085557012      0.04362240231424
  H   -0.22443283446612      0.36300164464475     -1.72463912104966
  N   -0.10094443820526      0.29471620017003      1.64300257729643
  O   -0.13217207694788      1.31718971238915      2.31016969019624
  O   0.51119650521466     -0.73299439474334      1.93403887555743
  C   -1.75911239632772     -0.95318964804565      0.31070969448427
  H   -2.52509987025382     -0.79549187966492      1.07253900890105
  H   -2.24012029163283     -1.03269326059795     -0.66491818573381
  H   -1.21120241756383     -1.87121160959335      0.50285581788640
  N   0.76351719440301     -1.24735629248134     -0.91098313118178
  H   1.31113636062492     -1.33411382107280     -1.75874692923857
  H   1.36230170197494     -1.47828050697140     -0.12653491057339
  C   1.40176889586017      1.16164740938637     -0.56875391415858
  H   2.07274450891963      1.15997220663689     -1.43088638960299
  H   1.01125501398486      2.17302723124270     -0.44209231845891
  H   1.99482102370544      0.90393810457594      0.31318029347296
