18
Coordinates from ORCA-job run
  C   -0.60382406857247      0.11652574449206      0.50033698479672
  C   0.72562551888558     -0.08791891264944     -0.23437757171577
  Cl  -0.94589513597682      1.84454136031940      0.69972600153743
  H   0.85989463707446     -1.17366221958907     -0.25908824844216
  N   -0.41025941510845     -0.51655380667588      1.88460461047565
  O   -0.18605558168482     -1.72285089965929      1.83871916416994
  O   -0.49991652530354      0.16278625596467      2.89213381422375
  C   -1.79704355099264     -0.56519726373300     -0.13997184441525
  H   -2.66616413325722     -0.48395940686181      0.51552911730325
  H   -1.57318802587794     -1.61937328714553     -0.30715446173854
  H   -2.03934348243869     -0.08471939256222     -1.08701648101852
  N   1.78773623781596      0.44464987650262      0.60696497673895
  H   2.68107195530258      0.06867454738323      0.31610273614800
  H   1.83092423014233      1.45401118915100      0.52643316382235
  C   0.70010472361479      0.44145821516776     -1.66568621866397
  H   0.53188572692126      1.52028661504799     -1.68158545929353
  H   -0.06605167205027     -0.04029559442898     -2.27749911449200
  H   1.66849856150589      0.24259697927648     -2.13117116943629
