11

C	-0.544147	-0.125437	-1.412608
C	0.0	0.0	0.0
Cl	-0.545136	1.4462	-2.292628
H	1.092242	0.0	0.0
H	-1.575161	-0.480096	-1.409449
H	0.078212	-0.808944	-1.987882
H	-0.367899	0.920097	0.468814
N	-0.406959	-1.220183	0.723988
H	-1.110475	-1.009264	1.422055
H	0.417026	-1.560599	1.207458
H	3.026289	0.0	0.0
