14

C	-0.376937	0.155976	-1.463388
C	0.0	0.0	0.0
Cl	-0.40953	-1.552863	-2.264718
H	1.095828	0.0	0.0
H	-1.410367	0.473727	-1.617384
H	-0.370107	-0.944386	0.399511
N	0.517545	1.043745	-2.087661
H	0.389651	1.102317	-3.087738
H	1.481773	0.812983	-1.857923
C	-0.503824	1.184791	0.81867
H	-0.126923	2.118708	0.399069
H	-1.598875	1.229378	0.842788
H	-0.142705	1.109773	1.847146
Cl	3.553514	0.0	0.0
