14

C	-0.584207	-0.06046	-1.390755
C	0.0	0.0	0.0
Cl	-0.199512	-1.667892	-2.174231
H	1.092977	0.0	0.0
H	-1.681902	-0.092421	-1.319913
H	-0.309672	-0.908353	0.521667
N	-0.137994	1.006387	-2.234045
H	0.222581	1.797016	-1.724073
H	-0.807111	1.287466	-2.923028
C	-0.500817	1.21166	0.784429
H	-0.064797	2.147778	0.422129
H	-1.593865	1.310416	0.735673
H	-0.214614	1.120744	1.832446
Cl	3.621729	0.0	0.0
