14

C	-0.372207	0.012699	-1.463616
C	0.0	0.0	0.0
Cl	-2.195929	-0.160594	-1.691733
H	1.096918	0.0	0.0
H	-0.144189	0.985093	-1.903578
H	-0.333402	-0.950083	0.434091
N	0.274098	-1.004705	-2.261442
H	0.14925	-1.892085	-1.782718
H	1.27744	-0.799879	-2.205291
C	-0.517668	1.180104	0.81078
H	-1.607458	1.179275	0.891401
H	-0.207219	2.1223	0.349844
H	-0.090587	1.156408	1.815408
Cl	3.364147	0.0	0.0
