14

C	-0.441404	-0.000897	-1.443752
C	0.0	0.0	0.0
Cl	-2.277378	0.567057	-1.499924
H	1.095071	0.0	0.0
H	0.03985	0.799607	-2.001441
H	-0.321139	0.942539	0.44944
N	-0.264139	-1.223465	-2.102198
H	-0.73765	-1.985893	-1.641303
H	-0.525964	-1.184824	-3.07583
C	-0.521707	-1.176548	0.813855
H	-1.612085	-1.258398	0.766936
H	-0.072976	-2.114114	0.476858
H	-0.233437	-1.053757	1.859538
Cl	3.599915	0.0	0.0
