13

C	0.0	0.0	0.0
C	-0.452175	-0.187309	-1.444268
F	1.399519	0.0	0.0
H	-0.069085	0.699101	-1.965371
H	-0.357954	-0.806816	0.639855
N	-0.347266	1.356164	0.448453
H	0.531554	1.802689	0.676401
H	-0.929805	1.303807	1.291201
C	-1.95343	-0.220118	-1.710111
N	-2.746302	-0.357752	-2.580479
C	0.174805	-1.365606	-2.046409
N	0.646374	-2.350785	-2.489458
F	-2.462835	0.0	0.0
