13

C	0.0	0.0	0.0
C	-0.345822	0.281851	-1.478678
F	1.376013	0.0	0.0
H	0.205047	-0.481015	-2.04581
H	-0.338314	-1.008929	0.256377
N	-0.47633	1.044418	0.841689
H	-0.203811	0.822926	1.794443
H	-1.505666	0.891927	0.743596
C	0.2505	1.571948	-1.866072
N	0.742577	2.571756	-2.233277
C	-1.736131	0.231206	-1.979548
N	-2.52811	0.233972	-2.854113
F	-2.621815	0.0	0.0
