13

C	0.0	0.0	0.0
C	-0.604205	-0.008932	-1.40324
F	1.371266	0.0	0.0
H	-1.731237	-0.02985	-1.078433
H	-0.300639	-0.949144	0.464297
N	-0.486262	1.164181	0.675307
H	-1.509907	1.022621	0.631176
H	-0.202192	1.102642	1.64683
C	-0.24454	-1.210564	-2.13938
N	0.036003	-2.199437	-2.709457
C	-0.274341	1.187181	-2.165022
N	0.00286	2.131767	-2.806478
F	-2.786064	0.0	0.0
