13

C	0.0	0.0	0.0
C	-0.487827	-0.011091	-1.471936
F	1.402884	0.0	0.0
H	0.42163	-0.098554	-2.083176
H	-0.285472	-0.950204	0.460743
N	-0.453848	1.162498	0.677112
H	-1.489332	1.005913	0.600456
H	-0.188347	1.066692	1.652235
C	-1.157781	1.221994	-1.895083
N	-1.611316	2.195875	-2.368454
C	-1.323978	-1.174977	-1.791988
N	-1.812086	-2.160198	-2.20452
F	-2.584134	0.0	0.0
