13

C	0.0	0.0	0.0
C	-0.364939	0.187434	-1.490126
F	1.376046	0.0	0.0
H	0.279216	-0.52366	-2.021288
H	-0.319707	-1.003949	0.307134
N	-0.49427	1.067956	0.792047
H	-0.272848	0.865343	1.759587
H	-1.525858	0.916164	0.661272
C	0.066461	1.521732	-1.936787
N	0.447193	2.548965	-2.355309
C	-1.733874	-0.076892	-1.979259
N	-2.510322	-0.273987	-2.843887
F	-2.644347	0.0	0.0
