18

C	0.0	0.0	0.0
C	-0.388148	-0.361248	-1.478432
Cl	1.775466	0.0	0.0
H	0.264919	0.31883	-2.040023
C	-0.586937	1.319335	0.436836
H	-1.676069	1.207988	0.485238
H	-0.200755	1.602798	1.415188
H	-0.333093	2.09102	-0.293365
N	-0.447644	-1.027366	1.028813
O	-1.167213	-1.947086	0.652141
O	-0.09233	-0.831706	2.186538
N	-1.730168	-0.093054	-1.917799
H	-2.442027	-0.557799	-1.355076
H	-1.956301	0.891244	-1.851267
N	0.050046	-1.71101	-1.80161
H	-0.61941	-2.352101	-1.3923
H	-0.055036	-1.793688	-2.806714
Br	-4.437433	0.0	0.0
