15

C	-0.367596	-0.058622	-1.499807
C	0.0	0.0	0.0
Br	0.388449	1.530321	-2.379417
H	1.096515	0.0	0.0
C	0.274419	-1.225962	-2.105701
N	0.687635	-2.189501	-2.637317
C	-1.866936	-0.086518	-1.774689
H	-2.329159	0.807635	-1.35287
H	-2.299376	-0.97374	-1.303431
H	-2.062167	-0.119085	-2.847735
C	-0.482561	-1.198277	0.662798
N	-0.869885	-2.180527	1.18291
C	-0.536007	1.187901	0.634373
N	-0.961046	2.153985	1.154827
F	2.430271	0.0	0.0
