15

C	-0.272177	0.174129	-1.515385
C	0.0	0.0	0.0
Br	0.266826	-1.483276	-2.423821
H	1.105195	0.0	0.0
C	-1.690237	0.368935	-1.808313
N	-2.832589	0.572507	-1.999805
C	0.606668	1.311573	-2.029322
H	0.573083	1.366722	-3.117961
H	0.252802	2.257708	-1.609428
H	1.615708	1.100892	-1.660031
C	-0.580612	-1.195522	0.578069
N	-1.038307	-2.1598	1.072199
C	-0.438752	1.187499	0.716979
N	-0.751232	2.160701	1.299019
F	2.486487	0.0	0.0
