15

C	-0.419235	-0.102373	-1.481594
C	0.0	0.0	0.0
Br	0.395698	1.398749	-2.458906
H	1.108011	0.0	0.0
C	0.12596	-1.331789	-2.056972
N	0.466805	-2.340653	-2.555004
C	-1.927924	-0.048615	-1.701198
H	-2.16843	-0.121123	-2.763345
H	-2.316423	0.892947	-1.308965
H	-2.39536	-0.881626	-1.168131
C	-0.482984	-1.162444	0.722658
N	-0.86203	-2.121194	1.290767
C	-0.499791	1.220411	0.603027
N	-0.888598	2.217303	1.092871
F	2.428307	0.0	0.0
