11

C	-0.560693	0.062542	-1.406629
C	0.0	0.0	0.0
Br	-0.243972	-1.585237	-2.405743
H	1.09802	0.0	0.0
H	-1.639452	0.207143	-1.378399
H	-0.093066	0.859542	-1.985094
H	-0.36337	-0.90506	0.493855
N	-0.529122	1.181072	0.721884
H	0.127533	1.939148	0.563813
H	-0.470336	0.986628	1.714354
Cl	3.606931	0.0	0.0
