11

C	-0.557363	-0.183731	-1.390859
C	0.0	0.0	0.0
Br	-0.174892	-1.954337	-2.13608
H	1.092406	0.0	0.0
H	-1.645139	-0.100302	-1.393563
H	-0.109554	0.528578	-2.083976
H	-0.323884	1.002646	0.309753
N	-0.584964	-0.966474	0.939552
H	-0.136282	-1.85989	0.755542
H	-0.266236	-0.700524	1.864704
Cl	3.612966	0.0	0.0
