11

C	-0.502539	-0.064853	-1.436999
C	0.0	0.0	0.0
Br	-0.279087	1.625407	-2.396139
H	1.09244	0.0	0.0
H	0.047541	-0.815244	-2.005403
H	-1.573228	-0.279766	-1.48018
H	-0.37193	0.903581	0.489451
N	-0.41822	-1.182612	0.758259
H	0.214174	-1.946293	0.557126
H	-1.358542	-1.468604	0.510798
Cl	3.571439	0.0	0.0
