17

C	-0.270997	-0.078461	-1.502523
C	0.0	0.0	0.0
Cl	-1.991983	-0.437935	-1.894655
H	1.096595	0.0	0.0
N	0.026237	1.314443	-2.091568
O	-0.815719	2.193052	-1.923901
O	1.114285	1.45676	-2.631377
N	0.57258	-1.008428	-2.173782
H	1.519931	-0.851102	-1.799281
H	0.283799	-1.941727	-1.901215
C	-0.406476	-1.262918	0.589048
N	-0.711946	-2.285515	1.084234
C	-0.534062	1.190117	0.781781
H	-1.612151	1.317223	0.663164
H	-0.303167	1.041014	1.839124
H	-0.030318	2.101943	0.459653
H	2.666651	0.0	0.0
