17

C	-0.209162	-0.084021	-1.50947
C	0.0	0.0	0.0
Cl	-1.898436	-0.532872	-2.024512
H	1.097009	0.0	0.0
N	-0.056442	1.358771	-2.139651
O	0.880784	1.514179	-2.915476
O	-0.871016	2.220404	-1.828328
N	0.722552	-0.980567	-2.010819
H	0.798983	-0.935965	-3.016966
H	1.635589	-0.806441	-1.55018
C	-0.439435	-1.249406	0.596456
N	-0.790986	-2.222995	1.154613
C	-0.53607	1.195732	0.77187
H	-0.007316	2.102284	0.479101
H	-1.607511	1.343492	0.62362
H	-0.340875	1.024194	1.832785
H	2.67597	0.0	0.0
