17

C	-0.205887	-0.060461	-1.511354
C	0.0	0.0	0.0
Cl	-1.892638	-0.505098	-2.038648
H	1.097019	0.0	0.0
N	-0.050165	1.396655	-2.105521
O	0.928201	1.583378	-2.822375
O	-0.893891	2.239436	-1.821297
N	0.732057	-0.941855	-2.027717
H	1.640934	-0.77582	-1.555276
H	0.819322	-0.874629	-3.03257
C	-0.442744	-1.255486	0.579348
N	-0.802253	-2.235153	1.121292
C	-0.537378	1.189236	0.780869
H	-0.348759	1.008893	1.841782
H	-0.004352	2.097187	0.498871
H	-1.607353	1.341014	0.62726
H	2.674326	0.0	0.0
