17

C	-0.20787	0.026722	-1.504287
C	0.0	0.0	0.0
Cl	-0.128907	-1.691625	-2.184758
H	1.098307	0.0	0.0
N	-1.623114	0.446066	-1.935993
O	-1.733611	0.998076	-3.026117
O	-2.543682	0.184173	-1.16991
N	0.722067	0.89988	-2.05033
H	1.643094	0.716956	-1.612175
H	0.749679	0.867852	-3.058776
C	-0.541796	-1.149274	0.691583
N	-0.938456	-2.049721	1.335004
C	-0.40753	1.3082	0.680177
H	-1.489098	1.393208	0.802006
H	0.07142	1.344917	1.662078
H	-0.032578	2.147599	0.093358
H	2.681871	0.0	0.0
