17

C	-0.196303	0.027039	-1.507542
C	0.0	0.0	0.0
Cl	-0.137429	-1.696457	-2.184776
H	1.098245	0.0	0.0
N	-1.600791	0.465945	-1.955615
O	-1.688373	1.024034	-3.04479
O	-2.535655	0.213097	-1.203503
N	0.752214	0.884281	-2.047239
H	1.66841	0.691963	-1.599113
H	0.786843	0.855262	-3.055939
C	-0.549094	-1.146497	0.689919
N	-0.949507	-2.049561	1.32765
C	-0.407284	1.311479	0.67442
H	-0.019977	2.147434	0.090351
H	0.060234	1.347014	1.661806
H	-1.489589	1.403542	0.78353
H	2.681681	0.0	0.0
