17

C	-0.449487	0.032344	-1.431397
C	0.0	0.0	0.0
Cl	-2.283472	0.684169	-1.555578
H	1.094542	0.0	0.0
N	0.257992	1.112507	-2.250437
O	0.709557	2.080977	-1.660318
O	0.301544	0.927937	-3.463163
N	-0.278456	-1.159747	-2.104802
H	-0.684891	-1.951384	-1.62954
H	-0.521867	-1.101315	-3.081988
C	-0.422062	-1.265928	0.570061
N	-0.749374	-2.300391	1.026682
C	-0.425571	1.143329	0.918999
H	0.171803	1.060895	1.830969
H	-0.197434	2.09955	0.456007
H	-1.487037	1.099398	1.169872
H	2.574553	0.0	0.0
