17

C	-0.557006	0.022461	-1.428893
C	0.0	0.0	0.0
Cl	-0.084334	1.523343	-2.234575
H	1.094739	0.0	0.0
N	0.082987	-1.157727	-2.184875
O	1.051156	-0.972374	-2.901368
O	-0.452833	-2.240321	-1.948993
N	-1.978731	-0.149567	-1.609604
H	-2.252739	-1.004266	-1.135501
H	-2.448373	0.634151	-1.172717
C	-0.497241	-1.175515	0.694134
N	-0.917869	-2.090225	1.304475
C	-0.36491	1.246813	0.810656
H	-0.02092	1.093139	1.835643
H	-1.439949	1.456053	0.831246
H	0.174399	2.106163	0.412357
H	2.660898	0.0	0.0
