17

C	-0.510343	0.09954	-1.422557
C	0.0	0.0	0.0
Cl	0.30883	1.426045	-2.301136
H	1.107511	0.0	0.0
N	-0.091854	-1.175889	-2.219286
O	-0.631948	-1.309581	-3.318812
O	0.714405	-1.945025	-1.715922
N	-1.912651	0.294618	-1.530718
H	-2.189027	0.226428	-2.503637
H	-2.386126	-0.42299	-0.99347
C	-0.568347	-1.185183	0.610902
N	-1.096265	-2.107633	1.116809
C	-0.357996	1.242328	0.820668
H	0.030766	1.099731	1.831591
H	-1.430942	1.43972	0.859999
H	0.158724	2.10278	0.393363
H	2.637512	0.0	0.0
