17

C	-0.564217	0.126486	-1.396703
C	0.0	0.0	0.0
Cl	0.365362	1.432772	-2.290764
H	1.097092	0.0	0.0
N	-0.288206	-1.12402	-2.233882
O	-0.943229	-1.226363	-3.269202
O	0.571304	-1.898604	-1.840166
N	-1.962022	0.325982	-1.445142
H	-2.208384	1.141375	-0.90036
H	-2.268305	0.439626	-2.403659
C	-0.506449	-1.203401	0.634999
N	-0.910749	-2.141936	1.216928
C	-0.343564	1.215201	0.87141
H	-0.048737	2.132954	0.359644
H	0.264059	1.144645	1.777493
H	-1.398727	1.264389	1.159705
H	2.646869	0.0	0.0
