17

C	-0.25381	-0.199579	-1.50237
C	0.0	0.0	0.0
Cl	-1.890448	-0.833788	-1.88001
H	1.098834	0.0	0.0
N	-0.161767	1.204496	-2.132487
O	-1.170299	1.902061	-2.158822
O	0.960837	1.552922	-2.473499
N	0.731742	-1.013324	-2.132075
H	0.530582	-1.981001	-1.907198
H	1.635358	-0.77141	-1.689179
C	-0.399372	-1.201575	0.708082
N	-0.69661	-2.164468	1.314972
C	-0.544324	1.260897	0.654841
H	-0.05068	2.136332	0.229878
H	-0.300353	1.233875	1.719523
H	-1.624794	1.363469	0.534494
H	2.681723	0.0	0.0
