17

C	-0.23701	0.165159	-1.485072
C	0.0	0.0	0.0
Cl	-0.097182	-1.472196	-2.334816
H	1.105755	0.0	0.0
N	-1.678338	0.563369	-1.848374
O	-1.837808	1.221737	-2.87129
O	-2.568018	0.179511	-1.100286
N	0.642758	1.130654	-1.96127
H	1.581583	0.931521	-1.578459
H	0.636874	1.19947	-2.969424
C	-0.517266	-1.214381	0.594105
N	-0.896735	-2.161115	1.180198
C	-0.409958	1.22807	0.814393
H	0.094982	1.175064	1.782077
H	-0.067459	2.130028	0.3057
H	-1.48913	1.278118	0.972525
H	2.671595	0.0	0.0
