17

C	-0.199275	-0.163763	-1.495828
C	0.0	0.0	0.0
Cl	-0.111463	-1.961581	-1.946321
H	1.109186	0.0	0.0
N	-1.608264	0.192628	-1.997811
O	-2.537013	0.059385	-1.208747
O	-1.705311	0.566882	-3.163269
N	0.735058	0.629673	-2.145912
H	0.759064	0.476348	-3.144108
H	1.656352	0.501063	-1.687662
C	-0.545332	-1.049679	0.831745
N	-0.957804	-1.846994	1.591392
C	-0.403818	1.384549	0.512369
H	-1.484788	1.483882	0.631734
H	-0.034884	2.143645	-0.179151
H	0.083861	1.543884	1.478147
H	2.67042	0.0	0.0
