14

C	0.0	0.0	0.0
C	-0.522271	-0.220153	-1.420081
Cl	1.836585	0.0	0.0
H	-0.039076	-1.124501	-1.805687
H	-1.598088	-0.39712	-1.288319
C	-0.36163	1.339244	0.484468
N	-0.597209	2.418866	0.881569
N	-0.520746	-0.980392	0.864559
H	-0.272058	-1.919704	0.592878
H	-0.349623	-0.80672	1.841512
N	-0.212273	0.922196	-2.270579
H	-0.017874	0.617696	-3.214663
H	-1.027071	1.52384	-2.302326
Cl	-3.880738	0.0	0.0
