14

C	0.0	0.0	0.0
C	-0.358423	-0.487649	-1.444989
Cl	1.843774	0.0	0.0
H	0.423419	-0.107772	-2.103239
H	-0.249033	-1.57707	-1.402693
C	-0.317208	1.430053	0.129265
N	-0.543621	2.58064	0.212936
N	-0.581043	-0.840978	0.985818
H	-0.748837	-0.346721	1.848517
H	-1.498514	-1.135404	0.63882
N	-1.634514	-0.128227	-1.991916
H	-2.425315	-0.40064	-1.410372
H	-1.708437	0.878447	-2.069648
Cl	-4.116787	0.0	0.0
