14

C	0.0	0.0	0.0
C	-0.334358	-0.398744	-1.471182
Cl	1.855734	0.0	0.0
H	-0.097142	-1.467574	-1.517981
H	0.386464	0.123096	-2.104923
C	-0.324222	1.416092	0.244963
N	-0.579784	2.545509	0.445681
N	-0.548712	-0.922657	0.931581
H	-0.509397	-0.555764	1.874918
H	-1.536736	-1.044243	0.696401
N	-1.65102	-0.15115	-1.982328
H	-1.829494	0.845166	-2.030071
H	-2.398869	-0.513048	-1.394204
Cl	-4.077269	0.0	0.0
