14

C	0.0	0.0	0.0
C	-0.322324	0.213062	-1.510877
Cl	1.857271	0.0	0.0
H	0.287707	1.056806	-1.842968
H	0.059548	-0.681891	-2.016442
C	-0.320394	1.213415	0.760041
N	-0.552221	2.214423	1.331546
N	-0.581855	-1.163204	0.540281
H	-1.098696	-0.977002	1.388612
H	-1.233307	-1.574512	-0.11724
N	-1.691364	0.429097	-1.87828
H	-2.140138	1.145202	-1.317138
H	-2.282548	-0.382191	-1.745373
Cl	-4.22649	0.0	0.0
