14

C	0.0	0.0	0.0
C	-0.443148	0.138934	-1.460124
Cl	1.80469	0.0	0.0
H	-0.103928	-0.775231	-1.972368
H	-1.535594	0.130987	-1.423256
C	-0.369302	1.20108	0.767507
N	-0.619424	2.1622	1.393124
N	-0.494659	-1.172748	0.669727
H	-1.512577	-1.048018	0.708576
H	-0.306049	-1.974335	0.076898
N	0.030322	1.375277	-2.057075
H	-0.636465	1.712884	-2.737229
H	0.930464	1.248925	-2.500122
Cl	-3.614511	0.0	0.0
