11

C	0.0	0.0	0.0
C	-0.537262	0.40482	-1.389645
Cl	1.771374	0.0	0.0
H	0.313146	0.58566	-2.065904
H	-0.350994	-0.989515	0.259969
H	-0.353016	0.691712	0.752477
C	-1.294978	1.658499	-1.323125
N	-1.691357	2.76243	-1.395638
C	-1.332477	-0.669809	-1.993091
N	-1.751829	-1.545743	-2.65517
F	-2.396036	0.0	0.0
