11

C	0.0	0.0	0.0
C	-0.536612	-0.291642	-1.418831
Cl	1.77179	0.0	0.0
H	0.312823	-0.38273	-2.114662
H	-0.352296	-0.750274	0.694901
H	-0.351754	0.96587	0.336811
C	-1.380231	0.798267	-1.921587
N	-1.826821	1.698954	-2.533864
C	-1.248368	-1.572929	-1.461837
N	-1.63841	-2.670023	-1.613803
F	-2.39372	0.0	0.0
