11

C	0.0	0.0	0.0
C	-0.437125	0.272901	-1.439882
Cl	1.771784	0.0	0.0
H	0.177107	-0.355913	-2.096675
H	-0.373826	0.758134	0.675278
H	-0.363072	-0.97181	0.307668
C	-0.130422	1.660451	-1.813457
N	0.151869	2.760327	-2.115574
C	-1.860759	-0.054698	-1.762227
N	-2.56382	-0.319224	-2.680373
F	-2.442945	0.0	0.0
