11

C	0.0	0.0	0.0
C	-0.469712	0.09506	-1.466577
Cl	1.771163	0.0	0.0
H	0.089766	-0.655918	-2.056269
H	-0.346287	0.84799	0.598553
H	-0.339771	-0.936608	0.446046
C	-0.038145	1.391031	-2.043428
N	0.336034	2.413283	-2.500782
C	-1.933171	-0.077086	-1.742347
N	-2.76812	-0.216879	-2.569398
F	-2.468978	0.0	0.0
