11

C	0.0	0.0	0.0
C	-0.49207	-0.169618	-1.447082
Cl	1.771151	0.0	0.0
H	0.112587	0.480861	-2.088982
H	-0.352776	0.953394	0.388947
H	-0.3643	-0.794033	0.63992
C	-1.940774	0.132059	-1.730334
N	-2.730779	0.119782	-2.619312
C	-0.200182	-1.537679	-1.910662
N	0.078921	-2.617715	-2.278312
F	-2.477167	0.0	0.0
