11

C	0.0	0.0	0.0
C	-0.401712	0.079935	-1.498737
Cl	1.771283	0.0	0.0
H	0.265026	-0.577063	-2.070702
H	-0.374163	0.849	0.551403
H	-0.372196	-0.917848	0.428254
C	-0.103114	1.430418	-1.984965
N	0.19655	2.503608	-2.349849
C	-1.770605	-0.300922	-1.920891
N	-2.590739	-0.547847	-2.734694
F	-2.353041	0.0	0.0
