13
Coordinates from ORCA-job run
  C   1.31340993424918     -0.18747894066331     -0.36759680811101
  C   0.02864797297885      0.06086642064275      0.40605272816584
  Br  2.05858592247233     -1.91531423085169      0.10721014011481
  H   0.20621401828525     -0.01433903125065      1.47933138503721
  H   1.13295664093503     -0.18741615346641     -1.44033567286159
  H   2.06823277173629      0.55913640022116     -0.12206211910967
  C   -1.14074919260949     -0.80577391246294     -0.02588014866472
  H   -1.32974268852012     -0.67481111447275     -1.09308390622998
  H   -0.91942443408895     -1.85482973736227      0.17027858299521
  H   -2.03899661123677     -0.53140226814796      0.53071059751574
  N   -0.35580210094344      1.49679870237220      0.17891341142592
  O   -0.35904323635627      1.89021242730856     -0.98661226742456
  O   -0.66428899690189      2.16335143813331      1.16307407714679
