13
Coordinates from ORCA-job run
  C   1.37594890189112     -0.30377912795253     -0.10287238667796
  C   0.00357780502768      0.08184849630929      0.42855448331586
  Br  1.45070785110337     -0.86278346814351     -1.95966547172468
  H   0.08085487577129      0.11127829067413      1.51840202590502
  H   1.73651840107747     -1.15394416638773      0.47666265394342
  H   2.07904684383251      0.52185258046113      0.00792108179090
  C   -1.14575712588508     -0.81418622155228      0.00584544536464
  H   -1.30553405388125     -0.74741802860983     -1.06958158947131
  H   -0.91949783524712     -1.85168255366619      0.26023557441935
  H   -2.05835408298824     -0.51732009762283      0.52628546729527
  N   -0.33690843546642      1.49677703691549      0.05967592304953
  O   -0.71318210768480      2.23131909252028      0.97188655562022
  O   -0.24742103755054      1.80803816705459     -1.12434976283026
