13
Coordinates from ORCA-job run
  C   1.35828600838161     -0.29523340355549      0.02101968793201
  C   -0.05738235003636      0.07092175973672      0.42965344041735
  Br  1.58803599054294     -0.35169598689051     -1.90578702430862
  H   -0.05272652278532      0.15217555039548      1.52247461370830
  H   2.06479880159032      0.43904101627375      0.40158768683363
  H   1.60591214902816     -1.28558507040943      0.40270813959021
  C   -1.13831582363012     -0.87868898652679     -0.03357522427678
  H   -1.18475005527047     -0.92492415335375     -1.11980688301044
  H   -0.92341875197119     -1.87677571851360      0.35612729275548
  H   -2.11273323226735     -0.56303638899088      0.33860769594450
  N   -0.32451960097720      1.48580031217326     -0.02936060376704
  O   -1.26668944251681      1.68695413618455     -0.78859073175425
  O   0.44350282991178      2.34104693347669      0.40394190993566
