16

C	-0.585084	0.000103	-1.404687
C	0.0	0.0	0.0
Cl	0.094139	1.36858	-2.297466
H	1.087705	0.0	0.0
N	-0.127681	-1.27889	-2.152729
O	0.865896	-1.83401	-1.721554
O	-0.791091	-1.567807	-3.13791
C	-2.04172	0.055711	-1.466285
N	-3.210464	0.140964	-1.554934
N	-0.490852	-1.168515	0.786713
O	-1.217199	-1.981894	0.217757
O	-0.101994	-1.221757	1.945589
N	-0.480912	1.223122	0.729968
O	0.294095	2.16666	0.803411
O	-1.629339	1.176066	1.169051
Br	3.313222	0.0	0.0
