16

C	-0.543603	-0.007669	-1.411417
C	0.0	0.0	0.0
Cl	0.110244	1.401521	-2.268688
H	1.087719	0.0	0.0
N	0.009934	-1.262344	-2.151961
O	-0.674023	-1.702906	-3.060585
O	1.108531	-1.641837	-1.793612
C	-1.992828	-0.014076	-1.528963
N	-3.161453	0.016595	-1.657148
N	-0.491786	-1.16812	0.771484
O	-0.101357	-1.220259	1.935326
O	-1.100514	-2.05217	0.159029
N	-0.475379	1.207699	0.745193
O	0.357593	2.075787	0.977322
O	-1.660862	1.213412	1.077519
Br	2.747299	0.0	0.0
