16

C	-0.584072	0.005714	-1.412604
C	0.0	0.0	0.0
Cl	0.316382	1.116005	-2.449111
H	1.088419	0.0	0.0
N	-0.39017	-1.393286	-2.040298
O	0.558492	-2.038152	-1.629861
O	-1.170045	-1.683191	-2.93564
C	-2.003331	0.337957	-1.453273
N	-3.125267	0.689604	-1.462612
N	-0.514946	-1.161739	0.779813
O	-1.50424	-1.749353	0.339586
O	0.081195	-1.41139	1.817921
N	-0.464467	1.23427	0.72657
O	-1.299999	1.096241	1.615968
O	0.032791	2.285401	0.346192
Br	3.279972	0.0	0.0
