12
Coordinates from ORCA-job run
  C   0.85443662105863     -0.23977363739643      0.47530723033445
  C   -0.29090874852092      0.23010333288450     -0.42918267902601
  Br  2.09754499058378      1.22601264808401      0.76650127361990
  H   0.08674602213574      0.63491089944490     -1.36996404091221
  H   0.44668234618725     -0.50879002780733      1.45192615037523
  C   1.54222993191519     -1.36997610872401     -0.12838353745286
  N   2.08675203238077     -2.28492824104232     -0.62599587479442
  N   -1.02039440729748      1.36609661155655      0.26357991811353
  O   -1.20495971538289      2.37745333160783     -0.39935699550799
  O   -1.36082396965330      1.15605840767684      1.42047332135132
  C   -1.24303667270361     -0.85141957945995     -0.65864630254877
  N   -1.99526843070317     -1.73674763682459     -0.83425846355215
