12
Coordinates from ORCA-job run
  C   0.87965047201900     -0.62903425012836     -0.25917526971305
  C   -0.56040787791851     -0.12716436085883     -0.39990030616396
  Br  0.86390702376020     -2.57393633341665     -0.25830405713421
  H   -0.99301281143588     -0.52470487788471     -1.32385382884390
  H   1.45205877010805     -0.31907969642529     -1.13268412614881
  C   1.50213032008806     -0.11649146995813      0.95196614167441
  N   1.99254975108232      0.31439921665570      1.92903218450115
  N   -0.55636675242141      1.39164401860985     -0.59001045569210
  O   -1.55920177243759      1.99322788608698     -0.23903956108998
  O   0.43406497395603      1.85545251301748     -1.14192799870693
  C   -1.39691244586745     -0.47686279937396      0.73904148589355
  N   -2.05845965093285     -0.78644984632410      1.65885579142383
