12
Coordinates from ORCA-job run
  C   0.72478164853732     -0.73659083252360      0.13638796923436
  C   -0.47031498196775      0.04018382787277     -0.44185208969372
  Br  0.54076113531813     -0.95788372009316      2.05842496569010
  H   -0.25408931995509      0.29366643309497     -1.48513666437324
  H   0.69785071569098     -1.74524545714584     -0.28407845750717
  C   2.00620114876380     -0.12731724403913     -0.19101601386126
  N   3.05910546358825      0.30562898563146     -0.48186034541375
  N   -0.62466214320344      1.37465362252756      0.26802877299052
  O   -1.63698208745126      1.56061119713931      0.92738859260109
  O   0.31480481528345      2.14267288944451      0.10570372492612
  C   -1.69759928281003     -0.73782942403612     -0.35221816063730
  N   -2.65985711179435     -1.41055027787273     -0.32577229395575
