12
Coordinates from ORCA-job run
  C   0.83334845229414     -0.22401519519275      0.52170056919613
  C   -0.27059963794986      0.18634948467959     -0.45998825750532
  Br  2.16304153940852      1.18935153058443      0.63430472657141
  H   0.14162527679920      0.43126193182848     -1.44068247317826
  H   0.39968775435427     -0.33231242535005      1.51793909736496
  C   1.45409408985711     -1.46532805881600      0.08731689063931
  N   1.94080536769246     -2.47012487424121     -0.27960485028715
  N   -0.93303283359952      1.45032673713054      0.05532195590209
  O   -1.30235575745351      1.42236019304883      1.22210532529024
  O   -1.04315213433450      2.37061836466487     -0.74301465440916
  C   -1.28845727867929     -0.85497310631592     -0.55595702568928
  N   -2.09600483838901     -1.70551458202083     -0.62644130389497
