12
Coordinates from ORCA-job run
  C   0.86399367657723     -0.63709289468348     -0.28310022236621
  C   -0.56810927991759     -0.10637671585564     -0.40092854462058
  Br  0.81781495508312     -2.58042369265110     -0.33654423574002
  H   -1.00926629125707     -0.46533734767011     -1.33642898087532
  H   1.43556640152916     -0.31146375579096     -1.15151965770685
  C   1.50253146625927     -0.16824143787991      0.93747129300669
  N   2.01146147366231      0.22772485653007      1.91989184801348
  N   -0.53089391474287      1.41745490896025     -0.54152587824135
  O   -1.48252142869767      2.04066864295867     -0.09817169999372
  O   0.43353949847296      1.86615589543748     -1.14900909095624
  C   -1.40565813349603     -0.47831742035867      0.72994231566304
  N   -2.06845842347282     -0.80475103899662      1.64292285381709
