12
Coordinates from ORCA-job run
  C   0.78478089472073     -0.47645936771778      0.41867385714047
  C   -0.23271304438746      0.42036242799929     -0.29545223309333
  Br  1.90090571579947      0.60752120149769      1.58380447331911
  H   0.26216689324615      1.22967756358833     -0.83547251897431
  H   0.24893183804957     -1.18093487614773      1.05825241464798
  C   1.60581146849231     -1.18186691660681     -0.55259216474124
  N   2.25697610324381     -1.75136234850169     -1.34799709458516
  N   -1.11450338077492      1.07917837254294      0.74928225759352
  O   -1.25035682447703      2.29145747042003      0.65900391089532
  O   -1.61201922741673      0.32899012085219      1.57873864628120
  C   -1.08574264075498     -0.36458901699729     -1.18165517674187
  N   -1.76323779574093     -1.00197463092917     -1.89958637174170
