12
Coordinates from ORCA-job run
  C   0.71856288473876     -0.75171203666806      0.08011643753877
  C   -0.47889150622373      0.06962406489135     -0.42770499938981
  Br  0.57158535125191     -1.08029609736719      1.98989021496395
  H   -0.28225966057258      0.37741494794706     -1.46020951974274
  H   0.67102963136452     -1.73425825605816     -0.39657790148251
  C   1.99977776975275     -0.13790461891390     -0.23951729051008
  N   3.05062910121483      0.30140316204794     -0.52825620307083
  N   -0.60140093700289      1.36427059197836      0.35731658607003
  O   0.33997030595883      2.13328156275132      0.21114145254750
  O   -1.59354659208512      1.52099396447400      1.05405646161131
  C   -1.71359778576064     -0.69838747198041     -0.35442820498731
  N   -2.68085856263667     -1.36442981310235     -0.35282703354831
