12
Coordinates from ORCA-job run
  C   0.80542318844432     -0.24720283079308      0.55345476814200
  C   -0.24891972975025      0.23986104499137     -0.44723545042399
  Br  1.99338712500748      1.22081350805094      1.01332996430645
  H   0.21695414705252      0.67584582780610     -1.33298045025810
  H   0.30604650919528     -0.55274073315834      1.47524535191342
  C   1.56439709221097     -1.35006121653223     -0.01481637662034
  N   2.16490071204812     -2.24234943560385     -0.48847319170052
  N   -1.05847274860312      1.34728799212207      0.20061081304789
  O   -1.18560893125354      2.37761372960233     -0.44640541626073
  O   -1.51445217113573      1.09722532759523      1.30884629412729
  C   -1.16065616050380     -0.84219698357761     -0.80406509910858
  N   -1.88299903271223     -1.72509623050292     -1.08551120716480
