12
Coordinates from ORCA-job run
  C   0.74798040183171     -0.43692248246506      0.51539903491311
  C   -0.20703419486178      0.38055307538998     -0.36204309343007
  Br  1.85653460276933      0.76492357716439      1.56656582917043
  H   0.33887310705613      1.08374947961002     -0.99380947715606
  H   0.16234950807124     -1.02849552016372      1.22213758580807
  C   1.58098594346316     -1.29430686772139     -0.31290260495752
  N   2.24416162555911     -1.98313974952784     -0.99619238909933
  N   -1.09877558444429      1.21527655875202      0.53797453019562
  O   -1.66081828952692      0.61091636963368      1.44209085437786
  O   -1.17790987049105      2.40636897154952      0.27088219689887
  C   -1.05736486258478     -0.49903966690042     -1.15739129923009
  N   -1.72898238684185     -1.21888374532119     -1.79871116749090
