12
Coordinates from ORCA-job run
  C   0.84115028748153     -0.68415038991291     -0.23866181415439
  C   -0.57197831849625     -0.11344438109561     -0.39046068685065
  Br  0.72762074093816     -2.62352465691234     -0.15673228298731
  H   -1.02810226429098     -0.51984197632533     -1.29901804373600
  H   1.41961470282398     -0.43979825028801     -1.12901545200996
  C   1.50308016387282     -0.15271308720649      0.94329963976017
  N   2.03211007555313      0.29867158958751      1.89043162156793
  N   -0.48528127741158      1.39494470460171     -0.63427673854660
  O   0.50088406768363      1.77312375391603     -1.25503301616642
  O   -1.42549932182989      2.07390934559544     -0.25244327257387
  C   -1.41948962766450     -0.38009826549766      0.76249054295657
  N   -2.09410922866006     -0.62807838646233      1.69141950274054
