12
Coordinates from ORCA-job run
  C   0.74050827629071     -0.71785599200888      0.15206763181890
  C   -0.46326626835987      0.02669173498098     -0.45030612762912
  Br  0.52653914418951     -0.94009620319961      2.07078034948327
  H   -0.23458508848185      0.28271927703485     -1.49031607168793
  H   0.74758174467533     -1.72780309423087     -0.26604625391195
  C   2.01117180345620     -0.07572574952684     -0.15381061335856
  N   3.05766151909007      0.38313444027435     -0.42759769048320
  N   -0.66422229255035      1.35880641280316      0.25216474617397
  O   -1.69068891401228      1.51894525089335      0.89630541828086
  O   0.25603516105685      2.15184982997942      0.10045670183464
  C   -1.67186267701194     -0.78194933559676     -0.38074059950004
  N   -2.61787240834236     -1.47771657140311     -0.36795749102084
