12
Coordinates from ORCA-job run
  C   0.73255534698795     -0.44487466395620      0.52837746740965
  C   -0.19932334364552      0.39579112909313     -0.35234609276564
  Br  1.74400695228125      0.72368018469328      1.70690125396723
  H   0.35725279521481      1.15027667893350     -0.91138611906845
  H   0.12816554527638     -1.09348543170222      1.16592020890061
  C   1.63556862990985     -1.22762015101487     -0.30050478393529
  N   2.35822314643735     -1.85121380392349     -0.98612411876989
  N   -1.16321377530792      1.15063004495833      0.54365339923806
  O   -1.26473352542080      2.35290293427062      0.34193064920681
  O   -1.75411856706939      0.47834884191380      1.37880735700401
  C   -0.97818122162412     -0.46058521765909     -1.24078605872143
  N   -1.59420198303985     -1.17485054560678     -1.94144316246569
