12
Coordinates from ORCA-job run
  C   0.88174493118240     -0.60951434869682     -0.23560693110062
  C   -0.54406189237173     -0.09045629831361     -0.46176456077453
  Br  0.89467784511161     -2.54416471578759     -0.40774997141013
  H   -0.87610430978259     -0.39005964531646     -1.45946058330779
  H   1.51928436561980     -0.21710015212603     -1.02911385235811
  C   1.38898553155664     -0.20147157236667      1.06588340476088
  N   1.78252252215347      0.15380185156386      2.11484939073749
  N   -0.46871809611488      1.43323219746211     -0.50045082718385
  O   -1.11620956630840      2.07005938578112      0.31680959974912
  O   0.26460826029790      1.87369819216558     -1.37847608431600
  C   -1.48403152098076     -0.53774936312299      0.55414856391424
  N   -2.24469807036345     -0.93927553124253      1.35393185128933
