12
Coordinates from ORCA-job run
  C   0.87448185332154     -0.29276911023897      0.40755034370279
  C   -0.31006145298092      0.23035024165437     -0.41341780531999
  Br  2.26829418342027      1.06012984758289      0.47557061910475
  H   0.00492699771680      0.53620717655614     -1.41284431159649
  H   0.54637833570707     -0.46299618878608      1.43507870404196
  C   1.39099248558451     -1.51807677590548     -0.18153741421647
  N   1.79563472842844     -2.50768150106204     -0.66946098563392
  N   -0.85792685916742      1.47271444094598      0.26330021181930
  O   -1.10517746238287      1.36510111170528      1.45752864843499
  O   -1.00694165498029      2.45768576553409     -0.44667964919934
  C   -1.37586009827758     -0.76459070618907     -0.47220081839819
  N   -2.22474105638954     -1.57607430179710     -0.50988754273944
