12
Coordinates from ORCA-job run
  C   0.88129253837561     -0.62440389876311     -0.19250952998025
  C   -0.55710562080277     -0.14758163410729     -0.43183825331484
  Br  0.91319832648021     -2.56588680519392     -0.14576173407779
  H   -0.91420849480586     -0.56073283920296     -1.37902532650067
  H   1.49017391736601     -0.31829148009166     -1.04435393072921
  C   1.42217727540968     -0.06714843569836      1.03818013831228
  N   1.85128606068847      0.40751605765548      2.02406227317800
  N   -0.50252111839386      1.36283245296565     -0.64414222506201
  O   -1.13304849755266      2.08198439263526      0.11599994063382
  O   0.19900476161165      1.70784187042940     -1.58834356598476
  C   -1.46056294406291     -0.48599640093804      0.65665482976307
  N   -2.18968620431361     -0.79213327969051      1.52507738376241
