12
Coordinates from ORCA-job run
  C   0.72192634136985     -0.73637455673757      0.15314103582829
  C   -0.46441001535113      0.03673507935307     -0.44855123972065
  Br  0.51051334268900     -0.94194830843273      2.07386446645842
  H   -0.23261280231662      0.28067487212721     -1.49076580935365
  H   0.70017004102073     -1.74832765854072     -0.25945143872375
  C   2.00801020738170     -0.13014883578476     -0.16113148790912
  N   3.06544344140559      0.30009017051403     -0.43900075180963
  N   -0.62710742357484      1.37689090068305      0.24757020288613
  O   -1.64513146991116      1.56655490028759      0.89699268116508
  O   0.31240278573605      2.14521205075446      0.08652348322677
  C   -1.69349273020267     -0.73950294104676     -0.37050252711073
  N   -2.65771171824652     -1.40985567317686     -0.35468861493715
