12
Coordinates from ORCA-job run
  C   0.78088499829960     -0.40736604924293      0.48817137355851
  C   -0.22997703320429      0.34906044934917     -0.38177848297303
  Br  2.01578391514391      0.85596457314172      1.29913893024710
  H   0.27345286469698      0.96126373695609     -1.13239714304005
  H   0.24857769258791     -0.89953472606556      1.30474646765258
  C   1.50864022166860     -1.37667498436264     -0.31549910701315
  N   2.08757022817517     -2.15834642686629     -0.97505002668104
  N   -1.00878478959541      1.30623722902030      0.50076162595296
  O   -1.50319270989711      0.81987023215952      1.50963778319722
  O   -1.07471563260663      2.46659248490240      0.11895789706127
  C   -1.17538136019089     -0.57673551796157     -0.99674938132572
  N   -1.92285839507791     -1.33933100103018     -1.48693993663663
