12
Coordinates from ORCA-job run
  C   0.73553212512384     -0.72645654194859      0.13299362487531
  C   -0.48178678588857      0.02667106091999     -0.43053493570581
  Br  0.60094102918601     -0.91236007072682      2.06263580174191
  H   -0.29438897032421      0.25983369214509     -1.48407462943536
  H   0.70941258849131     -1.74289188932665     -0.26839314639850
  C   2.00161820005884     -0.11000091972632     -0.23798439727115
  N   3.04332911866740      0.32535781434310     -0.56359318685164
  N   -0.63180444269128      1.37371775835107      0.25534539242105
  O   -1.62627679348460      1.56106036074298      0.94106469113471
  O   0.29248775790834      2.14963366980841      0.04908333074556
  C   -1.69830859293469     -0.76144432631152     -0.29435695793998
  N   -2.65175523411240     -1.44412060827074     -0.23018558731607
