12
Coordinates from ORCA-job run
  C   0.72494515127200     -0.72534757442944      0.18506373565060
  C   -0.45260876603425      0.02371710281216     -0.46195800019421
  Br  0.46351054552377     -0.89882302556233      2.10295153385879
  H   -0.19638507577555      0.25144960241070     -1.50213866060115
  H   0.72501106424069     -1.74461615341165     -0.20990828318493
  C   2.01297540649811     -0.11120758163341     -0.10519877632124
  N   3.07389981717232      0.32436315400671     -0.36086751188452
  N   -0.64787026849471      1.37489733364203      0.20443720871213
  O   -1.68725233097966      1.56779110721492      0.81807662978859
  O   0.28982331570968      2.14832564719173      0.05794391021236
  C   -1.67521896572810     -0.76438463856170     -0.40160619870145
  N   -2.63282989340431     -1.44416497367970     -0.39379558733501
