12
Coordinates from ORCA-job run
  C   0.86655282419579     -0.64816075295249     -0.17936771392273
  C   -0.53615990174061     -0.09961761432159     -0.47161767284077
  Br  0.82320338957670     -2.58867517707163     -0.24597730520640
  H   -0.85013925568431     -0.44022699883592     -1.46195688087785
  H   1.53554969585001     -0.31927213976398     -0.97580366457585
  C   1.35472388280081     -0.18406746715097      1.11049583520985
  N   1.74280321310753      0.21713681452600      2.14487415225589
  N   -0.41169205587186      1.41708075205361     -0.58538333006519
  O   -1.05420573893015      2.11478780476784      0.18478791047876
  O   0.35399432736812      1.78893925245699     -1.46762822741683
  C   -1.51612848853496     -0.46562119164947      0.53896570805700
  N   -2.30950189213707     -0.79330328205842      1.34061118890409
