12
Coordinates from ORCA-job run
  C   0.73643375896415     -0.73328502269636      0.09686439380132
  C   -0.47244023563126      0.05342374391285     -0.43798856906431
  Br  0.56432751944970     -1.05074893031092      2.00643171033416
  H   -0.26497072085368      0.35989549500071     -1.46880398289892
  H   0.72182879319010     -1.72027827008226     -0.37276899150220
  C   2.00715993467824     -0.08976337303446     -0.20546883921554
  N   3.04956040473121      0.37790749170191     -0.47995998459785
  N   -0.64257229439321      1.34977844322746      0.33596590143678
  O   0.28387349115378      2.13927588573718      0.20531478634662
  O   -1.65338194462178      1.48797257951456      1.00926144800909
  C   -1.68794837462014     -0.74580945878238     -0.38105924014231
  N   -2.64287033204709     -1.42936858418833     -0.37578863250681
