12
Coordinates from ORCA-job run
  C   0.72407492452247     -0.72519981054225      0.18712334994888
  C   -0.46364348875142      0.01492153647212     -0.45117428527102
  Br  0.50800388656840     -0.84480313485406      2.11478955811802
  H   -0.23262627913024      0.20987852516901     -1.50387694685020
  H   0.70719548486546     -1.75453002445505     -0.18038622640435
  C   2.00917436084485     -0.12914583472012     -0.15006024821909
  N   3.06719925637249      0.29070504475189     -0.44201534920976
  N   -0.63238041246276      1.38590506227321      0.18044958213047
  O   -1.65501370421330      1.60416307907742      0.81364387024157
  O   0.30663594583408      2.14771405269301     -0.01101949539682
  C   -1.69006980474717     -0.76163326439608     -0.33758951180815
  N   -2.64955016970289     -1.43697523146915     -0.28788429727953
