15

C	0.0	0.0	0.0
C	-0.334882	-0.108361	-1.488896
F	1.374685	0.0	0.0
H	0.201296	0.709744	-1.974632
H	0.158859	-1.030585	-1.810387
N	-0.40834	1.342169	0.557985
O	-0.493059	1.438146	1.779797
O	-0.48361	2.280313	-0.2308
C	-0.412804	-1.134381	0.901301
H	0.099053	-1.020306	1.85907
H	-0.081698	-2.06403	0.427275
H	-1.498063	-1.088848	0.984504
C	-1.708435	-0.088661	-2.017837
N	-2.532294	0.139147	-2.830582
F	-2.522388	0.0	0.0
