15

C	0.0	0.0	0.0
C	-0.445458	0.008338	-1.457311
F	1.358789	0.0	0.0
H	-1.546313	0.104725	-1.434723
H	0.065407	0.837329	-1.959087
N	-0.259963	1.502984	0.638413
O	0.791299	1.954784	1.120359
O	-1.282044	2.171436	0.575282
C	-0.399073	-1.113391	0.943738
H	0.131636	-0.94134	1.888211
H	-1.478475	-1.150104	1.053193
H	-0.001791	-2.041922	0.518123
C	-0.033915	-1.232281	-2.112375
N	0.237264	-2.241527	-2.648941
F	-2.606319	0.0	0.0
