15

C	0.0	0.0	0.0
C	-0.616401	-0.208499	-1.362237
F	1.35847	0.0	0.0
H	-1.716962	-0.017576	-1.132986
H	-0.515286	-1.270158	-1.608478
N	-0.350461	1.410146	0.495845
O	-0.727091	2.24077	-0.321666
O	-0.132432	1.63665	1.683948
C	-0.509143	-1.007527	0.995874
H	-0.11985	-0.769763	1.984664
H	-1.604045	-0.936837	0.942842
H	-0.150015	-1.995128	0.692277
C	-0.026788	0.575945	-2.432918
N	0.445709	1.157729	-3.338099
F	-2.868069	0.0	0.0
