15

C	0.0	0.0	0.0
C	-0.587228	-0.085729	-1.393199
F	1.372266	0.0	0.0
H	-0.297943	0.795385	-1.977446
H	-1.706303	-0.086597	-1.135441
N	-0.372364	1.365916	0.577782
O	-0.432283	2.313169	-0.20182
O	-0.473973	1.455407	1.797123
C	-0.477344	-1.093708	0.917051
H	-1.571699	-1.009215	0.91988
H	-0.040469	-0.962245	1.907683
H	-0.143975	-2.046904	0.498042
C	-0.148856	-1.290838	-2.069982
N	0.201446	-2.263432	-2.627306
F	-2.82387	0.0	0.0
