15

C	0.0	0.0	0.0
C	-0.615611	-0.010835	-1.377964
F	1.358572	0.0	0.0
H	-0.518143	-1.027609	-1.771905
H	-1.716105	0.148408	-1.126863
N	-0.349996	1.324423	0.69403
O	-0.145954	1.372504	1.905004
O	-0.712924	2.268359	0.00317
C	-0.510018	-1.141098	0.83925
H	-1.604881	-1.063494	0.793348
H	-0.124995	-1.047763	1.853894
H	-0.148372	-2.073879	0.397612
C	-0.021479	0.912536	-2.328708
N	0.451651	1.611182	-3.146717
F	-2.86883	0.0	0.0
