15

C	0.0	0.0	0.0
C	-0.618655	0.060176	-1.37473
F	1.358478	0.0	0.0
H	-0.520258	-0.934567	-1.821178
H	-1.72068	0.20302	-1.111558
N	-0.349558	1.285203	0.763489
O	-0.719561	2.263296	0.12463
O	-0.138594	1.269894	1.974749
C	-0.508112	-1.183769	0.780161
H	-0.145436	-2.092227	0.290945
H	-0.121874	-1.142727	1.797793
H	-1.602851	-1.106642	0.740376
C	-0.03114	1.034046	-2.277622
N	0.43517	1.780637	-3.056638
F	-2.870275	0.0	0.0
