16
Coordinates from ORCA-job run
  C   0.84936971640464     -0.07438953864584      0.92448057673473
  C   -0.56702571663402      0.09920072207945      0.37918054574972
  Br  1.45104422737158      1.41434772848430      1.99651086199274
  H   -1.18657338807212      0.22664554999197      1.27534554690510
  H   0.92339187899016     -0.96080714810118      1.55151970699792
  N   1.81626565909190     -0.32134622219430     -0.20467355121249
  O   2.19087560894332      0.63029149425161     -0.87850567548895
  O   2.09692877327729     -1.50404687681747     -0.39739966881602
  C   -1.00339023169371     -1.18358884346944     -0.33270298090408
  H   -2.06557367285360     -1.12019881488411     -0.57942636750382
  H   -0.85095079522495     -2.06888330505600      0.28930326566091
  H   -0.45264199442103     -1.32922749808587     -1.26487027122608
  C   -0.75511168703943      1.31947602488026     -0.51661319504651
  H   -0.19065095240427      1.22189235137916     -1.44536066669531
  H   -0.44163910964406      2.24012956718428     -0.02381586937668
  H   -1.81331831609169      1.41350480900319     -0.77197225777118
