17
Coordinates from ORCA-job run
  C   0.97551447288543      0.08356590900580     -0.33050290094741
  C   -0.42685148136862      0.11301172913927      0.30826784416631
  Br  0.93655751473249     -0.04712095705150     -2.25908123373996
  H   -0.21898752821207      0.23738876358204      1.37842305857518
  N   1.70373089828552     -1.14213083070067      0.26852928395367
  O   1.85525245785147     -2.13798168004386     -0.41669453977891
  O   1.99558350520133     -1.00041520154369      1.45023024325581
  C   1.74857927976792      1.26331227218794      0.03325414406424
  N   2.32995146379984      2.24159676341645      0.32951191068529
  C   -1.17746030673975     -1.19866494722666      0.10287290631738
  H   -1.32655183699955     -1.40821748295054     -0.95827091825876
  H   -2.15973333510077     -1.12130044963271      0.57418406520787
  H   -0.66243482628424     -2.04868178140827      0.55471558174237
  C   -1.23164913960115      1.31591916755810     -0.17368034173331
  H   -2.15007636752440      1.38719434601852      0.41348719415371
  H   -0.68242500405964      2.25200834219698     -0.05042291118862
  H   -1.50899976663381      1.20951603745280     -1.22382338647486
