17
Coordinates from ORCA-job run
  C   0.96978112095454      0.14413816582693     -0.43471215281325
  C   -0.55444242515791     -0.01902643567644     -0.36529772080738
  Br  1.53867404556728      1.08922234986818     -2.03542103577774
  H   -0.83845450495133     -0.48388793989191     -1.31523305458488
  N   1.58269499268849     -1.26338340286926     -0.50516661010020
  O   2.29244442912609     -1.60796464496773      0.43133002558531
  O   1.24799195787626     -1.93821982098533     -1.46620772074847
  C   1.50183924564287      0.83688043503896      0.72878333234747
  N   1.85273711735873      1.44301968625664      1.67352412731438
  C   -1.25089343499755      1.33010680937562     -0.21638776417942
  H   -1.00215168435069      2.01326347062445     -1.02903709953234
  H   -0.98660111550565      1.80479278255445      0.73209562948580
  H   -2.33216447488762      1.17646879989732     -0.22459880712284
  C   -0.92193707899435     -0.95585309786829      0.78784807660844
  H   -0.52368820318289     -1.96273211443999      0.65013004300934
  H   -2.00938645077332     -1.03921850164236      0.84394794505890
  H   -0.56544353641294     -0.56660654110125      1.74540278625688
