17
Coordinates from ORCA-job run
  C   0.95048529603712     -0.01247034531476     -0.60800452557716
  C   -0.57431413709463      0.11678038215139     -0.39432697923432
  Br  1.36841600070168     -1.04867446177479     -2.19333764267141
  H   -0.94139905979607      0.50889729074722     -1.35008975977917
  N   1.55316378912235     -0.70406012384333      0.62742793089318
  O   1.85854582308877      0.05496830341022      1.54142691633854
  O   1.59509793292448     -1.92332999342180      0.63724455834701
  C   1.59106627587295      1.28723244530659     -0.75342047603570
  N   2.06299134728460      2.35256603939210     -0.91114590516353
  C   -0.90658635398251      1.12905985203289      0.70408041239254
  H   -1.99144557957398      1.25067077816156      0.74492560678838
  H   -0.46402063763645      2.10819324536536      0.51409590370841
  H   -0.56973988278235      0.78419196064897      1.68337914239045
  C   -1.24403468951887     -1.22696735605825     -0.11764181307800
  H   -0.98695149335755     -1.60069888775718      0.87589685448345
  H   -0.97416294600633     -1.98748291910159     -0.85002460050064
  H   -2.32711168528320     -1.08987620994458     -0.15048562330202
