19

C	-0.478767	0.030692	-1.460317
C	0.0	0.0	0.0
Br	0.19476	-1.72984	-2.282965
H	1.089349	0.0	0.0
N	-1.889579	0.121194	-1.545772
H	-2.346381	-0.637054	-1.054729
H	-2.190523	0.115664	-2.51234
C	0.1939	1.117111	-2.278748
H	-0.180959	2.090745	-1.957344
H	-0.033561	0.978899	-3.338861
H	1.273608	1.078759	-2.125849
C	-0.508058	-1.139387	0.862244
H	-0.120518	-1.006104	1.873727
H	-0.120795	-2.080716	0.475147
H	-1.59764	-1.17447	0.926145
N	-0.441212	1.30481	0.616861
O	0.255827	2.295175	0.406156
O	-1.478683	1.311281	1.285374
Br	3.545174	0.0	0.0
