19

C	-0.383758	-0.02343	-1.477681
C	0.0	0.0	0.0
Br	-2.559776	0.344963	-1.499192
H	1.095343	0.0	0.0
N	0.271244	0.911602	-2.225954
H	0.038635	0.941428	-3.204983
H	0.433449	1.80331	-1.783772
C	-0.29189	-1.40146	-2.095471
H	0.74288	-1.741582	-1.980649
H	-0.532501	-1.341064	-3.159339
H	-0.978365	-2.104791	-1.630838
C	-0.500966	-1.164077	0.821952
H	-1.58672	-1.259747	0.776634
H	-0.024072	-2.077658	0.4657
H	-0.2018	-1.022385	1.859659
N	-0.403853	1.300042	0.628779
O	-1.100224	1.276828	1.6416
O	0.005004	2.337449	0.100147
Br	3.435974	0.0	0.0
