12

C	-0.300847	0.257374	-1.475609
C	0.0	0.0	0.0
Br	-2.248908	0.218105	-1.81245
H	1.097182	0.0	0.0
H	0.096058	-0.580123	-2.050064
H	-0.366629	-0.973123	0.334108
N	0.254002	1.474239	-2.001186
H	-0.030236	2.254486	-1.417574
H	1.267616	1.388833	-1.92312
C	-0.510343	1.057549	0.859617
N	-0.940831	1.922242	1.52742
Br	3.475118	0.0	0.0
