12

C	-0.519217	0.005329	-1.433746
C	0.0	0.0	0.0
Br	-0.058709	-1.697905	-2.284901
H	1.091334	0.0	0.0
H	0.04469	0.741138	-2.016326
H	-0.362434	-0.8899	0.520876
N	-1.958647	0.147367	-1.480208
H	-2.262806	0.233322	-2.441439
H	-2.220574	0.994247	-0.985021
C	-0.486279	1.186187	0.696509
N	-0.920681	2.124832	1.251969
Br	3.524086	0.0	0.0
