12

C	-0.387762	-0.126454	-1.470015
C	0.0	0.0	0.0
Br	-0.248171	1.715427	-2.360135
H	1.099049	0.0	0.0
H	-1.444742	-0.343175	-1.630195
H	-0.301985	-0.933739	0.488116
N	0.439637	-1.103409	-2.046932
H	1.41955	-0.93149	-1.826793
H	0.308092	-1.192593	-3.044139
C	-0.586279	1.115933	0.721373
N	-1.075362	1.974937	1.355788
Br	3.503697	0.0	0.0
