12

C	-0.32791	0.085031	-1.481419
C	0.0	0.0	0.0
Br	-2.269735	0.446413	-1.768776
H	1.096412	0.0	0.0
H	-0.20922	-0.894915	-1.953641
H	-0.335386	0.909049	0.50434
N	0.443598	1.147031	-2.049439
H	1.397765	1.086548	-1.692295
H	0.46522	1.074435	-3.057642
C	-0.549474	-1.177528	0.649562
N	-1.009886	-2.126849	1.163997
Br	3.485488	0.0	0.0
