15
Coordinates from ORCA-job run
  C   0.81648341273952      0.02305934913462      0.39661515796887
  C   -0.59154697254850      0.44646608687679     -0.05304387784592
  Cl  1.08195236476202      0.45788317723414      2.09088303390474
  H   -0.66476780645782      1.51840073836437      0.15573248894565
  C   1.04758049988583     -1.39980149716935      0.20017512619284
  N   1.15382894536023     -2.56282473106877      0.06309943039161
  N   1.84430676428899      0.82304596190450     -0.43582750035771
  O   1.64659660851117      2.02731515015318     -0.47676569291956
  O   2.74684313713867      0.19109827017733     -0.96346488203901
  C   -1.69870818711825     -0.32546546785221      0.66756325726776
  H   -1.64174497993401     -0.16131426556262      1.74359637510571
  H   -2.66855012328465      0.02739211075387      0.31420647006967
  H   -1.62509594895763     -1.39468022039607      0.46137960487616
  C   -0.68173454310508      0.25384693316087     -1.50253855735301
  N   -0.76544317128050      0.07557840428937     -2.66061043420780
