15
Coordinates from ORCA-job run
  C   0.88837508545970      0.31528439055970      0.43412983242321
  C   -0.62731116065956      0.52141287558154      0.21085715201259
  Cl  1.68268088393078      1.84520354007386      0.77982106637141
  H   -0.99301881398621      0.96388297346400      1.14501838501947
  C   1.11806023852879     -0.62116533007620      1.52634147771811
  N   1.25675299076485     -1.33998529850774      2.44618396794656
  N   1.47497416399304     -0.29779797742116     -0.85815134090519
  O   1.80461235963588      0.47649162984207     -1.73950576847071
  O   1.47623449848433     -1.52233840158746     -0.89158181028617
  C   -1.38086886230622     -0.78347505067619     -0.06792745643417
  H   -1.19824618793732     -1.51110469803919      0.72407649971462
  H   -2.45001621265745     -0.56932814262803     -0.10400461373822
  H   -1.08650788675058     -1.21826510270679     -1.02286401230672
  C   -0.85675909255449      1.49317949913539     -0.85956776407200
  N   -1.10996200394557      2.24700509298619     -1.72382561499277
