15
Coordinates from ORCA-job run
  C   0.85896406536055      0.36175323625398     -0.02800564317548
  C   -0.58383463325225      0.02200258880934      0.41143348148605
  Cl  0.91084702624758      1.65906288245131     -1.20353915872290
  H   -0.48149094473890     -0.74482143348404      1.18770497347163
  C   1.69752577307219      0.68469375317261      1.11913518466525
  N   2.35207060779201      0.95656548256240      2.05724755001238
  N   1.41090472709065     -0.95421173861856     -0.64087737305278
  O   1.61438409813942     -1.00280966289789     -1.83959097121252
  O   1.52943975156205     -1.85397962906925      0.18050731242337
  C   -1.44254778667145     -0.51923815874703     -0.73351014041677
  H   -2.45321583014706     -0.70016078600028     -0.36538619621303
  H   -1.49558508397708      0.19241421048258     -1.55730542037472
  H   -1.04216840313588     -1.46561007218493     -1.10056979061596
  C   -1.18214986035770      1.20973522893303      1.01810474420841
  N   -1.69314350698413      2.15460409833674      1.49265144751707
