15
Coordinates from ORCA-job run
  C   0.80521677720348      0.03035021664030      0.41864561364454
  C   -0.59657529851442      0.43780989368553     -0.06371807843389
  Cl  1.02138456795234      0.45721022362255      2.12189610476223
  H   -0.69185306653021      1.50590701901773      0.15565134892440
  C   1.05993708966880     -1.38807208567257      0.21919673632694
  N   1.17939319802362     -2.54910651951581      0.07692279014335
  N   1.84335504969691      0.84948599814812     -0.38205303192611
  O   2.77111457390574      0.23366176275194     -0.88446577950840
  O   1.62751571257369      2.05057458061400     -0.42505108468758
  C   -1.71049335808584     -0.35897586686814      0.61800422472599
  H   -2.67644162259516     -0.01210226546614      0.24834253450129
  H   -1.61879539039336     -1.42355431832310      0.39663159060799
  H   -1.68034517425518     -0.21148570658837      1.69748791288907
  C   -0.64470124483063      0.26508044733127     -1.51772366282452
  N   -0.68971181381979      0.11321662062269     -2.68176721914530
