15
Coordinates from ORCA-job run
  C   0.90717822565312      0.29841701615801      0.40602580148182
  C   -0.61006301039312      0.53572719940421      0.22757296979809
  Cl  1.74346551832194      1.81247616808302      0.72095087627420
  H   -0.93833779246983      0.98988624047588      1.16996606136024
  C   1.15032553886623     -0.63866031623900      1.49477268600452
  N   1.30140263011903     -1.35568972409819      2.41408717827158
  N   1.44120307918281     -0.33177409656331     -0.90081333268582
  O   1.76187506364581      0.43191488680819     -1.79461085301793
  O   1.41475350844566     -1.55622069665222     -0.92903212882938
  C   -1.39895164795375     -0.75408322030790     -0.02232318051289
  H   -1.14453847193566     -1.19742824281519     -0.98480311408507
  H   -1.20567318512778     -1.48330777416741      0.76569592318419
  H   -2.46408086026614     -0.51797150306114     -0.02467671186161
  C   -0.84982922428267      1.50734690020375     -0.84073703444831
  N   -1.10872937180564      2.26136716277130     -1.70307514093364
