15
Coordinates from ORCA-job run
  C   0.90285906178232      0.16807118465120      0.16834666835212
  C   -0.64122172078683      0.20462526029141      0.23694692495024
  Cl  1.54179760044154      1.23328139667254     -1.06619691494957
  H   -0.91335088774693     -0.43910387028626      1.08126106443983
  C   1.49489516433619      0.48025923841508      1.46267519113329
  N   1.94728817237771      0.75059907644543      2.51364668684581
  N   1.25372735189645     -1.31081882298536     -0.14984759322841
  O   0.95594066978440     -2.08059671541887      0.75412536864005
  O   1.71722917540688     -1.58170901132359     -1.24188516292188
  C   -1.30624785427584     -0.31548684942083     -1.03921984355328
  H   -0.98837123986574      0.25656839985354     -1.91091678294856
  H   -1.06966970598296     -1.36941510055169     -1.19439843652930
  H   -2.38853483143104     -0.22327391703084     -0.93900230074399
  C   -1.06659859913743      1.56822954153170      0.54780934953756
  N   -1.43974235679872      2.65777018915652      0.77765578097609
