15
Coordinates from ORCA-job run
  C   0.84340811451818     -0.04492025689442      0.33494922166963
  C   -0.55577273465329      0.49257615253242     -0.00844992241269
  Cl  1.26718393371568      0.35633249292355      2.00496734670150
  H   -0.52767910268250      1.56512839549069      0.20785441529877
  C   0.94370685978714     -1.48066014233090      0.12199127938172
  N   0.94393408354894     -2.64788245178386     -0.02000588349325
  N   1.86739849536979      0.67492193857385     -0.57123673432579
  O   2.67589762866327     -0.02427775440233     -1.16273271140812
  O   1.76354587930891      1.89130843807388     -0.59902277521210
  C   -1.66483318050805     -0.19495233348919      0.79043124179201
  H   -1.69252985802238     -1.26467070222506      0.57643721782565
  H   -2.62681815148518      0.23689583729141      0.51111553244605
  H   -1.51563866116693     -0.04502449212962      1.85960352977463
  C   -0.76811770816621      0.32032204239761     -1.44769186912333
  N   -0.95268559822737      0.16390283597196     -2.59720988891466
