15
Coordinates from ORCA-job run
  C   0.84103286383230      0.40243533314822     -0.02233330254737
  C   -0.58394839102435     -0.01291498406753      0.40907222747569
  Cl  0.83175349799586      1.71817545883612     -1.17814095342903
  H   -0.44640571947463     -0.78811238895284      1.17163713675383
  C   1.66120470464545      0.74790985818243      1.13135369683746
  N   2.30131972522131      1.03527847229477      2.07476368386619
  N   1.45671911884962     -0.87614776851067     -0.65378749846926
  O   1.66355167301783     -0.89645567748171     -1.85272173242797
  O   1.61620948929909     -1.78202676170896      0.15374882343123
  C   -1.41742804734207     -0.57260105788437     -0.74562046252826
  H   -1.50983121553201      0.15317358536640     -1.55328159463300
  H   -0.97083242486826     -1.48889301108206     -1.13485016166540
  H   -2.41597491570925     -0.81295628830426     -0.37870551943456
  C   -1.23695386453464      1.13329579305947      1.03917733663503
  N   -1.78941649437626      2.04183943710501      1.53768832013542
