15
Coordinates from ORCA-job run
  C   0.87101042814000      0.32485955330200      0.46123654716208
  C   -0.64230053629071      0.50684680205208      0.20214407203438
  Cl  1.62762511929774      1.86379035044679      0.84895020877498
  H   -1.03973598343005      0.92924605291979      1.13264114070648
  C   1.09036819731197     -0.62314530775382      1.54557236395188
  N   1.21863110966492     -1.35135841701207      2.45955653744040
  N   1.50105238313183     -0.25835992845146     -0.82424106996499
  O   1.84065762663545      0.53421699630001     -1.68526120395308
  O   1.52410571318743     -1.48218429752137     -0.87517210150774
  C   -1.36464881010019     -0.80721110706578     -0.11379321517837
  H   -1.03801853276982     -1.22336750272779     -1.06652945516480
  H   -1.18931831624749     -1.54263945888657      0.67263601989317
  H   -2.43615245760116     -0.61169310610734     -0.17492327052646
  C   -0.86098612874369      1.48939213177878     -0.86072334440940
  N   -1.10128981218624      2.25060723872674     -1.72209322925853
