15
Coordinates from ORCA-job run
  C   0.81611525582540      0.11615986503825      0.38320887686611
  C   -0.60387089807477      0.41413671780502     -0.12659702159247
  Cl  1.06796784038925      0.84383509278878      1.97590275206551
  H   -0.70910838202969      1.50333238037558     -0.10651697190459
  C   1.08761870174650     -1.31232323372729      0.43442849614868
  N   1.22314391516036     -2.47835489645188      0.50118116271592
  N   1.81907238340496      0.78982405109993     -0.58020226865340
  O   2.73367680398205      0.09986867923812     -1.00443992565981
  O   1.59052675163405      1.96508604844276     -0.82004293315227
  C   -1.68803073581952     -0.25423647778768      0.72118062226006
  H   -1.58645484491193     -1.34053807341216      0.69588659910516
  H   -2.66795009133856      0.00934225752544      0.32074882415690
  H   -1.63251912549926      0.08886726902711      1.75421610718361
  C   -0.68649667152693     -0.03081337199843     -1.51987969131707
  N   -0.76269090294192     -0.41318630796354     -2.62807462822233
