15
Coordinates from ORCA-job run
  C   0.82843572231556      0.03957804217090      0.36989808258648
  C   -0.58468251141323      0.45226790693692     -0.07426125283835
  Cl  1.15230403030948      0.61074592039050      2.01269964792775
  H   -0.63212129732304      1.53922949747588      0.04463058048742
  C   1.02742336467055     -1.39949726913839      0.29021257288532
  N   1.10833845283116     -2.57201225115239      0.25543994201888
  N   1.84447183562969      0.74446264696542     -0.55700404038287
  O   2.71596575919713      0.05046054453959     -1.05835365683543
  O   1.66958964195324      1.94536739394265     -0.69224740844656
  C   -1.68358758778502     -0.23318720062093      0.74009600725749
  H   -2.65704628757477      0.10890020256024      0.38616003999113
  H   -1.63601785075380     -1.31708044669920      0.62289241804394
  H   -1.59121485742736      0.01949696668116      1.79620757600475
  C   -0.72091755466378      0.14030487869434     -1.49911173180257
  N   -0.84094085996580     -0.12903683274668     -2.63625877689737
