15
Coordinates from ORCA-job run
  C   0.82147200736213      0.03872923181166      0.38564962360892
  C   -0.57743527848669      0.45751869545434     -0.09639737449365
  Cl  1.11936724405195      0.64555437117134      2.02059844732860
  H   -0.61418781556242      1.54742655961112     -0.00287157614803
  C   1.00395793161254     -1.40411654481577      0.34457813994816
  N   1.07109454660043     -2.57801106748419      0.33817819573286
  N   1.86415021998528      0.70876197983467     -0.53708882734557
  O   1.70708766956365      1.90817274769677     -0.70395738911777
  O   2.73637858811866     -0.00752350074871     -1.00465865116268
  C   -1.70056255296061     -0.19659806486715      0.71055910273619
  H   -1.66541015046690     -1.28320198173364      0.61619914969407
  H   -1.62477189475128      0.07624874104691      1.76301646153044
  H   -2.66248619461901      0.15095336875452      0.33125925665335
  C   -0.68898583302277      0.11530589915928     -1.51654801016239
  N   -0.78966848742499     -0.17822043489115     -2.64951654880250
