15
Coordinates from ORCA-job run
  C   0.89104288158755      0.26082003590779      0.37843410839943
  C   -0.61327750818993      0.53815659960345      0.21482145299176
  Cl  1.79940685353832      1.76006771915840      0.61627251755038
  H   -0.92706856179916      0.93312327535170      1.18935704456922
  C   1.10914580554483     -0.63170806265434      1.51130030826933
  N   1.21010721012346     -1.32856618900824      2.45273304644583
  N   1.47751765543746     -0.41742612311534     -0.87541594732785
  O   2.41266386477908     -1.18226756718032     -0.68795388872152
  O   0.97973849551960     -0.09336326663931     -1.94295094041063
  C   -1.41131380873777     -0.73539255084518     -0.08737708665418
  H   -2.47654353643605     -0.50265976922155     -0.05770773407653
  H   -1.17470258263572     -1.11872427016474     -1.07932203970597
  H   -1.21007113314860     -1.50381752096471      0.66146846134187
  C   -0.88257781592190      1.58714141002674     -0.76982097667176
  N   -1.18506781966117      2.43461627974566     -1.52383832599939
