15
Coordinates from ORCA-job run
  C   0.91518639723511      0.17324489471725      0.05672073945972
  C   -0.61523267903900      0.24860417945695      0.26352152743310
  Cl  1.43911212209726      1.03816322837038     -1.37311775413135
  H   -0.80885804894154     -0.26249687946948      1.21354618134801
  C   1.62947592618573      0.65677079357840      1.23114372083347
  N   2.18231691008445      1.06644591757306      2.18446201481938
  N   1.22641972048915     -1.34219649340617     -0.07571718188100
  O   1.01082753195919     -1.96887443231113      0.95351939366561
  O   1.58298856927579     -1.77555408718192     -1.15553275917911
  C   -1.40144691385028     -0.43667376188751     -0.85611320070603
  H   -1.16363265714762     -0.00350451071637     -1.82778541063768
  H   -1.18729800753293     -1.50656585411586     -0.87676697266791
  H   -2.46882869869061     -0.30919274556847     -0.67069840973233
  C   -1.00042895880882      1.65076951298922      0.41324729115422
  N   -1.33960121331588      2.77006023797166      0.51957082022190
