15
Coordinates from ORCA-job run
  C   0.86328857320479      0.33197643233805     -0.11966088867823
  C   -0.59756602589450      0.16140597521316      0.35640600565644
  Cl  0.97040805596978      1.14354530268806     -1.66804285530481
  H   -0.53125641698623     -0.28928076183586      1.35319638396676
  C   1.66342794509196      1.03359791666769      0.87601095206628
  N   2.28443725702856      1.61398300791223      1.68829818576371
  N   1.42365550832064     -1.11304862643911     -0.21890009899002
  O   1.67158180498353     -1.57202204357020     -1.31829575188960
  O   1.50134431510558     -1.67359001012904      0.86649118638889
  C   -1.42081415150460     -0.74429427090772     -0.56179782506538
  H   -1.01569703026952     -1.75736989767253     -0.56735080962858
  H   -1.43988665285506     -0.35945524964910     -1.58122919762605
  H   -2.44487297134670     -0.79206220444385     -0.18946097994476
  C   -1.20481919318239      1.48401702487883      0.49284228894183
  N   -1.72223101766584      2.53359740494938      0.59149340434351
