15
Coordinates from ORCA-job run
  C   0.90544188787161      0.30225919267546      0.40718440556698
  C   -0.61350880845802      0.52977001821479      0.23142006273412
  Cl  1.73124642677941      1.82017080597230      0.73047553107648
  H   -0.94404381234452      0.97587593262752      1.17685271169554
  C   1.15599193278108     -0.63983893248941      1.48993168662325
  N   1.31177643546211     -1.36114868534415      2.40507642184251
  N   1.44299316209507     -0.31632656257714     -0.90404884360185
  O   1.75775400057717      0.45497100590306     -1.79333733305669
  O   1.42439264729812     -1.54068007214873     -0.93967597232150
  C   -1.39380030291386     -0.76384187339746     -0.02558782246114
  H   -2.46044125791003     -0.53469685938394     -0.02621974257889
  H   -1.13684904295250     -1.20021783136403     -0.99055307043395
  H   -1.19540367575526     -1.49609314379124      0.75834960259426
  C   -0.86116123701829      1.50610763491356     -0.83081040848153
  N   -1.12638835551207      2.26368937018940     -1.68805722919759
