15
Coordinates from ORCA-job run
  C   0.89891275656860      0.30279428180432      0.42066361774659
  C   -0.61827167668161      0.52715049877572      0.22538769144223
  Cl  1.71607823620100      1.82148751807569      0.76201810855962
  H   -0.96277830027453      0.96808958609429      1.16827223871067
  C   1.13729600643479     -0.64337252468794      1.50259746345826
  N   1.28360756613764     -1.36849306470033      2.41632865822902
  N   1.45562022569714     -0.30833675342129     -0.88575862952687
  O   1.44153906866388     -1.53260281690973     -0.92714047178166
  O   1.78009983823375      0.46778272833918     -1.76737721546964
  C   -1.39112243660851     -0.76751592721403     -0.04800786683144
  H   -1.20067544809545     -1.50309728501161      0.73478941770505
  H   -2.45845673765097     -0.54191797839823     -0.06144693718464
  H   -1.12036753141227     -1.19829504741483     -1.01172982837924
  C   -0.85420511550864      1.50769266551113     -0.83560464197950
  N   -1.10927645170482      2.26863411915767     -1.69299160469846
