15
Coordinates from ORCA-job run
  C   0.83521801806998      0.00047651536782      0.35864154692840
  C   -0.58885049238667      0.45331924630821     -0.00601835651075
  Cl  1.18457493326902      0.36445249502505      2.05398875406709
  H   -0.64136782137414      1.51579920906877      0.25170915898749
  C   1.04128551024036     -1.41570749138729      0.09609102914232
  N   1.12908747854613     -2.57390577790369     -0.08674954218197
  N   1.82817868758647      0.82440408092034     -0.49140146167379
  O   1.64749926709205      2.03180744534427     -0.46571593251212
  O   2.68921847586752      0.20578961659766     -1.09869551054616
  C   -1.66805584682588     -0.34063661859627      0.73246226925943
  H   -1.55548539600159     -0.22788039070896      1.81065682563305
  H   -2.65015963815534      0.03741616979286      0.44521257944321
  H   -1.61721591183014     -1.39953698139424      0.47371459453561
  C   -0.74796132062398      0.32406661569715     -1.45652963281562
  N   -0.88596594347379      0.19913586586831     -2.61636632175618
