15
Coordinates from ORCA-job run
  C   0.83434736737073      0.08624784025097      0.34963255897344
  C   -0.59379316346528      0.43377260500745     -0.10201356471845
  Cl  1.17534136809078      0.80581553146266      1.92926640969867
  H   -0.65995268696864      1.52599517222573     -0.07596499144880
  C   1.05978241991725     -1.35040503834137      0.39309255463859
  N   1.16327658068773     -2.51979867010632      0.45858767998295
  N   1.81993591898349      0.72437161223346     -0.65557248974384
  O   2.69294546869763      0.00345121807604     -1.11432864457563
  O   1.62195502603655      1.90649276071631     -0.88868017199234
  C   -1.66519313210957     -0.19792422841395      0.78913218527124
  H   -1.60008454701684     -1.28696000723271      0.76298245437165
  H   -1.55836944944296      0.14499055060186      1.81811808186159
  H   -2.65090225705367      0.09651691457061      0.42639543579302
  C   -0.75012155149952     -0.00243907158797     -1.49175994383532
  N   -0.88816736222768     -0.37012718946276     -2.59888755427676
