15
Coordinates from ORCA-job run
  C   0.83021186501748      0.08027947810102      0.35952290561539
  C   -0.59039202742432      0.43818833761901     -0.10753841309035
  Cl  1.15791278396305      0.79186498032039      1.94553700739159
  H   -0.65049535351727      1.53075139311127     -0.07968541435757
  C   1.04525139684514     -1.35808976976715      0.40005131985595
  N   1.14006999853766     -2.52844974235756      0.46250152994889
  N   1.83233205402821      0.71501774778403     -0.63115840463607
  O   2.70918911054565     -0.00915276110698     -1.07740959746528
  O   1.64230584102398      1.89796724407652     -0.86700452441797
  C   -1.67589141129308     -0.18956832569889      0.76896993995533
  H   -2.65551661671186      0.11318665144299      0.39656041077399
  H   -1.61787950170189     -1.27890259991898      0.73942114408926
  H   -1.57839169118028      0.14865501446882      1.80045478207984
  C   -0.73190333768919      0.00652628604810     -1.50041777777620
  N   -0.85580311044328     -0.35927393412260     -2.60980490796680
