15
Coordinates from ORCA-job run
  C   0.87936316986590      0.32495384868890      0.43940610495966
  C   -0.63668412863151      0.51318371562935      0.20094465397135
  Cl  1.65147210199551      1.86397931820363      0.79259646992299
  H   -1.01570956665372      0.96059529642469      1.12730917618541
  C   1.11048640022466     -0.60895223869066      1.53374154732566
  N   1.25833970383319     -1.31928694548872      2.45867183656354
  N   1.48593081821393     -0.28211513064132     -0.84659972513062
  O   1.48716323238530     -1.50664963970711     -0.88423683621091
  O   1.83177159214222      0.49456391659073     -1.71951353520998
  C   -1.37561310278102     -0.80084215606486     -0.07367405860681
  H   -1.07060934664722     -1.23973771454946     -1.02330953375420
  H   -1.19118326159294     -1.52132450116287      0.72445258711071
  H   -2.44652467979660     -0.59712829152410     -0.11793699292545
  C   -0.86277216392891      1.47542682442426     -0.87902681204722
  N   -1.10543076862880      2.24333369786754     -1.73382488215412
