15
Coordinates from ORCA-job run
  C   0.90296058465236      0.20440913609669     -0.11179771930568
  C   -0.58834435939153      0.28501125466078      0.28808931468756
  Cl  1.18337021593536      0.74129724598117     -1.75502976183701
  H   -0.62570833352301     -0.00579659922873      1.34415330345078
  C   1.73854018138933      0.95608285591217      0.81573877008752
  N   2.39153671808117      1.58173345290076      1.56709830558643
  N   1.27929859416793     -1.29360663870207      0.04621690848287
  O   1.23722335594457     -1.67988476415002      1.20698172514080
  O   1.51504852038845     -1.94753378856016     -0.95256288879072
  C   -1.47634007399528     -0.65155598514928     -0.53364696766258
  H   -2.51462583368842     -0.51603138445587     -0.22814939828497
  H   -1.20520630769008     -1.69350531937379     -0.35593408091545
  H   -1.39701783302883     -0.43609446729100     -1.59913352966795
  C   -1.02858251584450      1.67499077529447      0.18163401123187
  N   -1.41315291339755      2.78048422606489      0.08634200779653
