15
Coordinates from ORCA-job run
  C   0.90625110028782      0.29750336010216      0.41028069537176
  C   -0.61042767096858      0.53337549676916      0.22943432830762
  Cl  1.75077912628451      1.81177277599102      0.70528693246845
  H   -0.94800322683034      0.95866411055912      1.18201360927122
  C   1.14271991167935     -0.62551137664921      1.51270673755853
  N   1.27722646352513     -1.32959773873273      2.44451899710625
  N   1.43639331694094     -0.34818192555833     -0.88792686206695
  O   1.49347593870798     -1.57156535205294     -0.87778640952441
  O   1.67029256248213      0.40509933238114     -1.81766820063388
  C   -1.38095421870103     -0.75952750038309     -0.05911106864594
  H   -1.11508405880582     -1.17236308237839     -1.03258744404895
  H   -1.18232264889690     -1.50766096483216      0.70992569623213
  H   -2.44941839475993     -0.53895064499307     -0.06274834103292
  C   -0.85865644170110      1.53125187792516     -0.81221894112579
  N   -1.13227175924415      2.31369163185214     -1.64411972923711
