15
Coordinates from ORCA-job run
  C   0.87717515719923      0.28603943073183      0.13522265375756
  C   -0.62830979385938      0.00108598408017      0.34164082889549
  Cl  1.15947445977396      1.75786078061372     -0.77130043770512
  H   -0.67502182949130     -0.89242634323035      0.97461568281222
  C   1.58509633721078      0.33176829991197      1.40782268238647
  N   2.13352257468292      0.38103272984931      2.44658931031443
  N   1.41487004594467     -0.94638341230408     -0.64196262223353
  O   1.37228552675190     -1.98147987526176      0.01007352767509
  O   1.76090897707520     -0.80431885984693     -1.79989322401781
  C   -1.36938288773437     -0.26107574652928     -0.97104975106879
  H   -2.42839044755605     -0.41179148367719     -0.75804036358428
  H   -0.99025334252907     -1.16330722221963     -1.45356467277791
  H   -1.26950332650686      0.58159855095641     -1.65500486241452
  C   -1.21964144176461      1.11535891310538      1.08025392299669
  N   -1.72383000919703      2.00703825382044      1.65459732496401
