15
Coordinates from ORCA-job run
  C   0.89296363126827      0.19322594384798     -0.18572214679516
  C   -0.57197737949489      0.31275722028635      0.29425558173406
  Cl  1.06867218450691      0.55890869528799     -1.88948230195207
  H   -0.54338245016490      0.13088215631187      1.37468127913697
  C   1.77885309891911      1.03646466144941      0.60654768163250
  N   2.47770643238700      1.73402985529821      1.24504230954297
  N   1.28920023719793     -1.28032035713221      0.10091943119214
  O   1.46735580363347     -2.03318601236985     -0.83831709391959
  O   1.32110214587166     -1.54564226041148      1.29552392698583
  C   -1.50115338406094     -0.70358857507095     -0.37272708191493
  H   -1.49182676411343     -0.59399717336778     -1.45703843236691
  H   -1.20931761104181     -1.72211085020087     -0.11217246016721
  H   -2.51916504283725     -0.54210932073931     -0.01609423688795
  C   -1.02864569419040      1.68365821707983      0.07266873640611
  N   -1.42938520788074      2.77102779973082     -0.11708519262675
