15
Coordinates from ORCA-job run
  C   0.82560028311145      0.11821600707678      0.36147725965105
  C   -0.60757735549178      0.41182238725170     -0.11257064679984
  Cl  1.11839849758719      0.85819350338574      1.94139960413711
  H   -0.71287429258304      1.50111921517505     -0.09531883901566
  C   1.10062454138886     -1.30931487389765      0.41696057075472
  N   1.24402403818529     -2.47405907346242      0.49031332358752
  N   1.80127707945751      0.78529018504699     -0.63387374910952
  O   1.56659314720156      1.95946332878047     -0.87370353832537
  O   2.70219752573627      0.09206205949323     -1.08136199571597
  C   -1.66894993212990     -0.25206615739258      0.76664292151797
  H   -2.65897705424033      0.00961287240652      0.39030148422466
  H   -1.56817257190539     -1.33859749078397      0.74480601876981
  H   -1.58660382963958      0.09708177939072      1.79589877465143
  C   -0.72616073017601     -0.03870295063771     -1.50158062077727
  N   -0.83039934650211     -0.42112079183288     -2.60739056755062
