15
Coordinates from ORCA-job run
  C   0.88884364166783      0.27053541728957      0.38940202485562
  C   -0.61825944056434      0.53163369592678      0.21623705034487
  Cl  1.78704540195701      1.77604875905315      0.61823520672275
  H   -0.95024534126470      0.90258916190589      1.19403951377574
  C   1.10699173978622     -0.61117296583328      1.53063720610353
  N   1.20753850534373     -1.29591036883409      2.48090137943254
  N   1.46984392923081     -0.41317684830159     -0.86275626261553
  O   1.05121888518188     -0.00054179191983     -1.93314696364278
  O   2.31472423221028     -1.27674559385722     -0.67318631343224
  C   -1.38749446372080     -0.75079929422470     -0.12045139599341
  H   -2.45765186691336     -0.54197534732185     -0.09401615119165
  H   -1.17424326519283     -1.53211331677100      0.61155951085734
  H   -1.13584426425337     -1.10682225108054     -1.11941631887150
  C   -0.89486134599173      1.59413187687602     -0.75141451378303
  N   -1.20760634747664      2.45431886709268     -1.48662397256228
