15
Coordinates from ORCA-job run
  C   0.82858268518585      0.06805616391754      0.36621078200585
  C   -0.60265060266330      0.42866287624698     -0.06519038703700
  Cl  1.13944946472080      0.63576761330659      2.01259909804301
  H   -0.69260533536644      1.51147923872351      0.06706446282772
  C   1.08459041279799     -1.36089689942371      0.27046480893181
  N   1.21573208233171     -2.52822142110997      0.21882782694071
  N   1.80920351588374      0.82208582376539     -0.56032553250290
  O   1.58724291630175      2.01697818787628     -0.67953613304679
  O   2.70138157427181      0.16788976919391     -1.07852015141483
  C   -1.66845093787337     -0.30871207165466      0.74761510117627
  H   -1.58001134826220     -0.06335583176167      1.80585350330230
  H   -2.65677201742875     -0.00201127697341      0.40249265649995
  H   -1.57863107135091     -1.38865852759900      0.61902164364911
  C   -0.73553798422987      0.12933780218710     -1.49305965665059
  N   -0.85152335431882     -0.12740144669488     -2.63351802272462
