15
Coordinates from ORCA-job run
  C   0.82833837315205      0.41958611337075     -0.08613259899674
  C   -0.56911541399969      0.00872047951151      0.43195556697607
  Cl  0.74277875389861      1.63219785488183     -1.34695357984005
  H   -0.38372010575065     -0.69235488987889      1.25378061126825
  C   1.67972521625837      0.88109496095806      1.00276105131895
  N   2.34388562537901      1.26395289606396      1.89419707461806
  N   1.45501825429988     -0.89273288367490     -0.63031203151720
  O   1.66748922784749     -1.72243451959497      0.24415619962009
  O   1.62081546577173     -1.00999795554106     -1.83008373578235
  C   -1.42424487363459     -0.67166926690928     -0.63910901995016
  H   -2.40493473574369     -0.89955302647824     -0.21955835501560
  H   -0.96724674957636     -1.60973340105074     -0.95834990032495
  H   -1.55912175827033     -0.02454969010433     -1.50571652882138
  C   -1.23308710130513      1.18997002383397      0.98042492736109
  N   -1.79658017832670      2.12650330461235      1.40994031908593
