15
Coordinates from ORCA-job run
  C   0.88409361475142      0.28015351134450      0.10185432297418
  C   -0.64451150830337      0.12965999279011      0.27830860592671
  Cl  1.30075238537765      1.38366087232710     -1.19267094908995
  H   -0.77763579007250     -0.52271897429709      1.14899842992554
  C   1.51994448951564      0.69502210611971      1.34557364863066
  N   2.00902880759749      1.04323473332912      2.35652515142893
  N   1.39318578802989     -1.15225134480078     -0.21499425051638
  O   1.25763581662537     -1.92944372085669      0.72079037887710
  O   1.80817860921023     -1.39327115838287     -1.33318121901630
  C   -1.32617222039604     -0.49592524981056     -0.94029820789307
  H   -2.40053657241375     -0.54553880622892     -0.75937423808176
  H   -0.96427997813044     -1.51179698300642     -1.10585007861353
  H   -1.15220075650124      0.09760821863689     -1.83762589303870
  C   -1.21151567154131      1.43878766284508      0.59796307609439
  N   -1.69696701374904      2.48181913999080      0.83398122239217
