15
Coordinates from ORCA-job run
  C   0.89259626074946      0.31504514106796      0.42729542632414
  C   -0.62568179310676      0.52129363184858      0.22099968761949
  Cl  1.68726761287601      1.84329162355592      0.77941832619273
  H   -0.98104985289852      0.96360775102864      1.15911491905236
  C   1.13343064722809     -0.63114869893994      1.50871424167713
  N   1.27518383674050     -1.35836814438531      2.42140881053979
  N   1.46845287224689     -0.28574047799020     -0.87575011561866
  O   1.46340770811085     -1.50986722025909     -0.92188633403606
  O   1.79954723474985      0.49623016639013     -1.74953819113095
  C   -1.38316038499455     -0.78297167770405     -0.05079683358358
  H   -2.45248693438119     -0.56797550213441     -0.07495455242207
  H   -1.09933473727142     -1.21677334600208     -1.00933808742253
  H   -1.19228558280042     -1.51168975675011      0.73826308240555
  C   -0.86459872308067      1.49122089417457     -0.84899732976473
  N   -1.12128816416813      2.23384561609940     -1.72195304983262
