15
Coordinates from ORCA-job run
  C   0.82822371737257      0.10722117837800      0.35690003639914
  C   -0.59607183078975      0.42492563614920     -0.12782249050214
  Cl  1.14218060887681      0.89128452673506      1.91130038396869
  H   -0.67119268136277      1.51667373744637     -0.14739636801079
  C   1.06306207960355     -1.32489614447390      0.45976858465419
  N   1.17354066660975     -2.48996485117225      0.57390620024226
  N   1.82387451652688      0.71268350110525     -0.65833462351641
  O   1.61758811059003      1.88132475159231     -0.94614267271397
  O   2.71300743901988     -0.01723757232009     -1.06961400517066
  C   -1.67508272269981     -0.17911962383428      0.77318207602256
  H   -2.65774287276186      0.09441927292087      0.38643535085750
  H   -1.58427285579626      0.20431672820429      1.78930810389959
  H   -1.60264124772116     -1.26787555338060      0.79055821476663
  C   -0.72856636512399     -0.06932334032805     -1.50053124377039
  N   -0.84490656234388     -0.48643224702216     -2.59251754712619
