15
Coordinates from ORCA-job run
  C   0.86817189364110      0.33307077901381      0.46046345791490
  C   -0.64517464786438      0.50776170610752      0.19824482908512
  Cl  1.61794118172080      1.87712279274751      0.83982760854311
  H   -1.04431813204375      0.93951776797669      1.12368909706222
  C   1.09096991924188     -0.60859604073800      1.54969404336806
  N   1.22689091120948     -1.33546257412090      2.46355478206714
  N   1.50397622647551     -0.25606198199302     -0.82040618072920
  O   1.52765552516254     -1.47997849138938     -0.86511234850029
  O   1.84807065221480      0.53241901941664     -1.68323352272989
  C   -1.36446031229556     -0.81109824241976     -0.10419507517725
  H   -2.43639221336370     -0.61826380800884     -0.16754163560990
  H   -1.18767683281212     -1.53769288581313      0.69012359442031
  H   -1.03650471583620     -1.23661121234287     -1.05231515331194
  C   -0.86476314880223      1.47683947448305     -0.87691464867687
  N   -1.10438630664817      2.21803369708069     -1.75587884772553
