19

C	-0.520876	-0.040941	-1.448148
C	0.0	0.0	0.0
F	-0.021725	1.12742	-2.034772
H	1.090487	0.0	0.0
C	0.049826	-1.196581	-2.245858
H	-0.153405	-1.010255	-3.303732
H	1.128673	-1.252121	-2.088102
H	-0.398117	-2.149637	-1.963218
C	-2.031873	0.060459	-1.51966
H	-2.517404	-0.787693	-1.0314
H	-2.351475	0.985524	-1.036592
H	-2.343134	0.090154	-2.566882
N	-0.423254	-1.301111	0.676974
O	-1.411862	-1.26601	1.420233
O	0.216187	-2.317377	0.426803
N	-0.475302	1.142445	0.712991
H	0.232885	1.424994	1.37864
H	-1.332478	0.923182	1.204594
Br	3.517427	0.0	0.0
