14

C	0.0	0.0	0.0
C	-0.340085	-0.171724	-1.510276
Cl	1.829172	0.0	0.0
H	0.312428	0.560337	-2.003458
N	-0.472512	1.274541	0.432403
H	-1.509188	1.078876	0.406244
H	-0.171819	1.420457	1.390689
C	-0.388821	-1.164838	0.815683
N	-0.559205	-2.082847	1.528481
C	-1.704528	0.132033	-1.991131
N	-2.481846	0.394172	-2.838845
C	0.059794	-1.500399	-1.988946
N	0.397165	-2.544954	-2.40867
F	-2.564758	0.0	0.0
