14

C	0.0	0.0	0.0
C	-0.356064	-0.089527	-1.510927
Cl	1.829203	0.0	0.0
H	0.359782	0.584715	-1.994769
N	-0.447545	1.259418	0.503666
H	-1.4841	1.088086	0.491792
H	-0.124772	1.354585	1.461225
C	-0.400287	-1.188681	0.771117
N	-0.561602	-2.119242	1.47141
C	-1.685438	0.374203	-1.958222
N	-2.438128	0.782104	-2.769119
C	-0.094348	-1.433794	-2.034849
N	0.140129	-2.493966	-2.482273
F	-2.537015	0.0	0.0
