14

C	0.0	0.0	0.0
C	-0.621165	-0.000543	-1.404207
Cl	1.777003	0.0	0.0
H	-1.762795	-0.025346	-1.04238
N	-0.494993	1.161589	0.678961
H	-1.522151	1.012038	0.654434
H	-0.174063	1.145545	1.640733
C	-0.361706	-1.281433	0.659278
N	-0.603753	-2.287961	1.216342
C	-0.269715	-1.176068	-2.179763
N	-0.008248	-2.129464	-2.817031
C	-0.315624	1.223733	-2.125864
N	-0.102559	2.187319	-2.764709
F	-2.757849	0.0	0.0
