14

C	0.0	0.0	0.0
C	-0.487305	-0.200704	-1.47539
Cl	1.835094	0.0	0.0
H	0.405596	-0.367148	-2.090833
N	-0.439922	1.252861	0.514742
H	-0.125268	1.33508	1.476347
H	-1.481085	1.085075	0.483499
C	-0.345852	-1.17334	0.827454
N	-0.478306	-2.078553	1.56645
C	-1.136591	0.998551	-2.011376
N	-1.587321	1.916281	-2.588104
C	-1.349361	-1.370251	-1.677729
N	-1.878476	-2.351922	-2.047594
F	-2.516106	0.0	0.0
