14

C	0.0	0.0	0.0
C	-0.380292	0.179713	-1.50041
Cl	1.781498	0.0	0.0
H	0.29538	-0.478828	-2.060021
N	-0.486389	1.079603	0.790003
H	-0.199381	0.936998	1.75296
H	-1.522863	0.913558	0.694438
C	-0.399672	-1.357314	0.435388
N	-0.585407	-2.44994	0.828614
C	-0.055598	1.550599	-1.921272
N	0.218368	2.613876	-2.337287
C	-1.738389	-0.172785	-1.968234
N	-2.493546	-0.471818	-2.824005
F	-2.587541	0.0	0.0
