14

C	0.0	0.0	0.0
C	-0.40722	-0.172858	-1.495422
Cl	1.82934	0.0	0.0
H	0.417638	0.261246	-2.07269
N	-0.428247	1.290408	0.445304
H	-0.091889	1.431743	1.392696
H	-1.464527	1.131431	0.451965
C	-0.394182	-1.133693	0.853889
N	-0.547633	-2.011014	1.621668
C	-1.60786	0.554161	-1.945984
N	-2.290129	1.165268	-2.685995
C	-0.488109	-1.585442	-1.874533
N	-0.501538	-2.708894	-2.217769
F	-2.513758	0.0	0.0
