14

C	0.0	0.0	0.0
C	-0.361772	-0.296407	-1.483456
Cl	1.829216	0.0	0.0
H	0.366432	0.284485	-2.060885
N	-0.446995	1.317269	0.324813
H	-0.126678	1.544841	1.260875
H	-1.483342	1.146803	0.333617
C	-0.399544	-1.071988	0.927988
N	-0.562595	-1.899633	1.747345
C	-1.681378	0.135219	-1.985889
N	-2.418945	0.491819	-2.833944
C	-0.134235	-1.708082	-1.810111
N	0.073615	-2.826237	-2.104423
F	-2.538126	0.0	0.0
