18

C	-0.467822	-0.029116	-1.420274
C	0.0	0.0	0.0
F	-1.838033	-0.175557	-1.552252
H	1.09495	0.0	0.0
N	-0.13309	1.299643	-2.103763
O	1.010019	1.419747	-2.522227
O	-1.017802	2.147123	-2.124198
C	0.160046	-1.094563	-2.218311
N	0.56645	-1.994808	-2.853621
C	-0.437062	-1.281392	0.703154
H	-0.101318	-2.167045	0.156252
H	0.055243	-1.309705	1.67844
H	-1.521751	-1.346162	0.850452
C	-0.475038	1.245346	0.736118
H	-0.164224	1.153479	1.780086
H	-1.561482	1.387727	0.704384
H	0.0108	2.14143	0.343255
F	2.581913	0.0	0.0
