18

C	-0.424011	0.007558	-1.444258
C	0.0	0.0	0.0
F	0.052993	1.104973	-2.100167
H	1.096908	0.0	0.0
N	0.137719	-1.210573	-2.184169
O	-0.495704	-2.255586	-2.041331
O	1.161368	-1.055181	-2.82946
C	-1.890033	-0.022224	-1.643819
N	-3.061125	0.031994	-1.728732
C	-0.483543	-1.229457	0.754073
H	-1.573366	-1.359189	0.730418
H	-0.014772	-2.13832	0.37657
H	-0.174324	-1.118923	1.796556
C	-0.47797	1.287151	0.662201
H	-0.136727	2.160779	0.104618
H	-0.021388	1.340011	1.653169
H	-1.569102	1.337303	0.777277
F	2.590115	0.0	0.0
