18

C	-0.342994	0.009834	-1.457284
C	0.0	0.0	0.0
F	0.195214	-1.059642	-2.109732
H	1.097675	0.0	0.0
N	-1.867471	-0.127485	-1.654552
O	-2.315632	-1.252588	-1.84744
O	-2.531296	0.895046	-1.493006
C	0.055774	1.241113	-2.160225
N	0.391119	2.218291	-2.71819
C	-0.471444	-1.280924	0.671336
H	-1.557307	-1.313301	0.834638
H	-0.17993	-2.156536	0.089187
H	0.027607	-1.352019	1.641434
C	-0.451234	1.2502	0.735361
H	-0.024822	1.214802	1.741779
H	-1.541129	1.339875	0.819274
H	-0.063288	2.152936	0.257199
F	2.573396	0.0	0.0
