14
Coordinates from ORCA-job run
  C   0.52793913856448      0.36248601791352      0.28527545644634
  C   -0.99302517821394      0.11358876106365      0.29664718547238
  Br  1.07137636424376      1.27163037545469      1.86580953652208
  H   -1.45372819370288      1.07307868590474      0.55714403143332
  N   1.28854793570339     -0.95621075802852      0.09335435331583
  O   2.26069885054913     -1.18206549764174      0.78949169598397
  O   0.82084866401488     -1.64589225247822     -0.80427923995266
  N   0.88783976496195      1.23347574103394     -0.92153187866951
  O   1.96070100569851      1.00694275002601     -1.45746754892411
  O   0.07328705981632      2.10461611355125     -1.18872543368996
  C   -1.30965452102171     -0.86841722976673      1.33660453134355
  N   -1.55181514438401     -1.65227331234608      2.17700023432399
  C   -1.53842293412182     -0.29325995594648     -1.00263126080961
  N   -2.04359281210806     -0.56769943874001     -2.02669166279560
