14
Coordinates from ORCA-job run
  C   0.60770772063048      0.04190450833550      0.34780146741838
  C   -0.85301718563079     -0.44761534758567      0.39944025575413
  Br  1.36300173596509      0.08525165423402      2.09366672041215
  H   -0.84570149367822     -1.35555676623259      1.01266303653721
  N   1.43113654532419     -0.92041245643937     -0.51289439135111
  O   2.31976005593679     -0.42562257772622     -1.18752665335144
  O   1.13635357612385     -2.10020054360045     -0.39049441143250
  N   0.69548861672131      1.40735684706175     -0.34671304146333
  O   0.03064828652437      1.46064427258581     -1.37392672916249
  O   1.40802232197669      2.26755166551229      0.13571187645718
  C   -1.40543495634150     -0.80885364904035     -0.91025453707229
  N   -1.88815834066311     -1.16253597285745     -1.92061493390435
  C   -1.67550692580140      0.56956704940871      1.05909703445315
  N   -2.32529995708774      1.38852131634402      1.59404430670530
