14
Coordinates from ORCA-job run
  C   0.51179994759322      0.38904483767332      0.28309255843242
  C   -0.99964576026748      0.08674576407285      0.28101601120458
  Br  1.00040725753341      1.36216515688517      1.84312680411677
  H   -1.49746199430177      1.03518555258345      0.51175168230292
  N   1.32141405384610     -0.90691270284518      0.14105140337049
  O   0.87831493658955     -1.65052647863568     -0.72546453584728
  O   2.30385246643703     -1.06593390679330      0.84109106355586
  N   0.85565901191882      1.23625174427558     -0.94580894300484
  O   0.02038462762356      2.07883757266668     -1.23858125952147
  O   1.93384142038736      1.01935402423876     -1.47472877755789
  C   -1.29803907117476     -0.87942772016447      1.34098025135458
  N   -1.53092058019710     -1.64748350027155      2.19843132200101
  C   -1.51107366135889     -0.37053822366205     -1.01518229694366
  N   -1.98853265462907     -0.68576212002357     -2.04077528346349
