14
Coordinates from ORCA-job run
  C   0.61382011292198      0.02135572325912      0.33776122689191
  C   -0.85215088643470     -0.45101227135844      0.39501189149922
  Br  1.39712330494964     -0.01019281870448      2.07145380581106
  H   -0.84604864368259     -1.38445852487126      0.96871218518222
  N   1.41291569261950     -0.91776029507621     -0.56990835191636
  O   1.09272091601697     -2.09546686006369     -0.50278538426290
  O   2.31224450582938     -0.41090178584567     -1.22097642116859
  N   0.70710965325570      1.40999841533370     -0.30811233877885
  O   0.05692144612247      1.49443000668686     -1.34257772154576
  O   1.40540156417408      2.25801043366031      0.21520293137919
  C   -1.43232423743270     -0.74933762311520     -0.91837768742652
  N   -1.93390117029506     -1.05534698406743     -1.93521054934299
  C   -1.64992782967757      0.54572051719135      1.11348759080001
  N   -2.28390442836712      1.34496206697102      1.69531882287834
