14
Coordinates from ORCA-job run
  C   0.50087072798787      0.21146321914754      0.24018699450862
  C   -0.91330067853922     -0.32060161144815     -0.04817186109958
  Br  0.66137425082969      1.03696939354136      1.93173618593117
  H   -0.86103251992200     -0.86826413271779     -0.99602451244751
  N   1.53110897712413     -0.91664467158554      0.10351103313362
  O   2.69582100002933     -0.56846672938775      0.20869318236478
  O   1.09428372136951     -2.03694900055357     -0.12304043298170
  N   0.86361057153692      1.16214508044090     -0.92340872490928
  O   0.81026792405584      0.60044629640705     -2.01190406329582
  O   1.14764605012860      2.31874334612156     -0.68231948150054
  C   -1.82689922729507      0.81522808495228     -0.20193818543005
  N   -2.54600974602698      1.73295358883465     -0.34398592188619
  C   -1.37653840184744     -1.22521977151998      1.00443835715137
  N   -1.78120264943119     -1.94280309223257      1.84122743046112
