15

C	0.0	0.0	0.0
C	-0.275076	0.076158	-1.546712
Br	1.923835	0.0	0.0
H	0.411326	-0.665238	-1.966027
H	-0.292481	0.855978	0.592397
N	-0.61211	-1.192273	0.585866
O	-0.607096	-2.213888	-0.151728
O	-0.635391	-1.249294	1.835155
C	0.161463	1.392548	-2.024306
N	0.436301	2.462569	-2.425419
C	-1.644009	-0.227483	-2.175719
H	-1.480579	-0.337986	-3.258863
H	-2.021231	-1.163981	-1.771574
H	-2.365703	0.567368	-2.004756
H	-1.993387	0.0	0.0
