15

C	0.0	0.0	0.0
C	-0.534518	-0.050488	-1.543116
Br	1.913775	0.0	0.0
H	-1.425455	-0.064178	-1.482757
H	-0.436324	0.860265	0.460932
N	-0.454235	-1.084122	0.78164
O	-1.577701	-1.217974	1.078371
O	0.304906	-2.209147	1.116402
C	-0.127494	-1.268097	-2.25144
N	0.173198	-2.204478	-2.817606
C	-0.116333	1.303977	-2.250262
H	-0.52952	2.091674	-1.66296
H	-0.736926	1.330633	-3.204197
H	0.934161	1.492471	-2.516328
H	-2.019038	0.0	0.0
