15

C	0.0	0.0	0.0
C	-0.456674	0.007081	-1.511341
Br	1.913893	0.0	0.0
H	-1.578213	-0.071696	-1.516749
H	-0.41768	0.885552	0.522456
N	-0.44738	-1.14427	0.841439
O	0.244792	-2.262529	0.816889
O	-1.812504	-1.184044	1.085708
C	-0.125582	-1.223301	-2.214962
N	0.141189	-2.203032	-2.806971
C	-0.198876	1.295755	-2.260154
H	-0.766256	1.302151	-3.194008
H	0.867207	1.391947	-2.436935
H	-0.553946	2.123043	-1.6225
H	-1.657781	0.0	0.0
