15

C	0.0	0.0	0.0
C	-0.427826	-0.031772	-1.476428
Br	1.92725	0.0	0.0
H	-1.476306	-0.382368	-1.406084
H	-0.38292	0.855065	0.541176
N	-0.477654	-1.226514	0.734484
O	-0.361753	-1.189633	1.961649
O	-0.835432	-2.19619	0.080564
C	0.393921	-0.917199	-2.300439
N	1.043988	-1.572165	-3.025545
C	-0.45531	1.382956	-2.04403
H	-0.764206	1.360478	-3.091969
H	0.524719	1.863954	-1.981066
H	-1.196629	1.950652	-1.472222
H	-2.538747	0.0	0.0
