15

C	0.0	0.0	0.0
C	-0.369851	0.016321	-1.544196
Br	1.913843	0.0	0.0
H	-1.476847	-0.051392	-1.491201
H	-0.483419	0.886303	0.464458
N	-0.472532	-1.171044	0.566821
O	-1.716412	-1.008404	1.296569
O	0.285638	-2.153919	1.006271
C	-0.01714	-1.236438	-2.241843
N	0.232286	-2.195247	-2.846088
C	-0.108501	1.304458	-2.29376
H	0.943788	1.473141	-2.48967
H	-0.668606	1.321165	-3.228309
H	-0.500804	2.104275	-1.648798
H	-2.073429	0.0	0.0
