15

C	0.0	0.0	0.0
C	-0.278855	0.076838	-1.546068
Br	1.923652	0.0	0.0
H	0.388433	-0.682538	-1.964571
H	-0.289817	0.858171	0.590908
N	-0.633203	-1.184539	0.582333
O	-0.633638	-2.206756	-0.156812
O	-0.658313	-1.244117	1.832353
C	0.179495	1.381079	-2.036481
N	0.46681	2.441998	-2.452585
C	-1.659534	-0.198272	-2.164294
H	-2.052975	-1.127724	-1.759335
H	-2.363025	0.611705	-1.986078
H	-1.508469	-0.309162	-3.248947
H	-1.989402	0.0	0.0
