16

C	-0.328438	-0.188758	-1.47076
C	0.0	0.0	0.0
F	-1.556269	-0.802035	-1.675563
H	1.090468	0.0	0.0
H	-0.34044	-0.918426	0.498932
N	-0.453625	1.181741	-2.108053
O	-1.566744	1.57033	-2.447925
O	0.587451	1.817368	-2.218941
C	0.774507	-0.958424	-2.159869
H	0.703365	-1.99909	-1.830191
H	1.73026	-0.560417	-1.797394
H	0.675672	-0.92084	-3.247657
N	-0.559078	1.221657	0.566657
H	0.163246	1.660818	1.119845
H	-1.350863	1.028289	1.163963
F	2.720584	0.0	0.0
