16

C	-0.331213	0.000433	-1.471584
C	0.0	0.0	0.0
F	-1.675838	-0.258659	-1.73191
H	1.097708	0.0	0.0
H	-0.436172	0.873547	0.490894
N	-0.16152	1.425742	-1.999684
O	-0.853351	2.288994	-1.45975
O	0.600882	1.631746	-2.939697
C	0.556763	-0.952109	-2.215605
H	0.295637	-1.950464	-1.863355
H	0.425995	-0.880871	-3.2956
H	1.582345	-0.727921	-1.905557
N	-0.412551	-1.285438	0.576652
H	-1.227529	-1.181491	1.163566
H	0.35907	-1.614422	1.142266
F	2.696525	0.0	0.0
