16

C	-0.259318	-0.012236	-1.48715
C	0.0	0.0	0.0
F	-0.044094	-1.275864	-1.979551
H	1.093504	0.0	0.0
H	-0.373039	0.946875	0.398112
N	-1.713493	0.306239	-1.809408
O	-2.404206	-0.527776	-2.382544
O	-2.103687	1.418681	-1.454719
C	0.666765	0.950274	-2.18924
H	0.390282	1.974401	-1.946284
H	1.662813	0.735081	-1.776545
H	0.625296	0.798992	-3.272042
N	-0.669628	-1.132747	0.652072
H	-0.772387	-0.899824	1.631484
H	-0.016039	-1.903685	0.625381
F	2.738056	0.0	0.0
