16

C	-0.255003	0.009821	-1.4879
C	0.0	0.0	0.0
F	-0.002749	-1.2322	-2.009495
H	1.093487	0.0	0.0
H	-0.371072	0.941032	0.412199
N	-1.71683	0.285635	-1.801669
O	-2.372489	-0.547011	-2.417668
O	-2.151527	1.361808	-1.392549
C	0.645453	1.014552	-2.164942
H	1.644855	0.803912	-1.760867
H	0.610391	0.887091	-3.249213
H	0.349082	2.029663	-1.896959
N	-0.645541	-1.153946	0.635893
H	0.075785	-1.85466	0.760296
H	-0.940246	-0.885101	1.565247
F	2.730672	0.0	0.0
