16

C	-0.261017	-0.172006	-1.487426
C	0.0	0.0	0.0
F	-1.554421	-0.628692	-1.758923
H	1.091011	0.0	0.0
H	-0.47256	0.912227	0.369119
N	-0.228833	1.208008	-2.127658
O	0.734576	1.512304	-2.826378
O	-1.181495	1.945936	-1.878707
C	0.761607	-1.074598	-2.12308
H	1.742347	-0.75707	-1.745802
H	0.565939	-2.087522	-1.765147
H	0.703042	-1.058807	-3.212538
N	-0.420861	-1.16697	0.775955
H	-1.215828	-1.62668	0.351772
H	0.357074	-1.813366	0.805018
F	2.70787	0.0	0.0
