16

C	-0.279237	-0.086806	-1.497649
C	0.0	0.0	0.0
F	-1.547322	-0.577684	-1.781132
H	1.090895	0.0	0.0
H	-0.362973	-0.947724	0.415756
N	-0.280861	1.323265	-2.050682
O	0.81158	1.831447	-2.274979
O	-1.363591	1.896499	-2.16762
C	0.788713	-0.902628	-2.182115
H	0.731346	-0.819898	-3.269143
H	0.633204	-1.945935	-1.893129
H	1.752784	-0.576937	-1.773194
N	-0.559458	1.127571	0.723956
H	0.065358	1.916052	0.618726
H	-1.471978	1.387355	0.368475
F	2.718159	0.0	0.0
