18

C	-0.289796	0.058295	-1.51459
C	0.0	0.0	0.0
F	-1.660762	0.293068	-1.698671
H	1.096978	0.0	0.0
N	0.40533	1.145484	-2.164345
H	0.160575	2.01578	-1.705568
H	1.403331	1.003827	-2.011557
C	0.07452	-1.239316	-2.19985
H	-0.552827	-2.052191	-1.833129
H	1.121959	-1.475133	-1.996131
H	-0.07285	-1.116309	-3.273587
C	-0.525191	-1.217294	0.606622
N	-0.987338	-2.175975	1.104742
C	-0.500399	1.222831	0.770433
H	-0.253595	1.118306	1.828266
H	-1.580731	1.341096	0.665558
H	0.000192	2.124147	0.413269
Cl	3.3464	0.0	0.0
