18

C	-0.304175	0.040835	-1.503288
C	0.0	0.0	0.0
F	-1.674645	0.289905	-1.707768
H	1.097779	0.0	0.0
N	0.41813	1.165833	-2.040469
H	0.450756	1.09343	-3.050772
H	1.376028	1.132701	-1.693453
C	-0.001196	-1.278431	-2.189605
H	-0.638808	-2.078552	-1.808484
H	1.047327	-1.535429	-2.019992
H	-0.179287	-1.17147	-3.264311
C	-0.510921	-1.215478	0.621308
N	-0.960571	-2.169102	1.139806
C	-0.511894	1.237068	0.738749
H	-0.165777	1.217575	1.774118
H	-1.60315	1.274202	0.723977
H	-0.121328	2.130125	0.252923
Cl	3.347182	0.0	0.0
