18

C	-0.347327	-0.029369	-1.500886
C	0.0	0.0	0.0
F	-0.107625	1.295582	-1.976813
H	1.097832	0.0	0.0
N	0.518165	-0.961601	-2.121201
H	0.451008	-0.898403	-3.129471
H	1.48131	-0.80242	-1.827736
C	-1.798304	-0.311328	-1.8333
H	-2.080581	-1.304544	-1.484211
H	-2.448084	0.43733	-1.37605
H	-1.934356	-0.261502	-2.917603
C	-0.472414	-1.227754	0.632266
N	-0.892727	-2.179857	1.17785
C	-0.514032	1.228205	0.745956
H	-1.606529	1.284166	0.739283
H	-0.104246	2.12378	0.281941
H	-0.174999	1.189656	1.782976
Cl	3.382031	0.0	0.0
