18

C	-0.314643	0.043881	-1.500652
C	0.0	0.0	0.0
F	-1.68737	0.291833	-1.692208
H	1.09756	0.0	0.0
N	0.401636	1.170945	-2.042224
H	0.427695	1.098224	-3.052654
H	1.36146	1.139595	-1.701852
C	-0.016789	-1.273616	-2.192733
H	1.034537	-1.528166	-2.038503
H	-0.646517	-2.075973	-1.804052
H	-0.210924	-1.165283	-3.264449
C	-0.50977	-1.216275	0.620695
N	-0.959521	-2.177077	1.125709
C	-0.507821	1.236053	0.744085
H	-0.155287	1.21403	1.777218
H	-0.119799	2.130203	0.258322
H	-1.599081	1.273677	0.736087
Cl	3.346186	0.0	0.0
