18

C	-0.422642	-0.055296	-1.473167
C	0.0	0.0	0.0
F	-1.817282	-0.387921	-1.509471
H	1.095519	0.0	0.0
N	-0.222336	1.206828	-2.094546
H	-0.84604	1.897419	-1.697466
H	-0.409031	1.132809	-3.086735
C	0.3194	-1.143288	-2.213678
H	1.392476	-0.960902	-2.130151
H	0.013212	-1.155627	-3.264465
H	0.084976	-2.114176	-1.775457
C	-0.463372	-1.209695	0.679316
N	-0.861959	-2.160597	1.241888
C	-0.497056	1.241337	0.742551
H	-1.5823	1.350456	0.656492
H	-0.237992	1.166156	1.799684
H	0.004575	2.124613	0.34479
Cl	3.403783	0.0	0.0
