18

C	-0.367126	0.146386	-1.496109
C	0.0	0.0	0.0
F	-0.064295	1.471091	-1.82581
H	1.095602	0.0	0.0
N	0.453641	-0.677708	-2.342803
H	0.196456	-1.649772	-2.216906
H	1.424191	-0.578146	-2.042532
C	-1.835874	-0.057899	-1.811458
H	-1.980065	0.105477	-2.879879
H	-2.158857	-1.067856	-1.551828
H	-2.444196	0.659021	-1.256863
C	-0.450297	-1.311675	0.454392
N	-0.874352	-2.349043	0.808266
C	-0.51905	1.108387	0.912374
H	-1.611836	1.129328	0.954873
H	-0.134637	0.960997	1.923199
H	-0.154436	2.066228	0.544307
Cl	3.367907	0.0	0.0
