18

C	-0.424254	0.256797	-1.450818
C	0.0	0.0	0.0
F	0.025922	-0.862341	-2.19084
H	1.097351	0.0	0.0
N	-1.846124	0.368299	-1.572221
H	-2.080597	0.500894	-2.549804
H	-2.272742	-0.501021	-1.2656
C	0.282925	1.458931	-2.037997
H	0.112973	1.476757	-3.11831
H	1.354263	1.368576	-1.846209
H	-0.098123	2.385167	-1.606484
C	-0.524816	-1.29304	0.43193
N	-1.030124	-2.29335	0.787067
C	-0.460409	1.101491	0.960137
H	-0.154493	0.848534	1.976831
H	0.028298	2.040206	0.696669
H	-1.542382	1.236334	0.92601
Cl	3.396507	0.0	0.0
