18

C	0.0	0.0	0.0
C	-0.464484	0.092159	-1.478202
Cl	1.868583	0.0	0.0
H	-1.538837	-0.119728	-1.428717
C	-0.428942	1.241506	0.755656
H	-0.121038	1.124248	1.795672
H	-1.519909	1.309536	0.704717
H	0.030889	2.140977	0.347923
N	-0.454183	-1.155684	0.706664
H	-1.457642	-1.017204	0.844994
H	-0.35294	-1.978449	0.120914
N	0.156608	-1.034385	-2.265377
O	1.058084	-0.768676	-3.053256
O	-0.261242	-2.172047	-2.034006
N	-0.238425	1.311946	-2.183518
H	-0.939325	1.984173	-1.902984
H	0.689636	1.674116	-2.004548
Cl	-3.618382	0.0	0.0
