18

C	0.0	0.0	0.0
C	-0.447517	-0.033315	-1.492811
Cl	1.805456	0.0	0.0
H	-1.532862	-0.181473	-1.418836
C	-0.401692	1.337113	0.630131
H	-1.489613	1.456531	0.584206
H	-0.093678	1.290415	1.67529
H	0.099867	2.172416	0.138076
N	-0.48567	-1.061034	0.81356
H	-1.480246	-0.95811	1.009358
H	-0.324575	-1.96203	0.391358
N	0.127476	-1.271743	-2.138289
O	-0.334824	-2.368355	-1.790775
O	1.061531	-1.12422	-2.926249
N	-0.122481	1.086216	-2.318554
H	-0.770648	1.840835	-2.129915
H	0.828402	1.391243	-2.145818
Cl	-3.643632	0.0	0.0
