18

C	0.0	0.0	0.0
C	-0.462005	0.000967	-1.477647
Cl	1.813409	0.0	0.0
H	-1.550627	-0.130217	-1.432763
C	-0.44685	1.298932	0.651192
H	-1.535624	1.354949	0.583154
H	-0.146596	1.261589	1.699662
H	-0.002481	2.159788	0.158752
N	-0.475334	-1.093867	0.791175
H	-1.483918	-0.947746	0.885689
H	-0.351704	-1.965576	0.290247
N	0.073438	-1.253135	-2.18694
O	0.888512	-1.094802	-3.095926
O	-0.338086	-2.349844	-1.809664
N	-0.111896	1.184081	-2.176321
H	-0.611342	1.231102	-3.054068
H	0.882001	1.194506	-2.367603
Cl	-3.661789	0.0	0.0
