16

C	-0.384027	-0.061236	-1.489743
C	0.0	0.0	0.0
Cl	-0.05818	1.744437	-2.113979
H	1.090141	0.0	0.0
N	0.472523	-0.953951	-2.142851
H	1.433694	-0.837403	-1.821625
H	0.428001	-0.848135	-3.147726
N	-1.750571	-0.37111	-1.679617
H	-2.339147	0.36389	-1.307234
H	-1.958753	-0.498152	-2.662193
N	-0.461521	-1.287515	0.643394
O	0.230381	-2.275604	0.441242
O	-1.500252	-1.255467	1.301512
C	-0.586593	1.117573	0.716756
N	-1.065401	2.012565	1.307855
Cl	3.20726	0.0	0.0
