16

C	-0.436063	0.000951	-1.473663
C	0.0	0.0	0.0
Cl	0.19057	1.582997	-2.166435
H	1.091035	0.0	0.0
N	0.18727	-1.134358	-2.064477
H	1.186867	-1.136028	-1.860771
H	0.0478	-1.135451	-3.067643
N	-1.862028	0.070762	-1.625239
H	-2.102026	0.156168	-2.605326
H	-2.275889	-0.770891	-1.241632
N	-0.457234	-1.304213	0.612796
O	0.385522	-2.172518	0.78542
O	-1.659456	-1.410399	0.869574
C	-0.564615	1.098433	0.764445
N	-0.990423	1.978184	1.414796
Cl	3.228182	0.0	0.0
