16

C	-0.574344	-0.020938	-1.434581
C	0.0	0.0	0.0
Cl	0.279527	-1.23021	-2.428985
H	1.089635	0.0	0.0
N	-1.962244	-0.4345	-1.363808
H	-2.377845	-0.377059	-2.286384
H	-2.467194	0.180128	-0.732529
N	-0.271053	1.268497	-2.021556
H	-0.307428	1.219624	-3.032173
H	-0.921522	1.968631	-1.68128
N	-0.4711	-1.21325	0.753502
O	-1.373391	-1.065918	1.578906
O	0.072142	-2.271162	0.46871
C	-0.506195	1.193131	0.670095
N	-0.934437	2.187542	1.126272
Cl	3.205916	0.0	0.0
