16

C	-0.369401	0.041157	-1.492949
C	0.0	0.0	0.0
Cl	-0.065808	1.803038	-2.002474
H	1.092284	0.0	0.0
N	0.507276	-0.851207	-2.15289
H	0.42327	-0.772101	-3.157958
H	1.475684	-0.698786	-1.866741
N	-1.772149	-0.167087	-1.742343
H	-1.942908	-1.16188	-1.65746
H	-2.002719	0.141941	-2.677656
N	-0.389062	-1.300584	0.673299
O	-0.969343	-2.173907	0.032781
O	-0.067067	-1.385312	1.85307
C	-0.574663	1.070972	0.794755
N	-1.037211	1.935379	1.440769
Cl	3.195339	0.0	0.0
