16

C	-0.234797	-0.006035	-1.536059
C	0.0	0.0	0.0
Cl	-2.012723	-0.150014	-1.856178
H	1.094162	0.0	0.0
N	0.229446	1.276924	-1.978926
H	0.292768	1.23385	-2.990633
H	1.170879	1.414046	-1.61068
N	0.412342	-1.075571	-2.246423
H	0.080527	-1.972625	-1.911937
H	1.404442	-1.020157	-2.010301
N	-0.498458	-1.237971	0.665325
O	-0.038189	-2.30547	0.265503
O	-1.329748	-1.12359	1.562981
C	-0.54569	1.173888	0.655089
N	-0.961239	2.124935	1.204865
Cl	3.1724	0.0	0.0
