16

C	-0.581308	-0.308913	-1.364741
C	0.0	0.0	0.0
Cl	0.264431	-1.654005	-2.151323
H	1.090084	0.0	0.0
H	-0.318671	-0.82856	0.639664
N	-1.966338	-0.614934	-1.307681
H	-2.456066	0.150837	-0.862772
H	-2.339556	-0.725339	-2.242949
N	-0.319176	0.944728	-2.264076
O	-1.309424	1.634699	-2.517746
O	0.829583	1.198747	-2.583419
C	-0.475197	1.333998	0.573305
H	-1.563481	1.422817	0.652528
H	-0.05729	1.442832	1.575996
H	-0.0996	2.170598	-0.018751
Br	3.668115	0.0	0.0
