16

C	-0.32083	0.095395	-1.482112
C	0.0	0.0	0.0
Cl	-2.05762	0.526613	-1.782973
H	1.094766	0.0	0.0
H	-0.305377	0.969055	0.405634
N	0.514488	1.042038	-2.083123
H	1.469398	0.928418	-1.740972
H	0.496832	0.977711	-3.092464
N	-0.204742	-1.310058	-2.178829
O	-0.932995	-2.21323	-1.784473
O	0.615756	-1.405054	-3.086409
C	-0.586996	-1.134769	0.817464
H	-0.357774	-0.949141	1.869859
H	-0.148539	-2.094661	0.548758
H	-1.67071	-1.207127	0.703012
Br	3.563278	0.0	0.0
