16

C	-0.313564	0.118244	-1.479155
C	0.0	0.0	0.0
Cl	-2.077788	0.352894	-1.782029
H	1.096041	0.0	0.0
H	-0.383457	-0.940952	0.394541
N	0.39922	1.120652	-2.198671
H	1.394111	0.990831	-2.006015
H	0.122492	2.026068	-1.838609
N	0.023945	-1.243887	-2.129931
O	-0.52604	-2.22461	-1.640066
O	0.811037	-1.2537	-3.0651
C	-0.470586	1.186764	0.828369
H	-0.092064	1.077011	1.846822
H	-1.559548	1.264744	0.866828
H	-0.064382	2.125225	0.442959
Br	3.562053	0.0	0.0
