16

C	-0.325684	0.23401	-1.47059
C	0.0	0.0	0.0
Cl	-0.089675	1.932286	-1.920474
H	1.094245	0.0	0.0
H	-0.307611	-1.033747	0.203803
N	0.436124	-0.574792	-2.379436
H	0.293998	-1.544628	-2.119588
H	1.416848	-0.360721	-2.195071
N	-1.805139	-0.124748	-1.682185
O	-2.025377	-1.326445	-1.8216
O	-2.662647	0.745538	-1.603257
C	-0.603608	0.954676	1.013457
H	-1.695562	0.989242	0.950245
H	-0.326553	0.630675	2.019307
H	-0.218125	1.964241	0.872718
Br	3.578319	0.0	0.0
