15

C	0.0	0.0	0.0
C	-0.434127	0.147165	-1.48915
F	1.355689	0.0	0.0
H	0.229971	-0.562531	-1.995207
C	-0.501808	1.025866	0.907146
N	-0.810705	1.917271	1.607695
N	-0.398392	-1.386782	0.503904
O	-0.769508	-1.488367	1.665017
O	-0.219063	-2.297328	-0.298343
C	-0.01756	1.497979	-1.904484
N	0.335448	2.571727	-2.221869
N	-1.777431	-0.128455	-1.87477
H	-2.499465	0.332683	-1.31145
H	-1.968994	-1.118946	-1.802372
Br	-4.408571	0.0	0.0
