17
Coordinates from ORCA-job run
  C   0.70030912389472      0.48663402673454     -0.12389410732533
  C   -0.58734359129630     -0.26220673523278      0.29155797356460
  Cl  0.42529791865715      1.49745556823760     -1.57977897653451
  H   -0.34947414150622     -0.78204837458645      1.22302777654278
  C   1.02922276253447      1.38483394674238      0.98551412222840
  N   1.29388378823051      2.06941068525081      1.90338605091104
  C   1.87282924168725     -0.45120353159100     -0.39754187370172
  H   1.66892135216889     -1.06084902952573     -1.27789898714762
  H   2.03547934126145     -1.10873008277681      0.45920430603343
  H   2.77290783570458      0.13628366478728     -0.57996313109023
  N   -0.83434856256326     -1.37144281573409     -0.69006862294372
  O   -1.46194110637886     -1.10128200189414     -1.71015221033208
  O   -0.36254908639146     -2.47174719415172     -0.40363301601138
  C   -1.82027634237028      0.60141401305603      0.44102180812506
  H   -2.65445710334557     -0.00877861598943      0.79240223542432
  H   -2.09512788427388      1.05412128966712     -0.50899791179002
  H   -1.63433354601318      1.38613518700638      1.17681456404698
