17
Coordinates from ORCA-job run
  C   0.67361851156646      0.52581046455596     -0.10737952836032
  C   -0.53318021320826     -0.34530326088598      0.31161328735503
  Cl  0.16865906927996      1.86568134061950     -1.18792000164597
  H   -0.14888369497708     -1.07077754089477      1.03299570920274
  C   1.19871866185429      1.12335540927072      1.12245999482034
  N   1.63004265844979      1.56549882319168      2.12237699780468
  C   1.76983861493766     -0.27421107589404     -0.80554406279598
  H   2.63587100367498      0.36577066986487     -0.97511478568590
  H   1.41177531454555     -0.63956175516604     -1.76805678438539
  H   2.06291689667318     -1.12666913536775     -0.18919990308719
  N   -0.94658999515932     -1.18496436337638     -0.86243871507853
  O   -1.71882611547799     -0.68606017686164     -1.67620264415536
  O   -0.45112413384428     -2.30956412557232     -0.93374188348020
  C   -1.71793856991816      0.41188767450272      0.86946783773330
  H   -1.40538829992222      1.00065890716561      1.73394570997611
  H   -2.14583809522910      1.07183082118658      0.11836197330041
  H   -2.48467161324547     -0.29438267633874      1.19337679848220
