17
Coordinates from ORCA-job run
  C   0.76126861443540      0.17793523094235     -0.57206514333829
  C   -0.69547692446581     -0.31960698415771     -0.41421841838877
  Cl  1.59873295890160     -1.04926127963852     -1.59282157278244
  H   -1.08937063062368     -0.51481385487430     -1.41213630208698
  C   0.76511700918249      1.43611894539484     -1.32119297980885
  N   0.77039143349756      2.46429777638673     -1.89064930095749
  C   1.53790246511242      0.33685822164406      0.72819275458017
  H   1.03332089550738      1.05166125983543      1.37853310094685
  H   1.61766563333389     -0.62372378754190      1.23670577532127
  H   2.54310975275355      0.69600084693760      0.50536028333358
  N   -1.53754274035498      0.81833773570634      0.10000620348136
  O   -2.30567080964337      1.34578129089730     -0.70051755982476
  O   -1.39490773077449      1.13698226352151      1.27953185166832
  C   -0.86212653817593     -1.51432010828651      0.50210305785230
  H   -0.23271695557503     -2.33790101416347      0.16446596582178
  H   -0.60865534465832     -1.25615670722781      1.52892640775070
  H   -1.90204108845268     -1.84618983537595      0.47777587643124
