17
Coordinates from ORCA-job run
  C   0.79228872750767      0.17648449262455     -0.52793581813351
  C   -0.65935069319749     -0.35372695553003     -0.44540790208054
  Cl  1.72429375689239     -1.06483773382265     -1.44382231340232
  H   -0.98160134007097     -0.59625149624530     -1.45854136742849
  C   0.81507424027117      1.40572359251016     -1.32334699186695
  N   0.83554100950827      2.41184293543808     -1.93060405911690
  C   1.47791960139229      0.40490768512087      0.81266308330138
  H   2.48834092941503      0.77707996632410      0.64032904281172
  H   1.54304653604963     -0.53231172983099      1.36528955003492
  H   0.91749340449583      1.13386120640916      1.39858142096382
  N   -1.56008630111568      0.78034137757886     -0.03182706492735
  O   -1.50267520311577      1.14660534200884      1.14101519540217
  O   -2.28467461590522      1.25834843612337     -0.90099034365613
  C   -0.85682333260366     -1.51745953096819      0.50396003367940
  H   -0.68042816583517     -1.21387332688072      1.53449797662199
  H   -1.88360564762929     -1.87982367297741      0.42311427029228
  H   -0.18475290605902     -2.33491058788270      0.24202528750449
