17
Coordinates from ORCA-job run
  C   0.69607445573750      0.08854054844846     -0.66777483759936
  C   -0.74265162702499     -0.34372975454302     -0.29648101750557
  Cl  1.39353129819828     -1.27120530767430     -1.62361726614396
  H   -1.24804608035923     -0.63969190770549     -1.21632144144158
  C   0.63926396757418      1.25293076692560     -1.55387287216483
  N   0.60081019125667      2.20911582712040     -2.23624835333006
  C   1.61458870271465      0.37049926919497      0.51378693090347
  H   1.73356882287112     -0.52820946238562      1.11867680347761
  H   2.59504675234454      0.67181515249158      0.14363846211078
  H   1.19752607599706      1.16922612570273      1.12749288765073
  N   -1.50258937653096      0.87020134519143      0.16942405477922
  O   -1.22459737246085      1.31686128231763      1.28134724906591
  O   -2.34476209019408      1.32633368773756     -0.59983281423552
  C   -0.82740929303851     -1.42074782326036      0.76548412905064
  H   -0.45712750989380     -1.05510180526394      1.72187353755925
  H   -1.86931711267804     -1.72161712708391      0.89237835307502
  H   -0.25390980451355     -2.29622081721370      0.46004619474824
