17
Coordinates from ORCA-job run
  C   0.71129421441119      0.48123751852504     -0.07515570536603
  C   -0.58136983911468     -0.29268982347279      0.27322779298174
  Cl  0.40321255055243      1.73967207178207     -1.31545956600266
  H   -0.31794016861201     -0.97425308069261      1.08596075495564
  C   1.12705444655587      1.16115146994753      1.15385752653449
  N   1.46211885095049      1.66734348448549      2.16016381047342
  C   1.83293916272979     -0.42663023188424     -0.57191029003516
  H   2.74552290200292      0.15678309265677     -0.69526006497551
  H   2.01007080955335     -1.23095974399222      0.14515861249870
  H   1.56440832372101     -0.86290432315974     -1.53398331715883
  N   -0.91688033947035     -1.20516240383135     -0.87127163797423
  O   -0.47359273871477     -2.35171210080826     -0.80606597105499
  O   -1.58305637625264     -0.74279696991646     -1.79321872823266
  C   -1.77280329521854      0.56523939114649      0.63761764730401
  H   -2.07649917889918      1.18608251698495     -0.20227031093887
  H   -2.61104434948769     -0.07381118273705      0.92161045827807
  H   -1.52243497470719      1.20241031496636      1.48799898871286
