17
Coordinates from ORCA-job run
  C   0.77773559474691      0.15448340051540     -0.55661829353233
  C   -0.67870721962475     -0.34960554883672     -0.41791809044400
  Cl  1.65813135699328     -1.11632615541784     -1.48345741409083
  H   -1.03838617190333     -0.60467710832654     -1.41526299305525
  C   0.79381690944353      1.37147726529175     -1.37058498371941
  N   0.80615665162254      2.37013611397390     -1.99033886338139
  C   1.51116523853128      0.39061919466402      0.75698760878431
  H   0.97924892527676      1.13341626662083      1.35194185920568
  H   1.58391873962304     -0.54063640147222      1.31849727127442
  H   2.51950604808489      0.74876726503321      0.54705232316509
  N   -1.54743463425514      0.80584816725967      0.00448663288063
  O   -2.29389032528325      1.27926285006556     -0.84853445102371
  O   -1.44420404917497      1.19255757998953      1.16761421449733
  C   -0.86462141732285     -1.49353415582919      0.55766292927341
  H   -0.64427684086774     -1.17765402361644      1.57610291723488
  H   -0.21993904879500     -2.32941492229196      0.28459007251132
  H   -1.90121975709521     -1.83471978762295      0.51977926041983
