17
Coordinates from ORCA-job run
  C   0.75305663132775      0.37893727891122      0.17870464942057
  C   -0.54904037646053     -0.44224123877341      0.03155219608156
  Cl  0.41412801501118      2.03480682806251      0.77879808480946
  H   -0.24183952021840     -1.44886685898667     -0.26314480365425
  C   1.55827242441839     -0.30584740279840      1.19280486609875
  N   2.20317381705199     -0.89352528625391      1.98012638596946
  C   1.54080029398984      0.48611668540180     -1.12404904532887
  H   0.98360221157887      1.07459025362308     -1.85283049878710
  H   1.72200404255526     -0.50887034006464     -1.53593149443137
  H   2.49440817215450      0.97848718364179     -0.93264792895514
  N   -1.30690389940696      0.06958023221985     -1.15965785696309
  O   -1.08199886287737     -0.48884674235678     -2.23345383515222
  O   -2.07295068758061      1.01333829920329     -0.98631791491811
  C   -1.43790675107503     -0.47378724149761      1.25520543256728
  H   -2.29986711651589     -1.11605926018535      1.06491055024553
  H   -1.79444585930003      0.52335659102426      1.50339805440701
  H   -0.88449253465301     -0.88316898117108      2.10253315859053
