17
Coordinates from ORCA-job run
  C   0.66446815620539      0.54497482698537      0.06435770912823
  C   -0.46887628294149     -0.50232835112243      0.16281023967113
  Cl  0.01260759633418      2.21561462507992      0.09726206493399
  H   0.02204164084092     -1.47727065005768      0.21665220745223
  C   1.49275368008334      0.36750178363155      1.25941422494973
  N   2.16411811086988      0.18318605997290      2.20621423009815
  C   1.51925691890410      0.38136274201430     -1.18931056798956
  H   2.36142936050372      1.07230934358495     -1.14793762318991
  H   1.89242005904722     -0.64260216454536     -1.25815238511903
  H   0.92853819029830      0.60323279282719     -2.07803383998228
  N   -1.20299844066668     -0.53855478409158     -1.14710857010111
  O   -2.11928125353550      0.26227976267165     -1.31017149281752
  O   -0.80943424015380     -1.36215714187016     -1.97297703138098
  C   -1.43552747319688     -0.30637953509846      1.30964185992321
  H   -2.15546387106673     -1.12679631527183      1.32619705074627
  H   -1.97694777047580      0.63115256298069      1.20523959026347
  H   -0.89110438105018     -0.30752555769104      2.25590233341398
