17
Coordinates from ORCA-job run
  C   0.67026491231180      0.54208568528696      0.02687135814372
  C   -0.52494146129760     -0.42113758826294      0.21343914301454
  Cl  0.13880570883434      2.12059724569545     -0.63877167626031
  H   -0.12264854957982     -1.31397476774021      0.69861037124286
  C   1.21506059626786      0.78499033486425      1.36468804483329
  N   1.66410838656180      0.93053228680562      2.44093816282113
  C   1.75620628661842     -0.02770238908144     -0.88142541750368
  H   2.06509079512722     -1.01272272853832     -0.52531401610251
  H   1.38094779800700     -0.12116853001976     -1.90056619499046
  H   2.61596330668282      0.64249152798141     -0.88586222564659
  N   -0.96254031289453     -0.90848347483180     -1.13783499104425
  O   -1.76064770715530     -0.21581063276747     -1.76295949281620
  O   -0.46426201798946     -1.96447596618319     -1.52748413724396
  C   -1.69927042490106      0.14303607262798      0.98214773883329
  H   -1.37049562297367      0.47222150279468      1.96978591495421
  H   -2.14393026083179      0.98176572630071      0.45119326325317
  H   -2.45771143278804     -0.63124430493194      1.11254415451173
