16

C	-0.581248	0.010164	-1.403873
C	0.0	0.0	0.0
Br	0.391327	1.33958	-2.490803
H	1.088343	0.0	0.0
C	-0.272599	-1.28874	-2.036594
N	-0.075036	-2.326662	-2.554839
N	-1.969365	0.388193	-1.4225
H	-2.497348	-0.302778	-0.899138
H	-2.310856	0.446772	-2.373782
N	-0.419182	-1.231786	0.726136
O	-1.529201	-1.723096	0.474951
O	0.206094	-1.445295	1.775928
N	-0.442619	1.176699	0.806992
O	0.152868	2.232618	0.574466
O	-1.493784	1.079778	1.443863
Br	2.917227	0.0	0.0
