16

C	-0.510821	-0.00074	-1.446541
C	0.0	0.0	0.0
Br	-2.420845	0.528133	-1.531652
H	1.091477	0.0	0.0
C	0.234507	1.020619	-2.194633
N	0.876258	1.782008	-2.819734
N	-0.371024	-1.241945	-2.153358
H	0.604796	-1.464119	-2.313853
H	-0.848637	-1.990667	-1.670238
N	-0.436587	-1.168185	0.808777
O	-1.41378	-1.832608	0.45048
O	0.294801	-1.425977	1.762596
N	-0.433499	1.211222	0.753778
O	-1.246906	1.078355	1.666357
O	0.10904	2.254176	0.397758
Br	2.74312	0.0	0.0
