16

C	-0.548408	-0.025132	-1.42712
C	0.0	0.0	0.0
Br	0.04581	1.736909	-2.247861
H	1.087954	0.0	0.0
C	0.126538	-1.03337	-2.247435
N	0.552819	-1.818599	-3.011032
N	-1.942416	-0.250309	-1.470732
H	-2.278572	-0.325579	-2.422022
H	-2.433203	0.473641	-0.960827
N	-0.469333	-1.243867	0.707014
O	-1.229746	-1.122218	1.661642
O	-0.045322	-2.291435	0.239799
N	-0.492723	1.149774	0.814413
O	0.215768	1.471332	1.759136
O	-1.57652	1.659946	0.525773
Br	3.308234	0.0	0.0
