16

C	-0.575005	0.006616	-1.422533
C	0.0	0.0	0.0
Br	0.350557	1.367526	-2.490006
H	1.088334	0.0	0.0
C	-0.254073	-1.271695	-2.080807
N	-0.094175	-2.296905	-2.634521
N	-1.977883	0.344404	-1.416861
H	-2.321057	0.389813	-2.368826
H	-2.476817	-0.382151	-0.912236
N	-0.459527	-1.198101	0.773719
O	0.156303	-1.423862	1.805607
O	-1.419453	-1.848278	0.347313
N	-0.510261	1.19447	0.752453
O	-1.460444	1.024197	1.511623
O	0.058336	2.250672	0.524654
Br	3.315145	0.0	0.0
