14

C	0.0	0.0	0.0
C	-0.446434	-0.075605	-1.470693
Br	2.038709	0.0	0.0
H	-0.133269	0.821288	-2.013227
H	-1.548869	-0.096224	-1.318985
N	-0.603292	1.073061	0.692654
H	-1.645573	0.778597	0.558779
H	-0.449249	1.930066	0.170779
N	-0.379031	-1.210415	0.648681
H	0.282384	-1.955851	0.496205
H	-0.510167	-1.028893	1.633331
C	0.00848	-1.262646	-2.176561
N	0.366458	-2.226659	-2.745228
F	-2.843252	0.0	0.0
