14

C	0.0	0.0	0.0
C	-0.481675	0.103634	-1.454528
Br	2.039051	0.0	0.0
H	-0.18943	1.066476	-1.883488
H	-1.584976	0.056865	-1.271172
N	-0.584241	0.977185	0.839726
H	-1.623866	0.717258	0.684538
H	-0.420494	1.896559	0.442007
N	-0.364735	-1.277331	0.509348
H	-0.299522	-1.255904	1.518277
H	0.209492	-2.01617	0.128973
C	-0.035658	-0.977213	-2.316609
N	0.319265	-1.859541	-3.00686
F	-2.847793	0.0	0.0
