14

C	0.0	0.0	0.0
C	-0.435122	0.139219	-1.468399
Br	2.03159	0.0	0.0
H	-0.067262	-0.707172	-2.051537
H	-1.536995	0.105455	-1.370165
N	-0.440499	1.068658	0.849912
H	-0.161999	1.964992	0.461839
H	-1.469376	0.962878	0.766414
N	-0.481536	-1.268659	0.448761
H	-1.509108	-1.12212	0.35055
H	-0.28592	-1.311226	1.445182
C	-0.027439	1.392351	-2.084554
N	0.241217	2.407344	-2.611914
F	-2.802588	0.0	0.0
