14

C	0.0	0.0	0.0
C	-0.46307	-0.043643	-1.47002
Br	1.971966	0.0	0.0
H	-1.561622	-0.000578	-1.354868
H	-0.091376	0.828805	-2.007498
N	-0.482414	1.246658	0.526208
H	-0.265488	1.236956	1.518802
H	-1.510122	1.105537	0.442472
N	-0.460667	-1.115778	0.785112
H	-0.184146	-1.988788	0.347399
H	-1.487651	-1.001401	0.696014
C	-0.077505	-1.26421	-2.161715
N	0.225843	-2.257094	-2.710935
F	-2.8221	0.0	0.0
