14

C	0.0	0.0	0.0
C	-0.213614	0.115509	-1.554309
Br	1.982056	0.0	0.0
H	0.322939	-0.711577	-2.031049
H	0.282189	1.031188	-1.896458
N	-0.506042	1.10475	0.743523
H	-0.274706	1.963058	0.255019
H	-1.535183	0.942225	0.662303
N	-0.507633	-1.203884	0.567379
H	-0.284736	-1.975572	-0.05208
H	-1.536492	-1.025216	0.515236
C	-1.562532	0.123785	-2.142352
N	-2.416918	0.133065	-2.950532
F	-2.7695	0.0	0.0
