14

C	0.0	0.0	0.0
C	-0.432584	0.166138	-1.482059
Br	2.001582	0.0	0.0
H	-0.067368	-0.665991	-2.091921
H	-1.532551	0.123012	-1.371444
N	-0.478679	1.059156	0.832252
H	-1.505453	0.929219	0.755873
H	-0.231364	1.948459	0.411064
N	-0.489706	-1.235854	0.531259
H	-0.276168	-1.975465	-0.130028
H	-1.516891	-1.071908	0.505516
C	-0.028136	1.424909	-2.089103
N	0.286963	2.452178	-2.565582
F	-2.817137	0.0	0.0
