14

C	0.0	0.0	0.0
C	-0.42716	-0.005301	-1.494269
Br	2.001475	0.0	0.0
H	-1.527712	0.027042	-1.38644
H	-0.05719	0.885684	-2.010704
N	-0.492348	1.169612	0.661682
H	-0.271107	1.980467	0.092166
H	-1.519658	1.009094	0.609298
N	-0.474658	-1.145943	0.711671
H	-1.502064	-1.012169	0.653007
H	-0.227033	-1.983288	0.195198
C	-0.020489	-1.193748	-2.229456
N	0.294339	-2.167487	-2.807461
F	-2.816653	0.0	0.0
