17

C	0.0	0.0	0.0
C	-0.606013	0.027085	-1.394023
Cl	1.794016	0.0	0.0
H	-1.667508	0.251855	-1.171783
H	-0.281504	0.939199	0.484075
C	-0.523246	-1.158056	0.820022
H	-1.620471	-1.091196	0.785764
H	-0.180659	-1.090473	1.85594
H	-0.176701	-2.103559	0.396979
N	-0.474209	-1.287173	-2.043631
H	-0.650867	-1.159239	-3.035348
H	-1.245918	-1.858001	-1.704631
C	-0.011702	1.104461	-2.281941
H	1.010925	0.847765	-2.572218
H	0.005217	2.068231	-1.765953
H	-0.616237	1.220067	-3.188194
H	-3.44528	0.0	0.0
