17

C	0.0	0.0	0.0
C	-0.572187	0.00833	-1.415162
Cl	1.801154	0.0	0.0
H	-1.659308	0.067772	-1.211073
H	-0.285012	0.941016	0.47651
C	-0.523467	-1.149182	0.829359
H	-0.170364	-1.081485	1.861975
H	-0.203174	-2.109767	0.418033
H	-1.621228	-1.060898	0.797703
N	-0.322744	-1.205838	-2.191103
H	0.648359	-1.485083	-2.08081
H	-0.903763	-1.950072	-1.821832
C	-0.145525	1.226447	-2.217015
H	-0.367801	2.147774	-1.669712
H	-0.69559	1.238063	-3.160139
H	0.925782	1.206635	-2.442779
H	-3.353639	0.0	0.0
