17

C	0.0	0.0	0.0
C	-0.347719	-0.244397	-1.479804
Cl	1.807406	0.0	0.0
H	0.182739	-1.169553	-1.760562
H	-0.291133	1.023338	0.251137
C	-0.595455	-0.99349	0.959886
H	-0.211371	-0.847754	1.971143
H	-0.383011	-2.022221	0.646855
H	-1.679929	-0.832359	0.964426
N	0.128591	0.905968	-2.265553
H	1.13375	0.854454	-2.380031
H	-0.289567	0.852893	-3.188035
C	-1.823875	-0.443511	-1.76123
H	-1.934703	-0.705732	-2.818065
H	-2.434183	0.429985	-1.534266
H	-2.282533	-1.231629	-1.172417
H	-4.225323	0.0	0.0
