17

C	0.0	0.0	0.0
C	-0.48204	0.003585	-1.464682
Cl	1.799964	0.0	0.0
H	0.308251	0.491261	-2.048911
H	-0.269422	0.979362	0.398079
C	-0.570349	-1.082829	0.884772
H	-1.664661	-1.000363	0.837667
H	-0.256563	-2.07707	0.559046
H	-0.245421	-0.938904	1.918878
N	-1.661037	0.85619	-1.54403
H	-2.029989	0.803631	-2.490388
H	-2.433372	0.504744	-0.930218
C	-0.658311	-1.413142	-2.020127
H	0.244836	-2.022232	-1.892376
H	-0.873907	-1.355321	-3.092392
H	-1.504641	-1.904153	-1.536904
H	-3.745397	0.0	0.0
