15

C	-0.544899	-0.042928	-1.426925
C	0.0	0.0	0.0
Br	0.352953	-1.496069	-2.380521
H	1.089552	0.0	0.0
H	-0.24203	0.861193	-1.963448
N	-1.966112	-0.332663	-1.453532
H	-2.271894	-0.433742	-2.413759
H	-2.433706	0.466711	-1.039287
N	-0.50813	-1.029274	0.850404
H	0.23829	-1.669007	1.081775
H	-1.273263	-1.50996	0.394195
N	-0.402849	1.336582	0.616172
O	0.283734	1.752009	1.537843
O	-1.41788	1.908038	0.193171
Cl	3.343194	0.0	0.0
