15

C	-0.428058	-0.192212	-1.443449
C	0.0	0.0	0.0
Br	0.001773	1.463457	-2.503638
H	1.096584	0.0	0.0
H	-1.508907	-0.280704	-1.542054
N	0.252458	-1.344322	-1.914653
H	0.05507	-1.526075	-2.889008
H	1.256278	-1.23104	-1.780601
N	-0.541956	-1.091423	0.805373
H	0.08453	-1.203349	1.596933
H	-0.442682	-1.92947	0.242557
N	-0.563776	1.24478	0.600153
O	0.076375	1.753412	1.517007
O	-1.669685	1.619022	0.212244
Cl	3.355479	0.0	0.0
