15

C	-0.484257	-0.169821	-1.437468
C	0.0	0.0	0.0
Br	-0.246328	1.564405	-2.467524
H	1.089465	0.0	0.0
H	-1.566932	-0.300303	-1.474565
N	0.20252	-1.262152	-2.00397
H	1.208692	-1.134307	-1.921951
H	-0.056115	-1.417483	-2.968246
N	-0.434813	-1.074461	0.857324
H	0.260149	-1.80754	0.820484
H	-1.329429	-1.443246	0.562065
N	-0.577117	1.257401	0.569802
O	-1.810404	1.292971	0.605366
O	0.170261	2.134679	0.980228
Cl	3.341786	0.0	0.0
