15

C	-0.404704	0.084669	-1.460013
C	0.0	0.0	0.0
Br	-2.494784	0.386861	-1.47984
H	1.094203	0.0	0.0
H	-0.390495	-0.925552	-1.861347
N	0.272268	1.007455	-2.230865
H	0.885781	1.624315	-1.723415
H	0.663414	0.643199	-3.082136
N	-0.512268	-1.157477	0.63421
H	-1.482665	-1.026454	0.890667
H	0.031065	-1.352085	1.464578
N	-0.373583	1.298614	0.710931
O	-1.082176	1.233343	1.711028
O	0.081001	2.338222	0.239279
Cl	3.299947	0.0	0.0
