15

C	-0.619621	0.015053	-1.40098
C	0.0	0.0	0.0
Br	0.023573	-1.570854	-2.342667
H	1.093804	0.0	0.0
H	-0.241575	0.863458	-1.96642
N	-2.059197	0.00995	-1.409889
H	-2.368896	-0.688661	-0.741265
H	-2.400151	0.921392	-1.125436
N	-0.518476	-1.086333	0.793575
H	0.27437	-1.602071	1.15597
H	-1.025942	-0.704693	1.580831
N	-0.390848	1.335231	0.610913
O	-0.154327	2.337447	-0.05819
O	-0.937196	1.355549	1.714497
Cl	3.29771	0.0	0.0
