15

C	-0.323667	0.038435	-1.50293
C	0.0	0.0	0.0
Br	-2.293865	0.203509	-1.750865
H	1.093474	0.0	0.0
H	-0.103273	-0.96564	-1.869059
N	0.359442	0.990608	-2.318702
H	0.327	1.891024	-1.852085
H	1.339779	0.709148	-2.324637
N	-0.464809	-1.131443	0.719971
H	0.236737	-1.856833	0.711995
H	-1.362435	-1.467401	0.400093
N	-0.485474	1.271567	0.653814
O	-0.040158	2.327376	0.196805
O	-1.309606	1.200909	1.557914
Cl	3.286043	0.0	0.0
