15

C	-0.518043	-0.037203	-1.430015
C	0.0	0.0	0.0
Br	0.088978	1.52449	-2.437091
H	1.096443	0.0	0.0
H	-1.608389	-0.008634	-1.440347
N	-0.048859	-1.217616	-2.120073
H	0.965271	-1.256686	-2.040867
H	-0.440087	-2.018272	-1.634094
N	-0.456886	-1.231483	0.676333
H	0.360819	-1.83208	0.720142
H	-0.653064	-0.997954	1.644192
N	-0.53096	1.146542	0.798497
O	-0.117965	1.250249	1.952754
O	-1.383838	1.877207	0.295517
Cl	3.299528	0.0	0.0
