15

C	-0.489889	0.042703	-1.453543
C	0.0	0.0	0.0
Br	-0.354434	1.838349	-2.214884
H	1.094171	0.0	0.0
H	-1.554821	-0.204287	-1.485889
N	0.257111	-0.87706	-2.276298
H	0.125205	-1.792233	-1.853772
H	1.247451	-0.656337	-2.168762
N	-0.442938	-1.254666	0.550529
H	-1.391674	-1.166658	0.894689
H	0.176135	-1.526056	1.305227
N	-0.555514	1.160324	0.782792
O	-1.768182	1.102383	1.027512
O	0.182012	2.080756	1.108182
Cl	3.346377	0.0	0.0
