15

C	-0.416917	-0.00295	-1.462997
C	0.0	0.0	0.0
Br	-2.619403	0.076433	-1.417695
H	1.093181	0.0	0.0
H	-0.35842	-1.012611	-1.860144
N	0.144491	0.923692	-2.275738
H	-0.045261	0.861508	-3.260566
H	0.263725	1.844957	-1.886588
N	-0.449167	-1.09786	0.769265
H	0.234792	-1.840377	0.758937
H	-1.376369	-1.410911	0.51494
N	-0.433018	1.308713	0.639754
O	-0.064212	2.338647	0.067295
O	-1.101064	1.286238	1.662075
Cl	3.283029	0.0	0.0
