15

C	-0.690663	0.109596	-1.369059
C	0.0	0.0	0.0
Br	0.658814	0.524709	-2.8031
H	1.092506	0.0	0.0
H	-1.322902	0.99094	-1.418292
N	-1.454495	-1.057039	-1.64266
H	-1.767124	-1.057241	-2.604652
H	-0.891181	-1.877415	-1.459834
N	-0.335979	-1.202366	0.690453
H	0.344364	-1.358146	1.42025
H	-1.265978	-1.179638	1.084429
N	-0.361974	1.259129	0.794342
O	-0.589101	1.128481	1.995667
O	-0.353593	2.331188	0.196656
Cl	3.280613	0.0	0.0
