15

C	-0.495939	-0.024244	-1.427897
C	0.0	0.0	0.0
Br	-2.672928	0.15636	-1.254339
H	1.093653	0.0	0.0
H	-0.488279	-1.046117	-1.791218
N	0.050268	0.87025	-2.295246
H	-0.245129	0.799595	-3.254568
H	0.159756	1.806694	-1.938118
N	-0.453128	-1.127333	0.727792
H	0.13893	-1.26459	1.535031
H	-1.414618	-1.016038	1.021738
N	-0.369985	1.33125	0.66083
O	-0.130507	2.364002	0.034847
O	-0.843427	1.298864	1.791441
Cl	3.272562	0.0	0.0
