14

C	-0.58174	-0.074602	-1.391905
C	0.0	0.0	0.0
Cl	-0.045618	-1.48383	-2.312096
H	1.092214	0.0	0.0
H	-1.673405	-0.095226	-1.382563
H	-0.338988	0.953321	0.419662
N	-0.268098	1.20432	-2.15204
O	0.564992	1.216213	-3.043297
O	-0.923675	2.172211	-1.763885
C	-0.484016	-1.153262	0.869727
H	-0.085414	-1.024862	1.878587
H	-1.577618	-1.213021	0.93234
H	-0.102848	-2.104348	0.49385
H	2.971553	0.0	0.0
