14

C	-0.444901	-0.047439	-1.43892
C	0.0	0.0	0.0
Cl	0.009254	1.380633	-2.374494
H	1.093137	0.0	0.0
H	-0.027319	-0.917639	-1.942799
H	-0.307673	-0.954414	0.445235
N	-1.946042	-0.235266	-1.505734
O	-2.326816	-1.403827	-1.396964
O	-2.680482	0.745605	-1.567624
C	-0.539212	1.172918	0.801582
H	-0.079051	1.152915	1.792014
H	-0.260796	2.119653	0.3357
H	-1.626469	1.156146	0.922283
H	2.911165	0.0	0.0
