14

C	-0.628106	0.004391	-1.385729
C	0.0	0.0	0.0
Cl	-0.224563	-1.464449	-2.353585
H	1.099908	0.0	0.0
H	-1.716498	-0.009751	-1.276204
C	-0.241506	1.189778	-2.144845
N	0.049705	2.126744	-2.789266
N	-0.537847	-1.159292	0.745935
H	0.026264	-1.186629	1.592576
H	-0.259786	-1.996621	0.240045
N	-0.450321	1.234571	0.627224
H	-1.221738	1.030839	1.253112
H	0.327906	1.612746	1.152184
F	2.653046	0.0	0.0
