14

C	-0.502933	0.002759	-1.43816
C	0.0	0.0	0.0
Cl	-0.038686	1.489838	-2.337681
H	1.104168	0.0	0.0
H	-0.009942	-0.828432	-1.94204
C	-1.955844	-0.161268	-1.524485
N	-3.11899	-0.314505	-1.583443
N	-0.441187	-1.264799	0.561619
H	0.277612	-1.589974	1.195936
H	-1.310971	-1.129267	1.066557
N	-0.585329	1.133887	0.736383
H	-0.238348	1.985297	0.301689
H	-0.134934	1.111756	1.647171
F	2.665424	0.0	0.0
