14

C	-0.393549	-0.000902	-1.461163
C	0.0	0.0	0.0
Cl	-2.172549	0.247885	-1.749111
H	1.102484	0.0	0.0
H	0.107197	0.847377	-1.924905
C	-0.00643	-1.23201	-2.143762
N	0.303864	-2.223526	-2.689291
N	-0.568566	-1.17266	0.694735
H	-0.160648	-2.001177	0.268353
H	-0.159336	-1.140953	1.624348
N	-0.436842	1.23949	0.601164
H	0.223434	1.475751	1.332751
H	-1.360168	1.111248	1.00453
F	2.65242	0.0	0.0
