14

C	-0.515992	-0.038718	-1.43283
C	0.0	0.0	0.0
Cl	-0.090323	1.433772	-2.375445
H	1.100387	0.0	0.0
H	-0.013282	-0.87274	-1.921357
C	-1.966007	-0.232297	-1.506461
N	-3.12534	-0.41267	-1.560054
N	-0.421747	-1.2595	0.593589
H	-1.272235	-1.115023	1.127517
H	0.321047	-1.574345	1.204785
N	-0.591739	1.140252	0.721954
H	-0.076539	1.186691	1.597766
H	-0.322944	1.987355	0.227029
F	2.662624	0.0	0.0
