14

C	-0.433141	-0.039673	-1.447101
C	0.0	0.0	0.0
Cl	-2.228088	0.14051	-1.682329
H	1.10252	0.0	0.0
H	0.017909	0.822359	-1.936285
C	-0.023225	-1.265669	-2.129198
N	0.286851	-2.262218	-2.668022
N	-0.554602	-1.137326	0.760106
H	-0.390904	-1.989747	0.230134
H	0.056272	-1.221956	1.569199
N	-0.412016	1.266748	0.575203
H	0.319377	1.553721	1.2139
H	-1.273562	1.127857	1.091893
F	2.639741	0.0	0.0
