14

C	-0.522342	-0.031296	-1.432599
C	0.0	0.0	0.0
Cl	0.155071	1.302423	-2.413334
H	1.098677	0.0	0.0
H	-0.193837	-0.95527	-1.914566
C	-1.983941	0.039787	-1.483526
N	-3.156642	0.113014	-1.50617
N	-0.498995	-1.257358	0.62263
H	0.115425	-1.995771	0.282926
H	-0.259736	-1.167526	1.605546
N	-0.503609	1.159748	0.686785
H	-1.394239	0.959661	1.128577
H	0.174899	1.448335	1.379167
F	2.667109	0.0	0.0
