14

C	-0.655774	0.001378	-1.378591
C	0.0	0.0	0.0
Cl	-0.143251	-1.391426	-2.386382
H	1.093733	0.0	0.0
H	-1.741919	-0.10012	-1.265217
C	-0.397895	1.232601	-2.124412
N	-0.200865	2.199082	-2.760441
N	-0.402511	-1.214578	0.701229
H	-1.188486	-1.044405	1.320022
H	0.391726	-1.505557	1.258724
N	-0.39146	1.267454	0.630689
H	-1.126189	1.131666	1.315604
H	0.430982	1.618204	1.108466
F	2.629945	0.0	0.0
