14

C	-0.553825	-0.022946	-1.421133
C	0.0	0.0	0.0
Cl	-0.082328	1.406552	-2.38651
H	1.094	0.0	0.0
H	-0.138629	-0.896241	-1.922652
C	-2.015323	-0.121277	-1.403823
N	-3.185167	-0.193335	-1.318046
N	-0.369546	-1.302271	0.570675
H	0.392217	-1.579324	1.179125
H	-1.219952	-1.237866	1.120197
N	-0.453208	1.184639	0.706077
H	-1.308472	1.0118	1.222928
H	0.276438	1.451457	1.354478
F	2.635143	0.0	0.0
