14

C	-0.43537	0.022902	-1.441858
C	0.0	0.0	0.0
Cl	-2.252991	0.148537	-1.618543
H	1.096055	0.0	0.0
H	-0.039033	0.922364	-1.91161
C	-0.005197	-1.157669	-2.185674
N	0.323135	-2.076536	-2.838244
N	-0.439709	-1.231293	0.635818
H	-1.352705	-1.125803	1.0652
H	0.237766	-1.470338	1.349116
N	-0.384389	1.26777	0.615959
H	0.307844	1.468351	1.328352
H	-1.296748	1.199698	1.055546
F	2.612742	0.0	0.0
