15

C	-0.251363	0.012572	-1.45626
C	0.0	0.0	0.0
Br	-2.197439	-0.172928	-2.001073
H	1.096803	0.0	0.0
H	-0.368352	-0.942127	0.41015
C	0.212878	1.22715	-2.114179
N	0.527067	2.254641	-2.590908
N	0.41587	-1.198118	-2.118726
O	0.250425	-2.273822	-1.565479
O	1.034497	-1.000082	-3.156065
C	-0.520952	1.222309	0.730053
H	-0.01028	2.121177	0.375732
H	-0.28882	1.122031	1.792923
H	-1.602621	1.365326	0.623924
F	2.544249	0.0	0.0
