15

C	-0.259462	-0.004781	-1.454477
C	0.0	0.0	0.0
Br	-2.20847	-0.200741	-1.98849
H	1.096758	0.0	0.0
H	-0.364991	-0.938269	0.423112
C	0.199712	1.202426	-2.128612
N	0.55493	2.21042	-2.61718
N	0.405528	-1.223074	-2.107531
O	1.003655	-1.040373	-3.160229
O	0.25585	-2.290135	-1.533242
C	-0.521474	1.227481	0.720229
H	-1.607895	1.350455	0.639375
H	-0.25981	1.150034	1.778099
H	-0.035359	2.12864	0.337469
F	2.544233	0.0	0.0
