15

C	-0.473977	-0.064798	-1.435959
C	0.0	0.0	0.0
Br	0.402423	-1.49163	-2.423415
H	1.107052	0.0	0.0
H	-0.38877	0.941385	0.405067
C	-1.915708	-0.265867	-1.582601
N	-3.073385	-0.468618	-1.63596
N	-0.156155	1.291268	-2.097549
O	-0.915786	2.193842	-1.752475
O	0.800779	1.395223	-2.842939
C	-0.474944	-1.183336	0.829903
H	-0.075967	-1.065284	1.840365
H	-1.565434	-1.281033	0.894222
H	-0.05974	-2.112942	0.434551
F	2.597057	0.0	0.0
