15

C	-0.407092	0.374551	-1.400329
C	0.0	0.0	0.0
Br	0.345218	2.082217	-1.959578
H	1.107043	0.0	0.0
H	-0.336923	-1.03448	0.145791
C	0.009513	-0.624141	-2.379794
N	0.337161	-1.425705	-3.174322
N	-1.945971	0.466902	-1.481092
O	-2.488913	1.543541	-1.276094
O	-2.519606	-0.611818	-1.617686
C	-0.541714	0.915315	1.083383
H	-0.248955	1.950628	0.897673
H	-0.085225	0.616058	2.03011
H	-1.631753	0.880588	1.199695
F	2.577481	0.0	0.0
