15

C	-0.410197	0.156427	-1.454781
C	0.0	0.0	0.0
Br	-0.17954	-1.519328	-2.41804
H	1.107105	0.0	0.0
H	-0.386211	-0.964742	0.33947
C	-1.792687	0.583276	-1.667068
N	-2.921968	0.895461	-1.77463
N	0.489053	1.232731	-2.103077
O	1.44386	0.89874	-2.775761
O	0.151966	2.380744	-1.818875
C	-0.480206	1.129799	0.902785
H	-0.013807	2.07307	0.61727
H	-0.144754	0.90097	1.9178
H	-1.568307	1.265204	0.917182
F	2.590984	0.0	0.0
