14
Coordinates from ORCA-job run
  C   -0.29509092355163      0.26084074692997     -0.26306695499667
  C   1.15044380504068      0.38721010015378      0.22611735230667
  H   -0.36243711313996      0.61129902679765     -1.29852916412131
  H   1.20827730038306      0.11552061913689      1.28475888991685
  H   1.49467111453148      1.41767044475815      0.13511681437096
  N   -1.14424955820475      1.24989503847992      0.51327713721084
  O   -2.33265139386705      0.98175640386145      0.65451127901164
  O   -0.59645523180421      2.27709297939153      0.90710015062566
  C   -0.86115493359464     -1.13830654545495     -0.13168561377255
  H   -0.85674978234664     -1.45655602939644      0.91316614618835
  H   -0.25064928653722     -1.83211790302256     -0.71171577501220
  H   -1.88409903223404     -1.17994240645939     -0.49894387304416
  C   2.02396945717807     -0.49175244929680     -0.54687779154328
  N   2.70617557814683     -1.20261002587920     -1.18422859714082
