14
Coordinates from ORCA-job run
  C   -0.24204143924204      0.29623120803890     -0.29407114641696
  C   1.14179758796117      0.30933267112621      0.35815167186033
  H   -0.19533242255669      0.69416307415083     -1.30857418962534
  H   1.53853379577231      1.32849916864953      0.38870686003467
  H   1.06525138972893     -0.04591480441274      1.38811896530837
  N   -1.11431192208358      1.26127143395183      0.45652255960636
  O   -1.09644893183030      1.19035412418195      1.68363969823412
  O   -1.80784867598430      2.02430113383453     -0.21059332330664
  C   -0.90883475321659     -1.06775505339869     -0.26578588412670
  H   -1.90634715655251     -1.01044391027563     -0.70543757514447
  H   -0.31825466473837     -1.78167628567956     -0.84243077669121
  H   -0.99347054788951     -1.42490013984850      0.76246716346323
  C   2.06060055927098     -0.54068774980829     -0.39394384455791
  N   2.77470718136049     -1.23377487051036     -1.01577017863784
