14
Coordinates from ORCA-job run
  C   -0.25219838027749      0.28325195766299     -0.29336817423992
  C   1.15146743993536      0.33717492851544      0.31059010162728
  H   -0.24544603168310      0.64396136551977     -1.32291357731778
  H   1.11648485618977      0.01705104033552      1.35401357834237
  H   1.53411221875254      1.36189326149651      0.29495232881046
  N   -1.12164945119573      1.26013199780686      0.44686931390508
  O   -0.98211606705571      1.32752693175315      1.66623958485017
  O   -1.94127287590192      1.88628006388797     -0.21934355272324
  C   -0.90073160008604     -1.08694738797973     -0.19737057793206
  H   -0.31365598185169     -1.81610040167068     -0.75812150304212
  H   -1.90790073484369     -1.05759352115629     -0.61656077740307
  H   -0.95779067954495     -1.40518118372519      0.84579508702884
  C   2.05710609793720     -0.52492633889464     -0.44386843323461
  N   2.76259118962544     -1.22752271355170     -1.06491339867139
