14
Coordinates from ORCA-job run
  C   -0.30507169111323      0.31779359564674     -0.17120124225032
  C   1.18810842040389      0.29221255830912      0.16655863915642
  H   -0.45974509116997      0.87015989845399     -1.10423869281008
  H   1.57880528232905      1.30705873161852      0.24446264914798
  H   1.34028660356918     -0.19184628287956      1.13633688750380
  N   -1.01220899314717      1.16087801993035      0.87336299312489
  O   -2.19586895644067      0.91877505433586      1.08417390926188
  O   -0.36682482218681      2.06173958969396      1.40432005485955
  C   -0.93333246839220     -1.05849999373512     -0.25215406277691
  H   -0.42812286847680     -1.64251690016884     -1.02323862162761
  H   -1.99013119466187     -0.98926669210531     -0.50051863742506
  H   -0.83655930063465     -1.58026949299169      0.70269133887737
  C   1.92508383734663     -0.43955585125648     -0.86024828149157
  N   2.49558124257461     -1.02666223485154     -1.70130693355035
