14
Coordinates from ORCA-job run
  C   -0.29034569400788      0.06269295217165     -0.32449139721380
  C   1.17933292133854     -0.25106967891639     -0.06305231820115
  H   -0.42369420366440      0.52216733753801     -1.30453152980605
  H   1.29871425284175     -0.60801640238378      0.96206811253024
  H   1.49730790500334     -1.04916837818434     -0.74011199630158
  N   -0.74640146652383      1.10986934426972      0.65362676478892
  O   -0.44669714772492      0.93490251026769      1.83239386796831
  O   -1.42235376723270      2.03301520125870      0.20871055374073
  C   -1.18001966747733     -1.15685901382044     -0.15426530239996
  H   -0.91330132601869     -1.91746097241875     -0.89076791203996
  H   -2.22713477078483     -0.88744051223643     -0.30402012282477
  H   -1.06201918060515     -1.57508083024909      0.84706780744232
  C   2.03323685194799      0.91737953404213     -0.27037645570298
  N   2.70237529290813      1.86406890866130     -0.45125007198026
