14
Coordinates from ORCA-job run
  C   -0.26196518158179      0.13306620086278     -0.32249995542167
  C   1.16023600191464     -0.34203274193607     -0.04698608098003
  H   -0.30433679504667      0.73569268374165     -1.23067947156167
  H   1.19603607304822     -0.85188733999606      0.91779396030975
  H   1.44883345915926     -1.05867222568801     -0.82144119249762
  N   -0.69489006022554      1.06735029691420      0.77421352952912
  O   -0.38667528769268      0.76262728258377      1.92380716828344
  O   -1.37315429012515      2.03462009722771      0.44007429894672
  C   -1.25702770932087     -1.01451864783092     -0.37240777370911
  H   -2.26689372969399     -0.63371942055530     -0.53464693733796
  H   -1.23571276488249     -1.57537094354497      0.56421634628650
  H   -1.00774975168925     -1.68841450411458     -1.19439674406517
  C   2.11545405583079      0.76461963655965     -0.04299093361484
  N   2.86684598030550      1.66563962577614     -0.05505621416745
