14
Coordinates from ORCA-job run
  C   -0.59456970375246      0.06456802253160     -0.48399063210923
  C   0.64322174844117     -0.05493935335322      0.42672150227339
  Cl  -0.84479211957401     -1.38741393739394     -1.41352256305384
  H   0.78688307736444      0.89943094063891      0.93908835945841
  C   -0.55911508967891      1.24449447216781     -1.33452400959308
  N   -0.58604869803010      2.18564491129070     -2.03905013348741
  N   -1.78798314477773      0.29798286116795      0.52147553764939
  O   -2.70622680933144     -0.49444881567412      0.52197111967790
  O   -1.62952694177417      1.29222795985098      1.21292641356269
  N   1.87412257166540     -0.26930235326759     -0.43237724405254
  O   2.39542092909328     -1.37584593494442     -0.41673399147089
  O   2.22348610992840      0.71920117132458     -1.06627458760105
  C   0.47662296665659     -1.13780508425854      1.38363467821931
  N   0.30750510376955     -1.98379486008069      2.18165555052694
