14
Coordinates from ORCA-job run
  C   -0.59716359316438      0.11424204068814     -0.47484721601002
  C   0.63466971989944     -0.10214965362495      0.42750018395590
  Cl  -0.82289579422873     -1.21233940498457     -1.58261681907789
  H   0.75769533508021      0.78065426275670      1.05920211706902
  C   -0.55515363641243      1.39034589805081     -1.17310127753906
  N   -0.56777465854299      2.41606136139724     -1.74879061150607
  N   -1.79848038095907      0.20788495477590      0.53716641567326
  O   -2.69015400728383     -0.61068849792613      0.45274527573787
  O   -1.67515295575271      1.13012282861906      1.32993678627020
  N   1.87645944070207     -0.17752292778093     -0.44308819520271
  O   2.36429304276491     -1.28023025476943     -0.64469732636111
  O   2.25903574960151      0.90465819235635     -0.87191536959941
  C   0.48561783220545     -1.30577976829230      1.22878683516860
  N   0.32900390609056     -2.25525903126590      1.90271920142141
