18

C	-0.460876	0.046861	-1.44582
C	0.0	0.0	0.0
F	-0.166347	-1.179048	-2.072249
H	1.098146	0.0	0.0
H	-1.560066	0.133834	-1.487176
C	0.199771	1.141622	-2.260465
H	1.283118	1.097669	-2.115645
H	-0.032918	1.000423	-3.319031
H	-0.16236	2.128367	-1.958165
C	-0.504982	-1.258618	0.694931
H	-1.602478	-1.282678	0.726029
H	-0.15318	-2.151645	0.178352
H	-0.131749	-1.293981	1.721919
C	-0.463066	1.253864	0.740109
H	-0.193145	1.181411	1.796906
H	0.015247	2.153755	0.348727
H	-1.55228	1.379646	0.676477
Br	3.756062	0.0	0.0
