15

C	-0.381417	-0.022625	-1.470246
C	0.0	0.0	0.0
Br	-0.013232	1.626882	-2.390027
H	1.096342	0.0	0.0
H	0.169019	-0.812547	-1.977845
N	-1.838586	-0.370513	-1.630057
O	-2.077758	-1.491797	-2.080551
O	-2.672594	0.439439	-1.242088
C	-0.440788	-1.294277	0.693718
H	-1.527698	-1.366361	0.784921
H	-0.066697	-2.156153	0.136803
H	0.001471	-1.32184	1.690541
C	-0.502068	1.16946	0.711055
N	-0.882603	2.084907	1.341318
Br	3.406098	0.0	0.0
