15

C	-0.410813	0.001281	-1.469727
C	0.0	0.0	0.0
Br	0.532445	1.350883	-2.474495
H	1.09512	0.0	0.0
H	-0.166112	-0.969927	-1.919771
N	-1.93275	0.135763	-1.683624
O	-2.356107	0.674892	-2.700975
O	-2.636713	-0.389687	-0.819867
C	-0.387319	-1.257935	0.787055
H	-0.050875	-2.140938	0.236028
H	-1.457591	-1.327565	0.976348
H	0.157532	-1.24306	1.734367
C	-0.466886	1.218883	0.659273
N	-0.856701	2.185251	1.20366
Br	3.403031	0.0	0.0
