16

C	-0.25225	0.238122	-1.481524
C	0.0	0.0	0.0
Cl	-1.798314	1.108804	-1.819379
H	1.09269	0.0	0.0
H	-0.402023	-0.953039	0.344438
N	0.830151	0.904008	-2.14824
H	1.695961	0.687483	-1.618888
H	0.681085	1.901495	-2.133534
N	-0.359891	-1.134799	-2.201897
O	-1.101375	-1.262511	-3.168571
O	0.410476	-1.990341	-1.778949
C	-0.42442	1.157315	0.889901
H	-1.5083	1.239234	1.007943
H	-0.048332	2.103416	0.490105
H	0.03175	1.022366	1.875567
H	2.895977	0.0	0.0
