16

C	-0.28276	-0.087785	-1.490475
C	0.0	0.0	0.0
Cl	-0.082317	1.495051	-2.282294
H	1.094014	0.0	0.0
H	-0.302313	-0.973053	0.410502
N	0.554218	-1.033785	-2.167587
H	0.347502	-1.946484	-1.77605
H	1.508675	-0.798996	-1.866174
N	-1.745699	-0.520523	-1.685056
O	-1.940268	-1.73583	-1.699456
O	-2.628699	0.331033	-1.68812
C	-0.612924	1.143097	0.783889
H	-1.703905	1.174764	0.704067
H	-0.346003	1.032881	1.838436
H	-0.214736	2.099209	0.443112
H	2.908564	0.0	0.0
