13
Coordinates from ORCA-job run
  C   -0.03416227399871     -0.05716975007499      0.41738764117716
  C   1.33339681889088     -0.41690666046773     -0.13627303895482
  H   -0.04691131485459     -0.12294469690080      1.50588732717377
  H   1.31665877452901     -0.39504054685813     -1.22653985579451
  H   1.63991054443387     -1.41228343906125      0.19224426498438
  H   2.07191288722028      0.30439975804416      0.21988159112094
  N   -1.01494605795983     -1.10654656644154     -0.02476362999048
  O   -1.18469289601640     -1.23307105887028     -1.23544666944110
  O   -1.57900935133645     -1.76447938623844      0.84762210872425
  C   -0.53602987000833      1.29614611590753     -0.05438174293010
  H   -1.53805494103785      1.49842631558211      0.32996102449540
  H   -0.56318815068949      1.33025301539046     -1.14411998817116
  H   0.13411583082759      2.07921689998890      0.30654096760627
