18

C	-0.516891	0.009136	-1.443437
C	0.0	0.0	0.0
Br	-0.035737	1.834262	-2.224419
H	1.101089	0.0	0.0
C	0.275166	-1.002523	-2.248675
H	0.051723	-1.993411	-1.850392
H	1.34297	-0.805769	-2.144782
H	-0.007793	-0.953938	-3.303533
N	-1.911686	-0.227798	-1.523231
H	-2.429218	0.486375	-1.025016
H	-2.208602	-0.259466	-2.49005
N	-0.435375	-1.198486	0.645309
H	0.096939	-1.348648	1.492177
H	-1.429483	-1.184404	0.825975
N	-0.497295	1.231828	0.743575
O	-1.728319	1.332747	0.870213
O	0.314155	2.01606	1.214059
Cl	3.388826	0.0	0.0
