18

C	-0.513724	-0.066745	-1.44392
C	0.0	0.0	0.0
Br	-0.031764	1.713613	-2.318646
H	1.090006	0.0	0.0
C	0.279368	-1.119004	-2.191548
H	1.346716	-0.916773	-2.095057
H	0.055436	-2.087461	-1.742085
H	-0.001331	-1.125424	-3.248371
N	-1.908438	-0.308412	-1.512131
H	-2.426188	0.430638	-1.053444
H	-2.205912	-0.392422	-2.47546
N	-0.436838	-1.162701	0.705482
H	-1.433212	-1.146423	0.873977
H	0.089432	-1.267008	1.562475
N	-0.496519	1.2692	0.67693
O	-1.726967	1.38231	0.787907
O	0.316084	2.0708	1.117316
Cl	3.393727	0.0	0.0
