19

C	0.0	0.0	0.0
C	-0.664833	-0.170847	-1.346842
F	1.358096	0.0	0.0
H	-1.741782	-0.369904	-1.043977
C	-0.520636	1.209335	0.731657
H	-0.130972	1.187924	1.749181
H	-1.61659	1.122199	0.698473
H	-0.161732	2.111828	0.232605
N	-0.341929	-1.231165	0.877063
O	-1.001497	-2.147619	0.409784
O	0.128282	-1.202639	2.013676
N	-0.121578	-1.313852	-2.135105
O	0.801813	-1.991878	-1.683683
O	-0.655786	-1.525144	-3.226807
C	-0.629709	1.090922	-2.194009
H	0.370726	1.533061	-2.246835
H	-0.970742	0.852426	-3.200687
H	-1.330261	1.804391	-1.762169
F	-2.919798	0.0	0.0
