19

C	0.0	0.0	0.0
C	-0.663961	-0.138675	-1.351637
F	1.358261	0.0	0.0
H	-1.742304	-0.337529	-1.055204
C	-0.519014	1.194968	0.756986
H	-1.615006	1.113716	0.717458
H	-0.152332	2.106538	0.280573
H	-0.134871	1.147495	1.775827
N	-0.344091	-1.249913	0.846809
O	-0.982377	-2.16504	0.348526
O	0.106813	-1.240977	1.991497
N	-0.129784	-1.26867	-2.165579
O	0.813961	-1.939346	-1.748634
O	-0.689032	-1.471479	-3.245709
C	-0.614607	1.137355	-2.17522
H	-0.97126	0.924099	-3.181965
H	0.393739	1.561172	-2.231018
H	-1.295048	1.858308	-1.72356
F	-2.917704	0.0	0.0
