19

C	0.0	0.0	0.0
C	-0.611928	-0.093157	-1.388134
F	1.361956	0.0	0.0
H	-1.614605	-0.531	-1.18453
C	-0.515443	1.15063	0.819826
H	-0.095715	1.063698	1.822246
H	-1.611694	1.045184	0.80133
H	-0.18085	2.088474	0.371922
N	-0.330865	-1.291523	0.800283
O	-1.053553	-2.150925	0.324409
O	0.209937	-1.350484	1.905033
N	0.21531	-0.99056	-2.262159
O	0.74024	-1.975845	-1.747732
O	0.309935	-0.717003	-3.462814
C	-0.835991	1.252648	-2.042043
H	0.066367	1.869966	-2.063682
H	-1.179033	1.108337	-3.064966
H	-1.63042	1.730097	-1.472604
F	-2.865325	0.0	0.0
