19

C	0.0	0.0	0.0
C	-0.263788	0.024685	-1.534341
F	1.367136	0.0	0.0
H	0.431283	-0.713923	-1.929176
C	-0.632384	1.033836	0.860389
H	-0.290282	0.910318	1.887836
H	-1.725692	0.839864	0.754211
H	-0.370707	2.024291	0.491798
N	-0.364129	-1.40253	0.507507
O	-0.310664	-2.327319	-0.302078
O	-0.574479	-1.530828	1.706726
N	0.322007	1.322494	-2.03128
O	1.399478	1.265346	-2.629163
O	-0.319687	2.356561	-1.854304
C	-1.635194	-0.152729	-2.140186
H	-1.56184	0.085363	-3.207767
H	-2.400037	0.397746	-1.585687
H	-1.919956	-1.197575	-2.025992
F	-3.071321	0.0	0.0
