19

C	0.0	0.0	0.0
C	-0.268251	0.167199	-1.526094
F	1.367191	0.0	0.0
H	0.454472	-0.502322	-1.989608
C	-0.643423	0.947502	0.946316
H	-0.313781	0.731174	1.96277
H	-0.383143	1.968921	0.675132
H	-1.736703	0.763303	0.814059
N	-0.363215	-1.44278	0.373349
O	-0.656606	-1.675171	1.53948
O	-0.225673	-2.294629	-0.50283
N	0.259633	1.529297	-1.894519
O	-0.443387	2.50943	-1.656402
O	1.358419	1.578349	-2.45299
C	-1.637048	-0.010945	-2.136579
H	-2.421649	0.446837	-1.520121
H	-1.870118	-1.076073	-2.128384
H	-1.59144	0.334677	-3.174753
F	-3.106441	0.0	0.0
