19

C	0.0	0.0	0.0
C	-0.454816	-0.147484	-1.475682
F	1.366348	0.0	0.0
H	0.450194	0.115327	-2.040795
C	-0.368428	1.255769	0.763982
H	-1.452117	1.31236	0.805341
H	0.070888	1.163142	1.757767
H	0.078632	2.105418	0.254428
N	-0.328487	-1.2201	0.874771
O	0.03743	-2.314277	0.44627
O	-0.792488	-1.042367	1.991251
N	-1.417912	0.931844	-1.941105
O	-1.081471	2.09589	-1.726461
O	-2.350729	0.616115	-2.664231
C	-0.967627	-1.493096	-1.943377
H	-1.219006	-1.421772	-3.001247
H	-1.864239	-1.714744	-1.367882
H	-0.203227	-2.254537	-1.806156
F	-2.509619	0.0	0.0
