17
Coordinates from ORCA-job run
  C   0.61525491267535      0.56390170607627     -0.36854813819285
  C   -0.63849709256222     -0.32213386668872     -0.16321894229804
  Br  0.15081326328148      2.12866425620561     -1.47285450675227
  H   -0.91670410887397     -0.67147629800625     -1.16434145600513
  C   1.74265165734026     -0.18330444152110     -1.07321403345352
  H   1.39298790422906     -0.52146028972198     -2.05110025572808
  H   2.02004091330152     -1.04824913128141     -0.47221695548039
  H   2.60489804473690      0.46931780528872     -1.21453972107735
  C   1.05891803855288      1.06337128357175      0.93091933428689
  N   1.39511443150826      1.40237218582954      2.00547126836456
  C   -1.81817207291905      0.40821473256962      0.47159305580475
  H   -2.63426613186387     -0.30290764875720      0.62205895955312
  H   -1.53607497044086      0.81001678616041      1.44958870031203
  H   -2.18825718649817      1.22783323462742     -0.14404811165083
  N   -0.19605228213952     -1.48545883394822      0.60673589468016
  H   -0.23482438365567     -1.27397818779616      1.59859414771094
  H   -0.81883093667238     -2.26572329260831      0.43812075992600
