17
Coordinates from ORCA-job run
  C   0.65979605564907      0.28665907788278     -0.53268231065385
  C   -0.71422942569879      0.13009827578445      0.14992762917675
  Br  0.89287461625144     -1.11929068784105     -1.90299573984023
  H   -0.77765514648737      1.00131303268412      0.81661437429003
  C   1.83603106474691      0.19956357304433      0.43436756251552
  H   2.77027011266180      0.41749635811793     -0.08378587741314
  H   1.69900792395159      0.93424148257692      1.23394510084872
  H   1.90479926781576     -0.79744207450619      0.86835972204416
  C   0.69400213623829      1.56601763404706     -1.23918744705823
  N   0.78186073779307      2.62584460008580     -1.73921990691061
  C   -0.83345729771649     -1.13543653911401      0.99682902904094
  H   -0.11328504044375     -1.16565260182728      1.81731344415676
  H   -1.83418332986610     -1.17144545994747      1.43431313127637
  H   -0.70127794628868     -2.02821534870146      0.38117961805576
  N   -1.75500415519738      0.29950396395383     -0.85237777807095
  H   -2.63697597094972      0.51305236861148     -0.40340681597148
  H   -1.87257360245965     -0.55730765485125     -1.38119373548653
