17
Coordinates from ORCA-job run
  C   0.71062495328166      0.18823571696352     -0.49520340841373
  C   -0.71026566898287     -0.02916812691105      0.07824174417139
  Br  1.40463127804615     -1.45905338962398     -1.30809382407619
  H   -0.93916406355362      0.93682650649576      0.56420102031770
  C   1.71193086542229      0.66955904359832      0.55230099408003
  H   1.87770302203543     -0.10197392306248      1.30362331525608
  H   1.32972544696490      1.57264842142756      1.03723672531793
  H   2.66780817970027      0.90194574934667      0.08231204215272
  C   0.61392204369418      1.17867756719036     -1.56716282963573
  N   0.50511675291876      2.02183976526962     -2.37931966414760
  C   -0.77890737813520     -1.12200012395354      1.13289072581697
  H   -0.60347136708561     -2.09631590705221      0.67558578570226
  H   -1.77688019506444     -1.12528979458133      1.58024941425389
  H   -0.06101868977383     -0.96804482522422      1.93876049414517
  N   -1.62646464013486     -0.34945387565265     -1.00323738865728
  H   -1.82384600053973      0.46801919728575     -1.56872121579853
  H   -2.50344453879346     -0.68545200151610     -0.62566393048510
