17
Coordinates from ORCA-job run
  C   0.56055809193915      0.50648517862166     -0.60615745675571
  C   -0.80529672727762     -0.12442506510862     -0.24432517414312
  Br  0.79124835671156      0.37786732114112     -2.56796661552565
  H   -1.56111500390952      0.44305755657931     -0.80857700482999
  C   1.74943653430156     -0.17079100517501      0.06250115002239
  H   1.71594107651084     -1.23772189665614     -0.15188748889369
  H   2.68440170057195      0.25540105759007     -0.30206862576295
  H   1.69784424525809     -0.01744417720932      1.14311005027239
  C   0.53187869581208      1.93413059198298     -0.30068077418297
  N   0.49615476949298      3.07139326857145     -0.00453527618209
  C   -1.09848401514798      0.02255224429231      1.24476922647580
  H   -1.00296781239679      1.05648622453274      1.58017891804537
  H   -0.43218493873298     -0.61296138808217      1.83075882771751
  H   -2.12619147707682     -0.29470867669293      1.44225245581053
  N   -0.77875613369928     -1.54083431355049     -0.58214655693027
  H   -1.56960540597365     -2.00373171058870     -0.15090557473048
  H   -0.85586195638357     -1.66575521024826     -1.58432008040708
