17
Coordinates from ORCA-job run
  C   0.57491935451642      0.50116958490212     -0.59760689900764
  C   -0.80051059268193     -0.12215399382344     -0.25895730277098
  Br  0.84229611250112      0.36255115389464     -2.55389406800670
  H   -1.54270149831493      0.44578664011422     -0.84048957833510
  C   1.74770963931976     -0.17832464670284      0.09632299728972
  H   2.69151037371532      0.24275016911540     -0.25095998248782
  H   1.67545444117386     -0.02165156950684      1.17525769951036
  H   1.71408146563051     -1.24573752478263     -0.11541945567050
  C   0.54602705054035      1.93028812853405     -0.29886129556792
  N   0.50740962518673      3.06887038769774     -0.00868362286832
  C   -1.12196840836696      0.03350084765909      1.22339417061653
  H   -1.02994918754958      1.06909950825653      1.55501062180281
  H   -0.46917600173005     -0.60053406564809      1.82600315562919
  H   -2.15443310301280     -0.27969529810657      1.40222137069402
  N   -0.77357455542405     -1.54043802767447     -0.58925482576986
  H   -1.57465547281673     -1.99762585684709     -0.17094384581780
  H   -0.83243924268703     -1.66985543708180     -1.59213913923999
