17
Coordinates from ORCA-job run
  C   0.57001437677033      0.58608826841561     -0.39634695387345
  C   -0.66259022415573     -0.31421269378525     -0.12491063455394
  Br  0.04836237909575      2.02368566309594     -1.64342159984493
  H   -1.02909495747199     -0.61421524984673     -1.11727327830530
  C   1.71351440232175     -0.19075708172757     -1.03898401168468
  H   2.05579381210303     -0.95571693902212     -0.34086790112081
  H   1.36423514016321     -0.65902113468217     -1.96281855559288
  H   2.54441297841032      0.47358235333275     -1.27792495531323
  C   1.01198016519818      1.21984053948790      0.84209886338957
  N   1.36528128292049      1.71009181421479      1.85028918174355
  C   -1.77024205271532      0.40597914439753      0.62786179965199
  H   -1.43309252473864      0.65804800280730      1.63696293982313
  H   -2.64171409519816     -0.24898369322343      0.70706478136101
  H   -2.07754736176088      1.32221276265979      0.12546614206852
  N   -0.18892705978193     -1.44979080892547      0.66024623287488
  H   -0.85927272710861     -1.70614726388385      1.37199964872488
  H   -0.01211353405181     -2.25868368331501      0.08055830065170
