17
Coordinates from ORCA-job run
  C   0.76285879114006      0.18099916867189     -0.41522406203559
  C   -0.71084009634039     -0.06981605665355     -0.01500313273144
  Br  1.65314377392222     -1.49409036142542     -0.92275442250381
  H   -1.05908340687444      0.92693113160993      0.31195521003968
  C   1.57874935232298      0.84618397536540      0.69072907841647
  H   1.08263107839474      1.76774427939855      1.00919879100206
  H   1.68041195528394      0.17670169254344      1.54436392467130
  H   2.57675154220660      1.09285350762852      0.32774574785099
  C   0.76382087836754      1.03461738021735     -1.60306784884035
  N   0.71147861058913      1.76408962026056     -2.52364226643569
  C   -0.86744866308526     -1.03531086632502      1.14887534124666
  H   -1.91780341158355     -1.06253067474992      1.45236631313165
  H   -0.28461415088722     -0.73457398900092      2.01971775990127
  H   -0.57075400524308     -2.03999645294163      0.84594843355275
  N   -1.44578254723379     -0.57787915117924     -1.16090567260571
  H   -1.60451907283924      0.15199938230186     -1.84575662155681
  H   -2.34800062814023     -0.92892258572180     -0.86554657310342
