18

C	0.0	0.0	0.0
C	-0.27312	-0.063809	-1.561477
Br	1.944164	0.0	0.0
H	0.587838	0.470173	-1.964921
N	-0.36802	1.325352	0.656617
O	-0.522283	1.312614	1.868426
O	-0.3689	2.30551	-0.072204
C	-0.476568	-1.115112	0.798796
N	-0.614449	-2.106417	1.419
C	-1.465387	0.58549	-2.273435
H	-1.10277	0.759644	-3.298917
H	-1.758564	1.537684	-1.8412
H	-2.335449	-0.058671	-2.289904
C	-0.176581	-1.530898	-1.992207
H	-1.045288	-2.074604	-1.615211
H	0.733085	-2.024431	-1.642736
H	-0.186345	-1.576674	-3.085544
Cl	-3.204189	0.0	0.0
