18

C	0.0	0.0	0.0
C	-0.600851	0.393982	-1.348864
Br	1.943111	0.0	0.0
H	-1.640024	0.639743	-1.080844
N	-0.386931	0.977517	1.128296
O	-0.512546	2.15341	0.819654
O	-0.453539	0.508617	2.254502
C	-0.389699	-1.339098	0.435464
N	-0.573972	-2.462108	0.730483
C	-0.654942	-0.816822	-2.276474
H	0.333652	-1.265945	-2.421802
H	-1.344693	-1.568108	-1.889464
H	-1.030107	-0.496039	-3.252933
C	0.07918	1.570167	-2.043868
H	-0.574031	1.897707	-2.858386
H	0.237035	2.413266	-1.375432
H	1.038277	1.273727	-2.480386
Cl	-3.566778	0.0	0.0
