14

C	0.0	0.0	0.0
C	-0.420061	-0.109688	-1.473882
F	1.399758	0.0	0.0
H	0.339931	0.450037	-2.036991
H	-0.306886	0.980367	0.380268
H	-0.325253	-1.165271	-1.769026
C	-0.535641	-1.088891	0.889915
H	-0.206583	-2.067122	0.524125
H	-1.630762	-1.035843	0.870192
H	-0.181927	-0.958833	1.917443
N	-1.729964	0.385545	-1.858887
H	-2.470952	0.084736	-1.198586
H	-1.720129	1.393052	-1.776069
H	-3.745992	0.0	0.0
