14
Coordinates from ORCA-job run
  C   -0.59915316053651     -0.39241016263971      0.81722369621878
  C   0.49280675360869      0.51638431482987      0.26223508748217
  Br  -1.75277722169839      0.64853701729984      1.99393705287251
  H   0.87349631448758      1.22497344692995      0.99472113864949
  H   -0.11020331090879     -1.11035422622051      1.48515556311393
  N   -1.39125795667340     -0.94636530970742     -0.24496583423947
  H   -0.81270429299188     -1.56522149813265     -0.80298853658326
  H   -2.16693887975449     -1.47364220018048      0.13476460704375
  N   -0.01044593271739      1.30439764932757     -0.91654132649817
  O   -0.60256608249177      2.33686616198292     -0.63629558862732
  O   0.18799802969483      0.83273878063876     -2.02807423147363
  N   1.67294278826191     -0.27381058229056     -0.22885607157119
  O   2.70570351151755      0.36877776481868     -0.37842500245972
  O   1.51409944020205     -1.47087115665628     -0.45389055392787
