14
Coordinates from ORCA-job run
  C   -0.54115380950401     -0.64104285456605      0.70244927506643
  C   0.52101778410884     -0.07628010014384     -0.25326068930407
  Br  -0.77240948819598      0.48974521139443      2.26931993111776
  H   0.83831282420249     -0.85898751537884     -0.94411547966545
  H   -0.12785087965761     -1.57353091283689      1.08847793884918
  N   -1.80838267521187     -0.89675537118551      0.09354854446421
  H   -2.22910591188562     -0.06272398316163     -0.29372636676317
  H   -1.76175714164898     -1.63673776548522     -0.59494233903706
  N   1.76478358361134      0.36077894652868      0.46470214218938
  O   2.29184354523412     -0.53454688704434      1.11400464009500
  O   2.14262643863901      1.51640624335853      0.34023129415121
  N   0.01744388533523      1.03627988197455     -1.11041135083395
  O   -0.62188786976540      1.93069801156959     -0.56886200804817
  O   0.28551971473845      0.94469709497654     -2.30741553228132
