14
Coordinates from ORCA-job run
  C   -0.56174729270577     -0.56675401610616      0.71919742178353
  C   0.43819751067711      0.50646618555569      0.33255217788979
  Br  -2.06265521443751      0.42022173389067      1.64390659299844
  H   0.80702209916227      1.04879456225956      1.20051321146553
  H   -0.11710270743465     -1.13972569604165      1.53116942926207
  N   -0.90669392205753     -1.41049857938581     -0.34124164038506
  H   -1.41593110523490     -2.22820644022650     -0.03933051632675
  H   -1.38348869682541     -0.93179836322327     -1.09215453463079
  N   -0.06770040147972      1.52816667664235     -0.63318457657591
  O   0.44463506442898      2.63850105502098     -0.53688152709476
  O   -0.90906354452610      1.17872117808015     -1.45483912687334
  N   1.62934904563416     -0.17463754747627     -0.30424974120706
  O   2.25792692308448     -0.88734866803570      0.46705919052863
  O   1.84825224171460      0.01809791904595     -1.49051636083431
