14
Coordinates from ORCA-job run
  C   -0.53952719572059     -0.45631850367368      0.80887933284903
  C   0.52493717825100      0.46942872000586      0.25107174905011
  Br  -1.81366321542217      0.74937233143584      1.81092413738120
  H   1.04352057972788      1.01191560102042      1.03867675011132
  H   -0.07533743387714     -1.03092342310170      1.60870604868993
  N   -1.08811526822553     -1.31241757898417     -0.15127722201964
  H   -1.64893019258027     -2.04677363055063      0.25550335289901
  H   -1.58720474003284     -0.82472560742910     -0.88171028742141
  N   0.03250228870773      1.48857328842365     -0.72429688559916
  O   -0.92399155723734      1.19280550293792     -1.43335904170289
  O   0.66826649551631      2.53708682858301     -0.75258903141928
  N   1.55750437337790     -0.38018257783736     -0.45594371103427
  O   1.66691839867921     -0.27994536514465     -1.66849556107668
  O   2.18312028883583     -1.11789558568543      0.29391036929279
