14
Coordinates from ORCA-job run
  C   -0.68301137758230     -0.48696188721403      0.69059701647928
  C   0.48183421975700      0.44824832709845      0.38215090567078
  Br  -1.90964685523466      0.40804277486170      1.91182237348140
  H   0.81475628992957      1.01805930910831      1.24706520163359
  H   -0.27876070742722     -1.32021214027639      1.27618670884750
  N   -1.38899242396539     -0.83559352652939     -0.51080870909219
  H   -0.78128686040565     -1.39061281218379     -1.10386873473568
  H   -2.21487189115670     -1.37586994992025     -0.28743278311779
  N   0.11226597020729      1.42915660592694     -0.69717403801322
  O   -0.47741770376279      2.42809106334242     -0.31047598711045
  O   0.40234025187738      1.12871733165687     -1.84725061030336
  N   1.67822954469824     -0.30770111295447     -0.12327848958160
  O   2.73886514039254      0.30470005304948     -0.08057609350118
  O   1.50569640267268     -1.44806403596588     -0.54595676065708
