14
Coordinates from ORCA-job run
  C   -0.58102170967324     -0.77305098914453      0.44327941366655
  C   0.33998948770847      0.41027123177775      0.18473169121800
  Br  -0.37015986084032     -1.19865972238120      2.34251119680678
  H   0.11509371007543      1.28575342814621      0.79055323347547
  H   -0.21098150764292     -1.63191864184582     -0.11333459134799
  N   -1.95095352709166     -0.54728300613132      0.13507132579894
  H   -2.31777134973410      0.31471730607075      0.51460144627929
  H   -2.13171181474269     -0.62655012881726     -0.85581048506291
  N   0.25042268456190      0.83314770052814     -1.25738496511885
  O   0.41079646354431      2.03057279593793     -1.47732766260866
  O   0.04700350296263     -0.04771461990823     -2.08836284977780
  N   1.78429437751848      0.06698998654874      0.40958903337017
  O   2.43092765535017      0.84043246928149      1.10742155267847
  O   2.18407188800355     -0.95670781006266     -0.13653833937744
