14
Coordinates from ORCA-job run
  C   -0.49119137675455     -0.81594347206084      0.23412922301141
  C   0.33643938304530      0.45278776024643      0.25602656320732
  Br  -0.21334819388455     -1.71021163845421      1.94249667727874
  H   0.03642914689782      1.13891577491533      1.04376786706617
  H   -0.09869271965422     -1.48623415720471     -0.53062261215421
  N   -1.87004038041660     -0.43036348182486      0.04032571667762
  H   -2.47725240512740     -0.83339103274188      0.73876542438000
  H   -2.18189740656971     -0.71388801069767     -0.87887194587946
  N   0.18589434572941      1.17804280576204     -1.05458576789102
  O   0.44145402289944      2.37705001911112     -1.02685727858029
  O   -0.13953176077373      0.51639784562963     -2.03524152777896
  N   1.80134632358216      0.17910163536017      0.39342026321389
  O   2.27663706768542     -0.60196934808103     -0.42730596666484
  O   2.39175395334119      0.74870530004046      1.30455336411364
