14
Coordinates from ORCA-job run
  C   -0.56974692770430     -0.54821465779971      0.72693150661257
  C   0.43231802716178      0.51689831189298      0.32367156159376
  Br  -2.08514525646565      0.46024772484558      1.60447293358574
  H   0.78821203679831      1.08377631279303      1.18125169170294
  H   -0.13436912571621     -1.09664386532005      1.56061844531626
  N   -0.89888918514879     -1.42223119844535     -0.31368126412747
  H   -1.41099774279905     -2.23237162835300      0.00358020900305
  H   -1.36526704188816     -0.96599258344730     -1.08491962451516
  N   -0.06316570951949      1.51019859472405     -0.67649106051438
  O   0.44640161336655      2.62362658375459     -0.60504716262718
  O   -0.89371182549206      1.13640277461549     -1.49837058049958
  N   1.63352626622284     -0.17813693087259     -0.27829262724804
  O   1.86517494058640     -0.02116400825048     -1.46738280936418
  O   2.25565993059786     -0.86439543013720      0.52165878108165
