14
Coordinates from ORCA-job run
  C   -0.62980260180676     -0.69954934879088      0.49601851262386
  C   0.38944821949368      0.37712792753819      0.15403336829782
  Br  -0.35179211153533     -1.10407261580466      2.39161046055801
  H   0.28737118232454      1.28469155644735      0.74566615569587
  H   -0.38220815074473     -1.60389200864873     -0.05646321120873
  N   -1.98505134795648     -0.34023270506501      0.25887330575198
  H   -2.23239354821892     -0.42680751807299     -0.71680697409806
  H   -2.23896848149912      0.56439872812911      0.63128218383801
  N   0.26115424580340      0.77394423838852     -1.29291459682646
  O   -0.07973403109647     -0.09921243145805     -2.08602157199053
  O   0.53191507145107      1.94256709794792     -1.55519106738558
  N   1.80226567977839     -0.10547692207943      0.30931714972847
  O   2.56228163203939      0.61445727684316      0.94767124217047
  O   2.06551424196740     -1.17694327537449     -0.22807495715517
