14
Coordinates from ORCA-job run
  C   -0.61823319673611     -0.51070852429063      0.82196061311033
  C   0.46183714797628      0.46247077601354      0.31126522981325
  Br  -1.70430112634605      0.46461204475002      2.12172430808038
  H   0.87120907092793      1.08745086441805      1.10367290803914
  H   -0.07949127186449     -1.25710519605655      1.41215849638175
  N   -1.45189172603487     -1.18147598779221     -0.11659782440082
  H   -0.90580745517999     -1.80475002330822     -0.69800823799649
  H   -1.96104386258326     -0.52428070228706     -0.69140969280154
  N   0.02126611785603      1.39104981920768     -0.78930815114784
  O   -1.18027610448802      1.59209272834854     -0.92011748787431
  O   0.92626047920687      1.90620257340631     -1.43432284159726
  N   1.60123526151134     -0.33387167792124     -0.24547276363792
  O   1.34577803857220     -1.03733056705819     -1.21985944813213
  O   2.67345862718213     -0.25335612743003      0.34431489216345
