14
Coordinates from ORCA-job run
  C   -0.50472249138613     -0.80462560433832      0.24525674263538
  C   0.35139369593927      0.44167916753709      0.21015571143249
  Br  -0.29054237903887     -1.55460297822537      2.08982376725884
  H   0.08796661561364      1.18367610766647      0.96038319252577
  H   -0.07237701989235     -1.55626680514870     -0.41187879914970
  N   -1.82277648034405     -0.48895929145874     -0.13560631370443
  H   -2.37968061522417     -1.31364849001833     -0.30965091172186
  H   -2.29686608991658      0.11126825214397      0.52700177127183
  N   0.18876692030528      1.09092010482305     -1.13944465738770
  O   0.57337930831734      0.44331965497616     -2.10477453527291
  O   -0.34191560987683      2.19525809492121     -1.14347937439961
  N   1.81149553077452      0.14293578225606      0.37366044418045
  O   2.46805381086421      1.02195387900302      0.92638467863243
  O   2.22882480386474     -0.91290787413750     -0.08683171630105
