14
Coordinates from ORCA-job run
  C   -0.54235048110226     -0.80652986888560      0.48452387118431
  C   0.46152916573316      0.03022965412573     -0.31737284465755
  Br  -0.61049174844052     -0.20457421691041      2.33903649555531
  H   0.64686240019325     -0.45188341388465     -1.27909023916400
  H   -0.10948277819196     -1.80727019574702      0.53195514135274
  N   -1.85402821423823     -0.88676457183227     -0.06807661186593
  H   -2.26658023168857      0.02296233269558     -0.21644423337078
  H   -1.88531400571697     -1.45471490686734     -0.90386892332589
  N   1.79507608479721      0.08906298933084      0.37441720665548
  O   2.35981021799623     -0.99734359356308      0.43906047999387
  O   2.17530504550073      1.15671619306599      0.83055525272543
  N   0.03851699550162      1.42847949717587     -0.64620724120714
  O   0.72316472602091      1.97786451879993     -1.50291641546072
  O   -0.93101717636457      1.90476558249648     -0.06457193841519
