14
Coordinates from ORCA-job run
  C   -0.51491524799701     -0.69028882154387      0.55228028775828
  C   0.53583599049298     -0.04537578511461     -0.33587534613438
  Br  -0.81171413082672      0.39188278974204      2.20030669490654
  H   0.85491090398462     -0.76739215863106     -1.08800922855158
  H   -0.06329228664581     -1.60506049786012      0.93549787866767
  N   -1.66588576124387     -0.99486739045268     -0.20986932210115
  H   -2.25968601101318     -1.65828531457982      0.26845310069424
  H   -2.19613253546683     -0.16178031661013     -0.43074304667839
  N   1.76221513654169      0.31526260666108      0.45687446281779
  O   2.04833402948866      1.49497815352141      0.59304997359770
  O   2.34955623714940     -0.65625590622562      0.91793055140037
  N   0.08712454768595      1.16457596162134     -1.09327171889015
  O   0.83187855399758      1.49765016969339     -2.00824599298857
  O   -0.95722942614747      1.71495650977861     -0.75837829449830
