14
Coordinates from ORCA-job run
  C   -0.57856612561790     -0.54337388793896      0.72447545893598
  C   0.41538937900227     -0.03420637817315     -0.33155104316822
  Br  -0.79074623107306      0.79674197733031      2.12852508247587
  H   0.33756363792419     -0.64234548209111     -1.23418057698566
  H   -0.11055693995280     -1.39900781631814      1.21236605179398
  N   -1.85858090524442     -0.91968994482702      0.21830397807926
  H   -2.24605164475086     -0.21293668994213     -0.39268127600839
  H   -1.82503892995884     -1.81577966421739     -0.25023633742683
  N   1.85817493897725     -0.09592753813224      0.07655357437964
  O   2.65313448529354      0.12005103160715     -0.83207816187354
  O   2.12444286176747     -0.37501868798701      1.24019319274217
  N   0.10447441757381      1.37235969161593     -0.75600777265612
  O   0.85735807349044      2.27132172055647     -0.41721014227462
  O   -0.94299701743108      1.47781166851731     -1.38847202801349
