14
Coordinates from ORCA-job run
  C   -0.56719920886503     -0.79570600013877      0.42150468389975
  C   0.31621001512423      0.42254693364994      0.19510655751453
  Br  -0.40486938756788     -1.21820937546913      2.32576271875201
  H   0.03465724294421      1.28880593090273      0.79053557401748
  H   -0.14648371602866     -1.63843626475991     -0.12376878703953
  N   -1.93415208574765     -0.62187388234700      0.06811101260411
  H   -2.34617588765417      0.22287903814603      0.44015535207432
  H   -2.07588676608494     -0.69852914017594     -0.92938442486257
  N   0.26595885500248      0.84235469947042     -1.25019706099436
  O   0.41422930512606      2.04215700819277     -1.46530311889557
  O   0.10513164712529     -0.04157031890389     -2.08716374731688
  N   1.76303958840140      0.13519365267114      0.47405951388121
  O   2.22488272278588     -0.86400895955015     -0.06867813576755
  O   2.34965767543877      0.92339667831178      1.20725986213303
