14
Coordinates from ORCA-job run
  C   -0.63646921630624     -0.46654627176823      0.72910243039524
  C   0.44942258730197      0.50830282866462      0.31408354419846
  Br  -2.12348689944849      0.68426828657773      1.46749231121089
  H   0.80192396567747      1.10370634250260      1.15355721964387
  H   -0.27557822661235     -0.98774625686952      1.61424581071741
  N   -0.97166814044048     -1.38201565188005     -0.27345731768349
  H   -1.36992113489872     -0.94722601045655     -1.09367106192912
  H   -1.54945785162168     -2.13762657592447      0.06477314491336
  N   0.06348341494737      1.46688955826002     -0.76491425935041
  O   -0.74491927155912      1.09130444576273     -1.60784722761430
  O   0.63182885702592      2.55330089726945     -0.72876158034431
  N   1.62975977770105     -0.29463562075690     -0.18630696822647
  O   1.92718595473978     -0.22281962075692     -1.36892354530192
  O   2.16789618349351     -0.96915635062450      0.68162749937073
