14
Coordinates from ORCA-job run
  C   -0.59667480297493     -0.55541040400067      0.69911319554987
  C   0.43359879674508      0.50074826719393      0.34644945028441
  Br  -2.11587469994329      0.45971178248689      1.56264901349696
  H   0.77870797303135      1.03919439052183      1.22648731835874
  H   -0.19218941196180     -1.13114735629805      1.52992230978360
  N   -0.91494693042102     -1.39862747810769     -0.36979318476952
  H   -1.44899751459177     -2.20651122464858     -0.08464712145210
  H   -1.35285027145650     -0.91627989561424     -1.14180684567960
  N   -0.02142840909156      1.52713660545934     -0.63928261107348
  O   0.49605569260577      2.63289241490252     -0.52118024854441
  O   -0.83044528891446      1.18469015855859     -1.49554366868157
  N   1.63700471621213     -0.20040899154162     -0.24391141767801
  O   1.90250518312106     -0.01529829971885     -1.42183641080082
  O   2.22553496763993     -0.91968996919343      0.55238022120597
