14
Coordinates from ORCA-job run
  C   -0.56573270200806     -0.59928646792562      0.70739804581769
  C   0.47977454179337     -0.07081119526079     -0.28177406605103
  Br  -0.75157940642513      0.61496871103014      2.22287297629417
  H   0.72672524631451     -0.85486783161185     -1.00008428048744
  H   -0.12999574389536     -1.50685391195847      1.12880736197010
  N   -1.84074971081312     -0.90551601419451      0.14766463390197
  H   -2.24971410672919     -0.11746883640478     -0.33361021758984
  H   -1.81605226637324     -1.73055773356934     -0.43619368523587
  N   1.76834303190963      0.26384554139611      0.41719312264653
  O   2.33462889133894     -0.71468375610972      0.89168329287162
  O   2.11315240590409      1.43367574091394      0.48828840812887
  N   0.06907314625503      1.11049197925669     -1.10524585758395
  O   -0.93816608774575      1.73309064211503     -0.78432809012367
  O   0.80229276047426      1.34297313232317     -2.06067164455917
