14
Coordinates from ORCA-job run
  C   -0.47841202563884     -0.82215500519593      0.37671176175900
  C   0.50467668763303      0.05522040173414     -0.37972947891187
  Br  -0.61633929540444     -0.25131030875157      2.28268789573074
  H   0.74727750518316     -0.42206642198846     -1.32956788885223
  H   -0.01201557848317     -1.80454227663105      0.44718000597163
  N   -1.69455323854628     -0.90755051867339     -0.33842481048746
  H   -2.22704573108430     -0.04984484064945     -0.26950905782046
  H   -2.25714194598389     -1.68348179902093     -0.01766190919485
  N   1.79936310195531      0.18676092753119      0.37455504338609
  O   2.11634039796001      1.28238264295663      0.81189878753132
  O   2.40645727895072     -0.87112158565079      0.49191267085027
  N   0.01422457486385      1.42656974504352     -0.72387646179786
  O   -0.98875998546201      1.85203629669649     -0.15929505621564
  O   0.68492825405683      2.01010274259963     -1.56788150194864
