14
Coordinates from ORCA-job run
  C   -0.68702054282726     -0.49128861992508      0.68441366917501
  C   0.47974381502655      0.44479224152233      0.38707416807084
  Br  -1.91783210348318      0.39961244340443      1.90557466610141
  H   0.80953066095851      1.00768705754421      1.25770815212500
  H   -0.28660402108260     -1.32790942120719      1.26774057763906
  N   -1.38856047340278     -0.83256115542900     -0.52133242809324
  H   -0.77653322747806     -1.37812740629237     -1.11873027541912
  H   -2.21142616740349     -1.38012884562519     -0.30460753345136
  N   0.11668845337408      1.43391765445347     -0.68622318673973
  O   0.40361513847177      1.13669858790054     -1.83810325423501
  O   -0.46511296025752      2.43572428284810     -0.29468753132564
  N   1.67811577782522     -0.30825352688562     -0.11892107574295
  O   1.50775884283477     -1.44785549478701     -0.54453420991880
  O   2.73763680744404      0.30569220247838     -0.07337173818548
