14
Coordinates from ORCA-job run
  C   -0.56571753453556     -0.77562351886880      0.19767098984299
  C   0.37645001579880      0.40692382505813      0.23325395842762
  Br  -0.43907709502668     -1.62462558852601      2.00532223228635
  H   0.14512501492812      1.13480475149469      1.00758531901273
  H   -0.17734927758744     -1.52296780611198     -0.49111680260003
  N   -1.85118400046581     -0.34658123964907     -0.18574869315103
  H   -2.29391599515942      0.24965361744918      0.50167306442057
  H   -2.46149681504099     -1.11915129154582     -0.41205869015791
  N   0.29411870204632      1.12015602693235     -1.09128480437979
  O   -0.12963291857581      2.26938730536915     -1.05758311856348
  O   0.63018082413038      0.47680019340432     -2.07743617494321
  N   1.80699496613361     -0.00111281656767      0.41685967638465
  O   2.16190492191390     -1.05858123889581     -0.09032277137716
  O   2.50459919144054      0.79191778045738      1.04418581479772
