14
Coordinates from ORCA-job run
  C   -0.57490609750089     -0.55552133828383      0.61728455514216
  C   0.53691019432044     -0.03969145308105     -0.28896132460194
  Br  -0.87083002275019      0.57655461379683      2.16581695314509
  H   0.77498590976292     -0.79957035173604     -1.03670992447676
  H   -0.22500938166141     -1.50053241832974      1.04205482014658
  N   -1.78276632219166     -0.60790939915547     -0.17065686602149
  H   -1.70238853004145     -1.31779417047970     -0.89189805715000
  H   -2.57707515958819     -0.83039709633099      0.41521692473491
  N   1.81694441549840      0.20107310470530      0.46060392324398
  O   2.43258249271973      1.23545414949278      0.25228586676591
  O   2.15061254517498     -0.73028117344891      1.18442043205758
  N   0.11740046035357      1.17032130798087     -1.05637125308002
  O   0.00164836893542      1.00211577266999     -2.26844588079180
  O   -0.09810887303167      2.19517845219998     -0.42664016911421
