14
Coordinates from ORCA-job run
  C   -0.55605770129751     -0.82236538679152      0.38323002438285
  C   0.33138624145753      0.40210298026058      0.21515211961952
  Br  -0.31530998544321     -1.39672926363153      2.23897051797360
  H   0.08934710571233      1.21888204831297      0.89216784724512
  H   -0.17009893111540     -1.62287761552959     -0.24492593525967
  N   -1.93433527793071     -0.60778249292061      0.10514283265539
  H   -2.12289507213078     -0.61152615862219     -0.88743597370579
  H   -2.31888672628763      0.21100829435513      0.55607805420879
  N   0.21557964930098      0.93843772454481     -1.18681128979009
  O   0.33711824285641      2.15418674180383     -1.30970765273457
  O   0.03149774802709      0.12196395097591     -2.08541151020541
  N   1.78611500080003      0.08108124684246      0.39988904367039
  O   2.20788067330143     -0.88348718895402     -0.23068013533369
  O   2.41865903274946      0.81310511935379      1.15334205727359
