14
Coordinates from ORCA-job run
  C   -0.52413940327524     -0.72086514325080      0.62083125018459
  C   0.46251395433929     -0.01606788462596     -0.31739752570401
  Br  -0.61628597912799      0.20113489745005      2.33761622955134
  H   0.66672409945126     -0.65779376473543     -1.17655910123296
  H   -0.06751443823862     -1.68608837840244      0.84662424368960
  N   -1.83107478310815     -0.93170353897226      0.09112534180731
  H   -1.84251772434981     -1.63910658577342     -0.63118152711874
  H   -2.26500776938926     -0.07357597526597     -0.21756576551924
  N   1.78990101634801      0.20218571632617      0.35436370868720
  O   2.13946899428464      1.34450007776466      0.61008081169546
  O   2.38167033416785     -0.83928810976361      0.61574794815855
  N   0.00540364959896      1.28859586101392     -0.89291425596757
  O   0.67852937020837      1.69082511136421     -1.83616317199058
  O   -0.97667132090929      1.83824771687087     -0.40460818624096
