20

C	-0.081686	-0.007645	-1.528858
C	0.0	0.0	0.0
Br	-1.994888	0.055971	-2.197334
H	1.100607	0.0	0.0
C	0.643643	1.215652	-2.068987
H	0.714284	1.18538	-3.158459
H	0.153141	2.14539	-1.779788
H	1.640918	1.158342	-1.612
C	0.587225	-1.257369	-2.080139
H	0.690741	-1.203017	-3.168321
H	0.041162	-2.16758	-1.830482
H	1.577993	-1.263537	-1.602719
C	-0.582106	-1.21763	0.68924
H	-0.411395	-1.108455	1.76244
H	-1.663671	-1.298362	0.519741
H	-0.10455	-2.143965	0.362281
N	-0.48926	1.215931	0.64354
H	-1.359793	1.515618	0.210332
H	0.197688	1.948751	0.514359
F	2.747138	0.0	0.0
