16

C	-0.541074	-0.022689	-1.425671
C	0.0	0.0	0.0
Br	0.283807	1.451592	-2.428101
H	1.089284	0.0	0.0
H	-0.31902	0.962261	0.4193
N	-0.132209	-1.291774	-2.164815
O	-0.698175	-1.522285	-3.235738
O	0.724022	-2.003139	-1.655263
C	-2.046235	0.116014	-1.549999
H	-2.35804	1.019763	-1.024122
H	-2.539223	-0.750262	-1.098246
H	-2.350362	0.177146	-2.592968
N	-0.453508	-1.087686	0.854809
H	0.145589	-1.885112	0.693984
H	-1.416521	-1.350523	0.691984
H	2.961815	0.0	0.0
