16

C	-0.46112	0.016304	-1.438733
C	0.0	0.0	0.0
Br	0.041291	-1.639309	-2.328638
H	1.098858	0.0	0.0
H	-0.344823	0.942285	0.436409
N	-1.989998	0.139465	-1.45755
O	-2.408085	1.182571	-0.955345
O	-2.697467	-0.742114	-1.92397
C	0.148364	1.183297	-2.189297
H	-0.145608	1.176576	-3.241151
H	-0.179645	2.11402	-1.722624
H	1.234315	1.099297	-2.095484
N	-0.602425	-1.116137	0.737916
H	-0.555541	-0.88151	1.722131
H	0.017484	-1.911106	0.617852
H	2.984739	0.0	0.0
