16

C	-0.336022	-0.070155	-1.492356
C	0.0	0.0	0.0
Br	-0.101757	-1.891644	-2.180022
H	1.094043	0.0	0.0
H	-0.334343	0.995334	0.324487
N	-1.811049	0.231667	-1.749928
O	-2.100339	0.992064	-2.672212
O	-2.634337	-0.288594	-0.996551
C	0.551009	0.873196	-2.265106
H	0.389342	0.803258	-3.339655
H	1.585687	0.631237	-1.989512
H	0.345319	1.897191	-1.941309
N	-0.486682	-1.016735	0.904317
H	-1.413438	-1.321852	0.643841
H	0.147261	-1.804081	0.865514
H	2.941072	0.0	0.0
