16

C	-0.435954	0.01659	-1.441402
C	0.0	0.0	0.0
Br	-2.382702	-0.355019	-1.607981
H	1.095213	0.0	0.0
H	-0.296783	-0.981114	0.385112
N	-0.223427	1.38709	-2.068242
O	-0.684075	1.581168	-3.190074
O	0.463474	2.185468	-1.439641
C	0.358598	-0.969701	-2.265901
H	0.180995	-1.979953	-1.89422
H	0.080807	-0.913512	-3.318464
H	1.420371	-0.733306	-2.110977
N	-0.597718	1.06569	0.797924
H	0.129054	1.752089	0.958816
H	-0.86432	0.691324	1.697204
H	2.927519	0.0	0.0
