16

C	-0.38406	0.036019	-1.455311
C	0.0	0.0	0.0
Br	-2.343856	-0.184817	-1.71567
H	1.095951	0.0	0.0
H	-0.310858	-0.987924	0.355318
N	-0.052319	1.379579	-2.095694
O	0.429673	2.254197	-1.382224
O	-0.255948	1.488952	-3.303229
C	0.373227	-1.018762	-2.226979
H	1.441797	-0.846307	-2.03585
H	0.110705	-2.005114	-1.841741
H	0.145745	-0.96863	-3.290451
N	-0.62098	1.030445	0.828385
H	0.030959	1.803568	0.875044
H	-0.708171	0.662164	1.766968
H	2.927409	0.0	0.0
