16

C	-0.634425	-0.067622	-1.374308
C	0.0	0.0	0.0
Br	0.125437	1.341372	-2.502997
H	1.092574	0.0	0.0
H	-0.319597	0.95783	0.426923
N	-0.282513	-1.382671	-2.060801
O	0.606295	-2.066264	-1.567837
O	-0.920681	-1.670885	-3.07442
C	-2.142245	0.062662	-1.366708
H	-2.549081	0.005916	-2.374436
H	-2.409142	1.022203	-0.919823
H	-2.542401	-0.745134	-0.750789
N	-0.525215	-1.119287	0.806796
H	0.242077	-1.777958	0.895021
H	-0.721928	-0.779191	1.739564
H	2.968614	0.0	0.0
