16

C	0.0	0.0	0.0
C	-0.480537	-0.013403	-1.480924
Cl	1.792968	0.0	0.0
H	0.392339	-0.314976	-2.068767
H	-0.328337	0.902174	0.518354
C	-0.410979	-1.17027	0.774103
N	-0.6792	-2.124841	1.403006
C	-0.87323	1.407967	-1.876079
H	-1.070474	1.461015	-2.950257
H	-1.78881	1.695555	-1.351923
H	-0.075285	2.122304	-1.644689
C	-1.600582	-1.007314	-1.76852
H	-2.521835	-0.760618	-1.233045
H	-1.300988	-2.027176	-1.512405
H	-1.814466	-0.982016	-2.842722
Br	-4.632564	0.0	0.0
