14
Coordinates from ORCA-job run
  C   0.71079081710037     -0.16275167913220     -0.34143072906139
  C   -0.74932514629921      0.20885672900203     -0.09281808195950
  Cl  1.14359509017353      0.42693361776517     -1.96970197640036
  H   -0.90551680162460      1.28208871575131     -0.21964981161085
  H   0.78262315602318     -1.25094642170256     -0.37331740378113
  C   1.63400343939754      0.43292535192118      0.70326012725224
  H   1.40023235350350      0.03253682072313      1.69214864576618
  H   1.54289871858541      1.52072949810762      0.72711121375646
  H   2.66794471669340      0.18189184455967      0.46563644943789
  C   -1.18873003380998     -0.23178674911890      1.22716873679398
  N   -1.51062144218093     -0.58197772594119      2.30107857937491
  N   -1.63278033801389     -0.45893753538388     -1.12680865658499
  O   -1.52419264957692     -1.67499584236340     -1.22259538928739
  O   -2.37092187997139      0.27443337581206     -1.77208170369605
