14
Coordinates from ORCA-job run
  C   0.68801377013702      0.38117809851656     -0.56395769179054
  C   -0.83221140737934      0.38610652915530     -0.35594325402729
  Cl  1.20875863237649      2.08301674439690     -0.68344769918048
  H   -1.31341503888891      0.91815483087040     -1.17951950908438
  H   0.87385582555693     -0.06866776036783     -1.54050647551350
  C   1.43934889897118     -0.33900855785267      0.53562501650924
  H   1.25683004771972      0.13126228990009      1.50330270430224
  H   2.51007251895525     -0.30664786629568      0.33175808823521
  H   1.13248550510517     -1.38636560184733      0.58865415684675
  C   -1.23142767873022      0.95655164145188      0.92345658854219
  N   -1.53572287855113      1.44689327022232      1.94584959239343
  N   -1.30364009235251     -1.05056386076990     -0.46498517789488
  O   -1.25800366896041     -1.51522451539504     -1.59932235895022
  O   -1.63494443395922     -1.63668524198500      0.55803601961223
