14
Coordinates from ORCA-job run
  C   0.71906041787355     -0.14694659253773     -0.33210385301774
  C   -0.75598934417569      0.17585144835457     -0.10461759283365
  Cl  1.13876463835917      0.39988383391278     -1.97856885193629
  H   -0.95315726944306      1.23685265791872     -0.27107156431485
  H   0.83367860886519     -1.23184090910795     -0.32396581535032
  C   1.61064769869425      0.52172950243299      0.69576693616375
  H   1.46727887660098      1.60405629652884      0.68934164984126
  H   1.39380972696018      0.13801654217162      1.69489630316951
  H   2.65612425367262      0.31468855696904      0.46669497711178
  C   -1.18581472907770     -0.23346426345089      1.22845060631516
  N   -1.49960151383685     -0.55695783504192      2.31296930255835
  N   -1.60617204463858     -0.56287773629162     -1.11764457348292
  O   -1.44832558159145     -1.77600112506825     -1.17039556693975
  O   -2.36930373826259      0.11700962320980     -1.79175195728429
