14
Coordinates from ORCA-job run
  C   0.70698510518910     -0.24130320072364     -0.29996568140645
  C   -0.73264402449497      0.24158450178021     -0.13723173145493
  Cl  1.21410104899528      0.13990694765751     -1.96854517292689
  H   -0.81732848950831      1.30213091327024     -0.38296559134891
  H   0.71212110807690     -1.32881874021235     -0.21250367124764
  C   1.64033966904565      0.40912512765850      0.70215506126660
  H   1.61652718309461      1.49656944562945      0.60636739097927
  H   1.35835142987202      0.13349359246591      1.72061119349439
  H   2.66209049910327      0.07314093762690      0.52446820577545
  C   -1.22966545154189     -0.02569897965977      1.20853037463837
  N   -1.59777958118834     -0.23706325607455      2.30363827784897
  N   -1.63119320748969     -0.48071315055456     -1.12012995494277
  O   -1.59681529130620     -1.70419577782976     -1.08183853900352
  O   -2.30508999784743      0.22084163896592     -1.86359016167194
