14
Coordinates from ORCA-job run
  C   0.68075413357243     -0.03769208657662     -0.42908193650855
  C   -0.77068115401127      0.13837124494125      0.01155230330518
  Cl  0.87446040010298      0.81323488654192     -1.98594929223790
  H   -1.03676698701221      1.19632102052553      0.06026359904725
  H   0.84896598038369     -1.09717798238010     -0.62806502498920
  C   1.65463340407594      0.50393143044733      0.59917222394133
  H   2.67449628772323      0.40881139131082      0.22570124891568
  H   1.57493675059855     -0.05799050125910      1.53239444514604
  H   1.46079540936235      1.55981008931408      0.79931822198348
  C   -1.01884295733352     -0.52276803124115      1.28853089247183
  N   -1.18703681329034     -1.04803836699291      2.32549754107317
  N   -1.69842470447205     -0.47148007911302     -1.01928667791433
  O   -1.49018018379449     -1.64421579854098     -1.30361321732793
  O   -2.56710956590528      0.26088278302298     -1.47543432690603
