14
Coordinates from ORCA-job run
  C   0.56528469907488      0.56050564663503      0.37863630046873
  C   -0.67129018973753      0.28169823978273     -0.48839024898518
  Cl  0.11291476441788      0.57883558694863      2.10132993650430
  H   -0.35860013818515      0.26997498374456     -1.53631050179668
  H   0.87091465807718      1.58121276553931      0.13449880705020
  C   1.71138801101406     -0.40408230254704      0.13675179958498
  H   1.95810915926416     -0.44279907455063     -0.92707428177906
  H   2.58786811187772     -0.06295767114336      0.68871291202657
  H   1.46268073712404     -1.41054886271622      0.47087068128957
  C   -1.72271538673223      1.27227891387389     -0.29684204259776
  N   -2.53558952313578      2.11149072976896     -0.18228897991631
  N   -1.21091385706365     -1.10523204433676     -0.22471197332293
  O   -0.62636515175264     -2.00914395269560     -0.81561125612387
  O   -2.14268589424293     -1.22023295830350      0.56042884759742
