14
Coordinates from ORCA-job run
  C   0.67165355592175      0.37709816378745     -0.58597214897110
  C   -0.84239308558225      0.38175006779808     -0.33579892631116
  Cl  1.18582969234008      2.07861822919372     -0.73628186641443
  H   -1.34660121314049      0.90626325913394     -1.15028557250001
  H   0.83105757438306     -0.08171561870432     -1.56312604913907
  C   1.45454213271691     -0.33172623869656      0.49898440636585
  H   1.29882841328488      0.14711309138293      1.46718855266180
  H   1.15036742669049     -1.37884771280564      0.57033219710730
  H   2.51901728426643     -0.30066092323398      0.26453503590347
  C   -1.20643998469272      0.96200214725699      0.94944379455794
  N   -1.48398088497569      1.45985353264368      1.97581380060047
  N   -1.31468385320837     -1.05621791792705     -0.41993787696226
  O   -1.61347164173128     -1.63552732634848      0.61689089492321
  O   -1.30372541627281     -1.52900275348076     -1.55178624182201
