14
Coordinates from ORCA-job run
  C   0.65429246340364      0.39955614160290     -0.59002494284674
  C   -0.85828311907020      0.34461618310009     -0.33693583570632
  Cl  1.09873073704079      2.11933953597614     -0.75460878154866
  H   -1.38484200690755      0.84084893970145     -1.15495092309757
  H   0.83048608418647     -0.06002011534110     -1.56390135108970
  C   1.46758795493678     -0.26833653571688      0.49846581003736
  H   1.29592863042403      0.21242705249334      1.46301496261803
  H   1.20519762886555     -1.32595303568268      0.57954969178118
  H   2.52936570978361     -0.19727518647003      0.26017791924296
  C   -1.24384890591095      0.92027635111598      0.94397911716779
  N   -1.53839387674366      1.41509488364122      1.96702516031790
  N   -1.27077016561055     -1.11212652811803     -0.40829467290907
  O   -1.24348424513860     -1.59312831510820     -1.53641738941716
  O   -1.54196688925934     -1.69531937119421      0.63392123545001
