14
Coordinates from ORCA-job run
  C   0.68156476531113     -0.03155703250434     -0.42801646013009
  C   -0.77142515896997      0.13356684115204      0.01160044217181
  Cl  0.87301535400446      0.82988186440680     -1.97943768223604
  H   -1.04324417347965      1.18972638349394      0.06820511219157
  H   0.85588973295665     -1.08870120442480     -0.63382173019973
  C   1.65120119898506      0.50931077728968      0.60462995910353
  H   1.45459085220209      1.56441194395664      0.80617985344207
  H   1.56970807616449     -0.05479241103124      1.53639270778367
  H   2.67234060160798      0.41693880049832      0.23399419154560
  C   -1.01803970165433     -0.53813533479133      1.28345016890602
  N   -1.18420637850330     -1.07186306686911      2.31640639723743
  N   -1.69437170171143     -0.47342701391834     -1.02510770280263
  O   -2.56755970827217      0.25711392809772     -1.47551623681883
  O   -1.47846375864101     -1.64247447535598     -1.31895902019437
