14
Coordinates from ORCA-job run
  C   0.62191666857486      0.59600438769424      0.18698188031439
  C   -0.79888266862510      0.23697299951181     -0.27264544625729
  Cl  0.69487761895599      0.64477407160106      1.96591226691068
  H   -0.80801353114490      0.20974456395596     -1.36594289634968
  H   0.78921750059069      1.62166861136861     -0.15203551592363
  C   1.69450610234223     -0.32295027587634     -0.36743083850212
  H   2.67557492663884      0.07344557293359     -0.10361151357774
  H   1.60717593502991     -1.32917694042784      0.04023918944857
  H   1.61975170987052     -0.38189239685227     -1.45595931025849
  C   -1.79690027329125      1.18451498068022      0.20663237784241
  N   -2.58208630665261      1.98957600737767      0.54339904240441
  N   -1.16504054339431     -1.16468890228095      0.15777077737649
  O   -0.73369483448191     -2.05782388635701     -0.56623249645235
  O   -1.81840230441295     -1.29916879332876      1.18392248302434
