14
Coordinates from ORCA-job run
  C   0.66587067093275      0.39060746249547     -0.58338742173841
  C   -0.84659360073533      0.38172419969823     -0.32448164283468
  Cl  1.16812648918023      2.09778907449919     -0.70903453575236
  H   -1.35898184050015      0.91607779487558     -1.12742277100043
  H   0.82233696443361     -0.05130787598714     -1.56871663875597
  C   1.45981228107367     -0.33027983885504      0.48530684631103
  H   2.52263168890895     -0.28812349525883      0.24505201550306
  H   1.16299763990535     -1.38043176374655      0.54129268210843
  H   1.30658917278652      0.13186355157763      1.46191952375348
  C   -1.20667843935936      0.93864982504389      0.97216778472910
  N   -1.48042369863826      1.41781597919450      2.00836935149053
  N   -1.31081489007198     -1.05741896523413     -0.42975207084144
  O   -1.30426230426157     -1.51117242930080     -1.56935382945836
  O   -1.59961013365442     -1.65579351900200      0.59904070648601
