14
Coordinates from ORCA-job run
  C   0.63435764339931      0.56229721786608      0.24083451453551
  C   -0.78470219299363      0.27929194119285     -0.27406329343657
  Cl  0.66492662470518      0.48897857063051      2.02027652226613
  H   -0.76740977578601      0.32466118513131     -1.36664242566445
  H   0.84016017385174      1.60276919539933     -0.02363779935018
  C   1.69273546019910     -0.35014031360172     -0.35037892261833
  H   1.56425542144495     -1.37882545844098     -0.01631765669368
  H   2.67821727819285     -0.00472943354655     -0.03607936441253
  H   1.64471596245732     -0.33098797555186     -1.44188561830589
  C   -1.76564305542845      1.22375503974354      0.24492478452039
  N   -2.53459184983926      2.02900260325477      0.61701981851020
  N   -1.20303537429767     -1.13567755919170      0.05316591065189
  O   -0.78086349278470     -1.99207132192642     -0.71919680751768
  O   -1.88512282312073     -1.31732369095917      1.05298033751520
