14
Coordinates from ORCA-job run
  C   0.66743335908648      0.39511991310630     -0.57811933293624
  C   -0.84641072092972      0.37923487728610     -0.32754336819401
  Cl  1.16397389954875      2.10445367166183     -0.69487369714567
  H   -1.35645481933762      0.91531723135457     -1.13078174481368
  H   0.83102514632608     -0.04253672548900     -1.56414407094169
  C   1.45859294201536     -0.32617700517460      0.49231784674853
  H   2.52214625953313     -0.28298306122645      0.25530049394370
  H   1.16245487261008     -1.37659370060846      0.54729916872699
  H   1.30198959018299      0.13544678664785      1.46869408626150
  C   -1.21594397367365      0.92931302639072      0.96939496321664
  N   -1.49729836314621      1.40469294900453      2.00532832849823
  N   -1.30440964046701     -1.06110192826664     -0.44214863459330
  O   -1.59621426219800     -1.66576946563585      0.58218719408165
  O   -1.28988428955065     -1.50941656905090     -1.58391123285266
