16
Coordinates from ORCA-job run
  C   -0.62295724035661     -0.47439508401394      0.01251711461550
  C   0.51142374029747      0.38773676652844     -0.56994701007719
  F   -0.33392885463588     -1.79967130619691     -0.35600853884504
  H   0.40798344711797      0.37428785644193     -1.66222529422422
  N   -0.58733992989191     -0.46385299029787      1.44759770125495
  H   -1.03037245311300     -1.30107194769813      1.80462976617446
  H   -1.07104681750451      0.35392730581117      1.79703635130251
  N   -1.87148549865768     -0.05482717193432     -0.52286700437133
  H   -2.62522202530760     -0.61681963867967     -0.14610179640061
  H   -1.88245993988375     -0.11966800077788     -1.53377593150603
  C   1.89444800854377     -0.13290036095273     -0.17897858778483
  H   2.67165309080910      0.51399014076343     -0.58915954319856
  H   1.98282550475572     -0.15889811409118      0.90625618510562
  H   2.03076207097145     -1.14094926133394     -0.56928917982555
  C   0.32389639318387      1.76647623842713     -0.11624157569535
  N   0.20282050367158      2.86563556800446      0.27755734347566
