16
Coordinates from ORCA-job run
  C   -0.66560661008463     -0.29994691919196      0.21841446096020
  C   0.50064285077725      0.64220020061482     -0.12377488317469
  F   -0.08280225194768     -1.37635311090841      0.95130307060264
  H   0.05337354329758      1.48066466622166     -0.66619203304706
  N   -1.64629510018207      0.36724397471010      0.99212020370238
  H   -2.31366473715000     -0.30464077112037      1.35358360872369
  H   -1.22220709211889      0.84386095967978      1.77836250021304
  N   -1.24702563680503     -0.81629142769474     -0.97940712604484
  H   -0.80218865704062     -1.68778703543429     -1.23355844246588
  H   -2.24043242381321     -0.96391036990473     -0.86549191880609
  C   1.55765414527817     -0.03466130439978     -0.99650426164729
  H   2.36868278295728      0.66071085910295     -1.21692571367076
  H   1.97387109107512     -0.90357848773105     -0.48619530727686
  H   1.10607300114432     -0.34426154692182     -1.93940068181566
  C   1.09834233684505      1.16115313844727      1.10894461622167
  N   1.56158275776735      1.57659717453058      2.10472190752552
