16
Coordinates from ORCA-job run
  C   -0.67500574931200     -0.42182814534594      0.01173006827204
  C   0.50030469709891      0.37316619987798     -0.57879440251661
  F   -0.46351685703814     -1.75346740784835     -0.46969354054824
  H   0.46229387828021      0.24685144536568     -1.66782827339844
  N   -0.63660174762363     -0.43432135525265      1.43491607658601
  H   -1.56260538711046     -0.40863274605348      1.83672709005621
  H   -0.12587713373339     -1.23623016570682      1.77606105003318
  N   -1.91239025162130      0.08773343717128     -0.44465878748904
  H   -1.90011846281630      0.24600123026042     -1.44345631549772
  H   -2.65989349227266     -0.56033836962890     -0.22609959286522
  C   1.84849287323621     -0.13096682558382     -0.06175222297332
  H   1.95608857386724     -1.19316370093774     -0.28280591549361
  H   2.66365713091056      0.41132679585044     -0.54277545465699
  H   1.91858481439031      0.02897995915749      1.01459977491625
  C   0.33636851429081      1.79690411086527     -0.28178841585143
  N   0.25221859945363      2.94898553780913     -0.07438113857307
