16
Coordinates from ORCA-job run
  C   -0.61385192628826     -0.48527767627368      0.03248032665430
  C   0.48746231706525      0.39446502290346     -0.58576569911274
  F   -0.30964779504790     -1.80701258300471     -0.33760495808881
  H   0.35433702724917      0.37236815769712     -1.67468375284656
  N   -0.53872637600235     -0.46650344819895      1.46593797000016
  H   -0.94999183035476     -1.31291041272323      1.83906776223290
  H   -1.03293539977645      0.34069551912107      1.82512643065014
  N   -1.88447659486351     -0.09252565616535     -0.46969984353090
  H   -1.92143002712840     -0.16007427575898     -1.47977620926061
  H   -2.61614652258105     -0.66876786038965     -0.07128336724473
  C   1.89034748739796     -0.09796571343372     -0.23024932581894
  H   2.64357825494702      0.56272600884330     -0.66251240885389
  H   2.03604436389868     -1.10441807685423     -0.62134066779504
  H   2.00787975133826     -0.11856270160506      0.85237977722497
  C   0.28750983566224      1.77227120351047     -0.13477887809801
  N   0.15904743448408      2.87249249233214      0.25370284388775
