16
Coordinates from ORCA-job run
  C   -0.58164772639195     -0.53014421106830      0.24120354757782
  C   0.45089527582896      0.57188781231500     -0.10079404536358
  F   0.13525801321401     -1.57227374370182      0.80526066998665
  H   -0.09321721479834      1.38430614962592     -0.60092264206367
  N   -1.56742110210084     -0.18900943311093      1.23367294126496
  H   -2.13808414608710      0.58650307905381      0.92312962396468
  H   -1.12913425523517      0.05057381332687      2.11573747679402
  N   -1.16860500482343     -1.00691423187890     -0.97111542044090
  H   -1.50863821776128     -0.24686472810880     -1.54561203095900
  H   -1.94189289210586     -1.61771312349460     -0.73430033701333
  C   1.58119743344672      0.07049931911792     -1.00362902102840
  H   1.16573074993640     -0.34619297300109     -1.92007067586364
  H   2.14105070024320     -0.71222502238783     -0.49290655324168
  H   2.26184119833380      0.88683761175525     -1.25207829202205
  C   0.98459403957294      1.12170317567989      1.14670221518306
  N   1.40807314872794      1.55002650587762      2.15472254322506
