16
Coordinates from ORCA-job run
  C   -0.81333764987730     -0.16563666160648      0.03530853561746
  C   0.39837923513748      0.62485700485659     -0.48581382001574
  F   -1.92794217133597      0.70679391743649     -0.16346794023177
  H   0.18148019003913      0.86322279716700     -1.53322261509374
  N   -0.99646614083410     -1.34507033845283     -0.74079093631801
  H   -1.45570167531054     -1.11003470239054     -1.61151169385056
  H   -1.56040208239890     -2.02415143842737     -0.24617981295920
  N   -0.66822591655917     -0.48671812656462      1.40652636403671
  H   -0.49747476229655      0.35433885578592      1.94520750824744
  H   -1.51775619023885     -0.91412168000859      1.75694961575520
  C   1.70082237195486     -0.17030308033351     -0.38725521945145
  H   1.93319566631487     -0.38857021020654      0.65453820456290
  H   1.58271351298922     -1.11156595002987     -0.92174096872106
  H   2.52472692984523      0.39671368448728     -0.82428365586733
  C   0.50301794717446      1.89132430525565      0.24270712853953
  N   0.61397073539611      2.87692162303143      0.87102930574961
