16
Coordinates from ORCA-job run
  C   -0.66225340188342     -0.46392197058302     -0.12428888341156
  C   0.54465041785309      0.37100025509119     -0.57883792988538
  F   -0.46155181962875     -1.74363363439007     -0.67523547733866
  H   0.56144226722943      0.26274912812180     -1.66732124464242
  N   -0.73975839235688     -0.52630287537828      1.29440278026531
  H   0.06755548246856     -0.98992622472040      1.69236480900604
  H   -1.57452493424144     -1.02500088115163      1.57725879962777
  N   -1.85927673235279      0.02819817259484     -0.74478912238020
  H   -2.56240621724167     -0.70093550500268     -0.74535774803744
  H   -2.20617167876862      0.83192005395251     -0.23577780734823
  C   1.87314323522578     -0.09790840597090      0.01744758023878
  H   1.92519639285365      0.11891264120186      1.08575355213136
  H   1.99057078611949     -1.17020343945623     -0.14649033541509
  H   2.70464755630571      0.41717803160154     -0.46559896296422
  C   0.29495570965433      1.77892901546302     -0.27077939075630
  N   0.10378132876352      2.90794563862646     -0.01275061908975
