16
Coordinates from ORCA-job run
  C   -0.69918950049000     -0.22994869335485      0.19626636465495
  C   0.53902876871160      0.29850008533529     -0.54694269262724
  F   -0.70197183509443      0.43910046556562      1.45600593379717
  H   0.53113026631632     -0.19742981865747     -1.52228944688276
  N   -1.88352615455782      0.05039090941195     -0.52842885751641
  H   -1.91907963912450      1.02598285481998     -0.79711820224636
  H   -2.69340249270887     -0.14703463744774      0.04845215825335
  N   -0.57523785259742     -1.63538215109701      0.41825642394353
  H   -1.47909686618512     -2.08707467698181      0.39255417952599
  H   -0.13620047280810     -1.80766179312419      1.31245773238735
  C   1.83981445292248     -0.02530810864738      0.18815451245296
  H   1.95165507251825     -1.10693072836338      0.26826507685187
  H   2.69476829069421      0.36792991964092     -0.36342984111270
  H   1.83512767762505      0.41811292333262      1.18418410184338
  C   0.40939090165853      1.74117940705538     -0.76537903819434
  N   0.28778938311980      2.89557404251205     -0.94200840513074
