16
Coordinates from ORCA-job run
  C   -0.68601411892727     -0.28705526961426      0.16644966423054
  C   0.52297439375921      0.37982327814720     -0.51073834739280
  F   -0.73352636939653      0.25903085189894      1.48350820503685
  H   0.54721884283791     -0.01737665940499     -1.52999497702866
  N   -1.88102937661063     -0.00794459609718     -0.54070809705907
  H   -2.68089821696694     -0.30082626455066      0.00878937518456
  H   -1.96948541855643      0.98459091487200     -0.72017343173408
  N   -0.48220305083250     -1.69750768139300      0.25607785932883
  H   -1.35843858184270     -2.19562778956986      0.18027399143961
  H   -0.03595332079673     -1.92888755170283      1.13317783073908
  C   1.83725645054347      0.05985528810401      0.20163967459805
  H   2.67065166454620      0.55183247880275     -0.30157540157138
  H   2.00994714074740     -1.01642259579440      0.17827815597633
  H   1.80378846821601      0.40402492537051      1.23563091586679
  C   0.31216419181396      1.82753288211436     -0.58869310759179
  N   0.12554730146556      2.98495778881741     -0.65294231002287
