16
Coordinates from ORCA-job run
  C   -0.60905180004055     -0.50210616756183      0.23126770697293
  C   0.47535555187986      0.55294351964159     -0.10028285371321
  F   0.04750302848845     -1.55157898943920      0.85173151541836
  H   -0.01875193281651      1.36548040301392     -0.64971455047758
  N   -1.61987596690575     -0.09810488306542      1.17348517790805
  H   -2.15124907841035      0.68615637327771      0.81788059967661
  H   -1.20790037041465      0.15459972645382      2.06459662565131
  N   -1.16494871602708     -0.99358741155501     -0.99014618612104
  H   -1.46319581808290     -0.23843985225925     -1.59383525208928
  H   -1.96422024535359     -1.57518508943017     -0.76605275815680
  C   1.62415620633206     -0.01629552475290     -0.93672368381217
  H   1.23132483641881     -0.45154185577029     -1.85448004425016
  H   2.34150171622305      0.76804216345698     -1.18498054588451
  H   2.13653741324319     -0.79772392497256     -0.37672616651466
  C   0.97324738655079      1.12663235051060      1.15111370073599
  N   1.36856778891516      1.57170916245202      2.16286671465615
