16
Coordinates from ORCA-job run
  C   -0.60161659124918     -0.64957542220251      0.00140939036212
  C   0.45850657163490      0.32477668708595     -0.56812551529223
  F   -0.26466293152047     -1.88881667781491     -0.53031056724943
  H   0.36599704640180      0.25690173222903     -1.65805765322280
  N   -0.49752026270938     -0.71868888780228      1.41766213458642
  H   -0.37834353813568      0.19223571112690      1.84036114414758
  H   -1.32368274338716     -1.16628926005932      1.79444843373632
  N   -1.95339127230280     -0.42193655214976     -0.43699224596086
  H   -2.28738347536196      0.47835199176860     -0.11684744839060
  H   -2.02452030747877     -0.46804893523164     -1.44665697749619
  C   1.88991543785731     -0.02627843102871     -0.15551826283569
  H   2.02182415974632      0.07599057982953      0.92101473522661
  H   2.60289111273749      0.62611235541143     -0.66319568081053
  H   2.09432060124402     -1.06053423067867     -0.43006782077784
  C   0.10194992372750      1.68707741952550     -0.17056915134195
  N   -0.20428373120394      2.75872191999089      0.20044548531910
