16
Coordinates from ORCA-job run
  C   -0.66113928101985     -0.46902928857413     -0.11496791282649
  C   0.52425395507271      0.38617780086109     -0.58748576739017
  F   -0.46517546277757     -1.73585574369325     -0.69548289775122
  H   0.51255133772733      0.29932561303483     -1.67804990718539
  N   -0.69543022625160     -0.56016962836359      1.30434838857132
  H   -1.51983381917888     -1.06761427983399      1.60193815801123
  H   0.12462727810505     -1.03035166674626      1.66701396034164
  N   -1.88008286965706      0.02335471736673     -0.69025519956016
  H   -2.58302866313165     -0.70558636149756     -0.66323999933949
  H   -2.20753641226085      0.82687286822806     -0.16805810959636
  C   1.87318158327485     -0.08078059495249     -0.03758020875156
  H   1.95291375154730      0.11557602296752      1.03297121635742
  H   1.99603183020804     -1.14858320797809     -0.22598937830913
  H   2.68596775003980      0.45159732927334     -0.53365958267066
  C   0.27075194006439      1.78601483875252     -0.24705470712878
  N   0.07394730823797      2.90805158115527      0.03555194722780
