16
Coordinates from ORCA-job run
  C   -0.74116364930134     -0.28962242909104      0.24102950278449
  C   0.46658160668448      0.37876979932277     -0.46253730318535
  F   -0.71295299751811      0.19799108502708      1.56109488173386
  H   0.48529940114613     -0.01766130320449     -1.48356206642941
  N   -1.93678710959563      0.02871099877915     -0.43959564783213
  H   -2.09154158020879      1.02794189629845     -0.48221522870041
  H   -2.71234009824547     -0.42269886057692      0.02888128707069
  N   -0.68198284167833     -1.71433636962130      0.36993773045433
  H   0.10455765684564     -2.00246187181923      0.93438504648222
  H   -0.65094648316332     -2.15666615771256     -0.53838562848050
  C   1.79755181987637      0.09561679499013      0.23590336843233
  H   2.01065944921377     -0.97471299672677      0.22828924051157
  H   1.76684367410097      0.44686858020009      1.26699677164433
  H   2.61356823837536      0.60143437233625     -0.28207329244141
  C   0.23978973988106      1.82256755681916     -0.55633538338889
  N   0.04186317358718      2.97825890497923     -0.62081327865572
