16
Coordinates from ORCA-job run
  C   -0.67984935233480     -0.27509073196693      0.20767196388329
  C   0.49972757509507      0.36291929362295     -0.54521459615560
  F   -0.65434338037666      0.30028168701562      1.51263781649721
  H   0.46674533383949     -0.05613567124868     -1.55538834146741
  N   -1.90633977552103      0.00226681116726     -0.44429484598182
  H   -1.99389814063302      0.99167730556863     -0.64099813855869
  H   -2.68052550535876     -0.27020818670592      0.15055556374171
  N   -0.48642277769106     -1.68543792861180      0.31829042759913
  H   0.00237287698687     -1.90317595122484      1.17597604521770
  H   -1.37031213951113     -2.17541908033717      0.29831973758487
  C   1.84540600014640      0.04244456426497      0.10584811110716
  H   1.86854876276675      0.40883671061255      1.13246625105915
  H   2.00533696598059     -1.03601820241167      0.09720310245670
  H   2.65727294974209      0.51375878710591     -0.44962585267010
  C   0.30139785316986      1.81096530466618     -0.64287247044209
  N   0.12588275369933      2.96933528848295     -0.72157477387121
