16
Coordinates from ORCA-job run
  C   -0.81604232863981     -0.15192215299697      0.02871977920590
  C   0.41201487750589      0.62246178534003     -0.47822548605370
  F   -1.91490584964071      0.74040006986660     -0.17259739330420
  H   0.20486262602429      0.87407547961075     -1.52450419967187
  N   -1.01314571537216     -1.32265040465115     -0.75685908311262
  H   -1.46794053679647     -1.07522978621021     -1.62643191020084
  H   -1.58508395186444     -1.99925950193797     -0.26839407322458
  N   -0.68677091333062     -0.48438787892366      1.39863827845898
  H   -0.50060169038766      0.34904973571975      1.94378708367245
  H   -1.54756780027227     -0.89541177551319      1.74087278363351
  C   1.69967074112132     -0.19634092225180     -0.38002183275041
  H   2.53708112834223      0.36192066577144     -0.80251099285199
  H   1.56974703383790     -1.12850612042646     -0.92758557492033
  H   1.92000079227034     -0.43241871500166      0.66068271731464
  C   0.53423635915570      1.88013715783188      0.26271331712820
  N   0.65444522804647      2.85708236377260      0.90271658667685
