16
Coordinates from ORCA-job run
  C   -0.81017039577985     -0.16839001585005      0.07195959268843
  C   0.37125046541211      0.64905247246401     -0.47725382109102
  F   -1.93382737307823      0.70958318619602     -0.02589121017357
  H   0.09563955447940      0.93714125279292     -1.49797154945717
  N   -1.03514368359444     -1.31086506925613     -0.74737757654487
  H   -1.54894177163999     -1.03823686267085     -1.57557950341644
  H   -1.56214172865084     -2.01862469196970     -0.25257305305880
  N   -0.59055786029500     -0.55250210593296      1.41655128753701
  H   -0.38602515058386      0.26224902841864      1.98299769214260
  H   -1.42092457992369     -0.99434109752536      1.79380704581376
  C   1.67629005791951     -0.14755964878223     -0.49053546626052
  H   2.47644066905824      0.44311397516785     -0.94024527090354
  H   1.96392427047404     -0.42047232544785      0.52439721232153
  H   1.52910212268095     -1.05980288569619     -1.06662209778134
  C   0.51715273650643      1.87852887714964      0.30560247383387
  N   0.65593266701521      2.83112591094224      0.97773424435006
