16
Coordinates from ORCA-job run
  C   -0.96708650564610     -0.12078161166907      0.08579329088427
  C   0.23521323915633      0.71810563346292     -0.42133090017203
  F   -2.00791803226325      0.81776222131053      0.17663615230478
  H   -0.05786256797930      1.12529993792458     -1.39633686267205
  N   -1.28152185022147     -1.13516043584632     -0.82627410965852
  H   -0.75578060465391     -1.22301491633831     -1.67508078581309
  H   -1.62813816707798     -1.98747504089362     -0.42348954404077
  N   -0.86602140198079     -0.66384087793318      1.40958544187835
  H   -0.05790386276619     -1.26348803368011      1.50340674818603
  H   -0.83647700345411      0.07366130725567      2.10217400340892
  C   1.53692826760195     -0.07712261984243     -0.54855046326757
  H   1.42378512797223     -0.91538926328323     -1.23692579561518
  H   1.84795879560372     -0.46489073124891      0.42329844640143
  H   2.33784107522895      0.56360832352442     -0.92032788595446
  C   0.43725968842359      1.84456276963897      0.49005143705190
  N   0.64072380205634      2.70916333761807      1.25737082707799
