16
Coordinates from ORCA-job run
  C   -0.91208748188503     -0.06579379157667      0.07545990020216
  C   0.36484466993602      0.61264823804122     -0.47671677525625
  F   -1.93665076555105      0.85968548795335     -0.19700029124507
  H   0.13340537959874      0.89818908695937     -1.50899514761829
  N   -1.31051417546401     -1.27237787834795     -0.58032612222475
  H   -0.65366299380453     -2.01718464835287     -0.39654523374195
  H   -1.42172394016616     -1.13313229137301     -1.57567234063943
  N   -0.77772445810686     -0.34552092022119      1.45394217717532
  H   -0.59493112294505      0.49619555708094      1.98596882033002
  H   -1.62896144552404     -0.78151675268054      1.78623069100389
  C   1.58932362792928     -0.30284147168962     -0.44236404745820
  H   1.42706600284987     -1.17254507687969     -1.08109163933949
  H   2.47153226003540      0.22429655102981     -0.80882027950575
  H   1.77703501259776     -0.64135170362942      0.57661686805752
  C   0.62553128589055      1.84317000997154      0.27300147620654
  N   0.84651814460909      2.79907960371473      0.91831194405371
