16
Coordinates from ORCA-job run
  C   -0.90942811796122     -0.10883112169785      0.00680450194066
  C   0.37428099209910      0.60218552895496     -0.48626058375295
  F   -1.93852320749942      0.80986275805718     -0.26081504902758
  H   0.22723390263240      0.83535490885817     -1.54786469209279
  N   -1.07992222005224     -1.32806093330802     -0.69367824197657
  H   -1.15555803448076     -1.16602105246834     -1.69001220181650
  H   -1.92429006694302     -1.77672514038475     -0.35938971762705
  N   -1.00021839288301     -0.38682086983216      1.40482197423569
  H   -0.91227770004641      0.46043823073924      1.95124640985494
  H   -0.30275054863878     -1.06218042583768      1.68436783207376
  C   1.63434121812243     -0.24638158582808     -0.30879048359757
  H   1.51712917112692     -1.19771687941172     -0.82606519828470
  H   1.81946899402368     -0.44252816153751      0.74893448208267
  H   2.50462722708167      0.27682947171577     -0.70820695666554
  C   0.50883551256114      1.87154784418695      0.22972898051421
  N   0.63605127085753      2.85804742779383      0.85317894413932
