16

C	-0.453925	0.039051	-1.428634
C	0.0	0.0	0.0
F	-1.814262	0.169341	-1.566726
H	1.09212	0.0	0.0
H	0.040256	0.829819	-1.986238
N	-0.067213	-1.252838	-2.104395
O	-0.904399	-2.152015	-2.134457
O	1.069639	-1.305353	-2.563037
C	-0.511664	-1.168088	0.808085
H	-1.602633	-1.229148	0.837582
H	-0.131121	-1.081558	1.823919
H	-0.11258	-2.090734	0.385083
N	-0.389737	1.2949	0.597916
O	-0.305657	2.304491	-0.108131
O	-0.721931	1.323215	1.785451
F	2.500951	0.0	0.0
