16

C	-0.390591	-0.005934	-1.448566
C	0.0	0.0	0.0
F	0.078476	1.099641	-2.082235
H	1.091889	0.0	0.0
H	0.001286	-0.902524	-1.932297
N	-1.890489	-0.044377	-1.708686
O	-2.449116	0.963176	-2.121277
O	-2.429998	-1.125178	-1.474986
C	-0.518864	-1.161691	0.819952
H	-0.060812	-1.100525	1.810096
H	-0.193574	-2.100071	0.365927
H	-1.605767	-1.167999	0.914135
N	-0.500918	1.273538	0.607446
O	-1.728777	1.415435	0.686277
O	0.315308	2.096052	1.011415
F	2.552924	0.0	0.0
