16

C	-0.494125	-0.034606	-1.425074
C	0.0	0.0	0.0
F	-0.407983	-1.295463	-1.937354
H	1.090924	0.0	0.0
H	-1.511597	0.333998	-1.563019
N	0.374736	0.869084	-2.278095
O	0.43224	2.028417	-1.887754
O	0.893944	0.41133	-3.285888
C	-0.442528	-1.219489	0.793073
H	-1.531282	-1.353347	0.808856
H	0.030288	-2.101874	0.364467
H	-0.072447	-1.104629	1.813088
N	-0.548612	1.190838	0.697961
O	0.073288	1.60031	1.674502
O	-1.626461	1.667811	0.320932
F	2.537667	0.0	0.0
