16

C	-0.428943	0.412924	-1.371776
C	0.0	0.0	0.0
F	-1.64374	-0.120492	-1.758193
H	1.090859	0.0	0.0
H	-0.463572	1.490547	-1.492907
N	0.579783	-0.067646	-2.388823
O	0.575574	-1.261594	-2.671085
O	1.309186	0.788917	-2.876275
C	-0.416088	-1.397612	0.401074
H	0.1157	-1.67153	1.310634
H	-1.49216	-1.495202	0.565681
H	-0.10819	-2.078276	-0.393031
N	-0.437089	1.009114	0.980677
O	-0.696376	0.62585	2.12453
O	-0.459859	2.198086	0.643889
F	2.485316	0.0	0.0
