16

C	-0.494256	-0.030863	-1.411786
C	0.0	0.0	0.0
F	-1.864542	-0.144274	-1.503426
H	1.09205	0.0	0.0
H	-0.17265	0.836155	-1.979374
N	0.085663	-1.224621	-2.127805
O	-0.518072	-2.291375	-2.039533
O	1.120019	-1.027823	-2.755639
C	-0.463495	-1.148957	0.867075
H	-1.550062	-1.190844	0.980551
H	-0.002133	-1.049448	1.847589
H	-0.115338	-2.082498	0.425563
N	-0.398375	1.302181	0.575807
O	-0.426431	2.28888	-0.167292
O	-0.621381	1.3599	1.78658
F	2.49834	0.0	0.0
