16

C	-0.460627	0.028544	-1.426308
C	0.0	0.0	0.0
F	-1.830191	0.098543	-1.551492
H	1.092067	0.0	0.0
H	-0.009899	0.843571	-1.984657
N	-0.029347	-1.239575	-2.118651
O	-0.796482	-2.199163	-2.075649
O	1.062681	-1.209967	-2.67556
C	-0.508592	-1.163889	0.817725
H	-1.599833	-1.234331	0.834286
H	-0.140458	-1.061233	1.836733
H	-0.097055	-2.086445	0.407533
N	-0.392898	1.298271	0.592152
O	-0.714558	1.33112	1.782091
O	-0.318474	2.304516	-0.120187
F	2.502475	0.0	0.0
