16

C	-0.484232	-0.00977	-1.428814
C	0.0	0.0	0.0
F	-0.490037	-1.275053	-1.938639
H	1.09096	0.0	0.0
H	-1.468238	0.435858	-1.580889
N	0.457145	0.822997	-2.276674
O	0.620539	1.96683	-1.874939
O	0.921431	0.332319	-3.296643
C	-0.412873	-1.238002	0.778369
H	0.052251	-2.107187	0.316607
H	-0.012104	-1.139686	1.786809
H	-1.499316	-1.382145	0.824491
N	-0.537268	1.180334	0.715116
O	-0.042155	1.429877	1.811049
O	-1.483133	1.818297	0.233094
F	2.52397	0.0	0.0
