14

C	0.0	0.0	0.0
C	-0.572794	-0.249995	-1.37766
F	1.356352	0.0	0.0
H	-1.664296	-0.217575	-1.270591
H	-0.28108	-1.275208	-1.626529
N	-0.372191	1.383757	0.544791
O	-0.905421	2.182185	-0.211844
O	-0.018917	1.59442	1.700803
C	-0.442842	-1.002406	0.981061
N	-0.693619	-1.870865	1.730092
N	-0.001497	0.67192	-2.357194
H	0.038387	0.207683	-3.253866
H	-0.624201	1.463458	-2.444813
Br	-3.819901	0.0	0.0
