14

C	0.0	0.0	0.0
C	-0.572186	-0.105461	-1.395591
F	1.356541	0.0	0.0
H	-1.663692	-0.079612	-1.291474
H	-0.285707	-1.098997	-1.754239
N	-0.374152	1.322623	0.680111
O	-0.939727	2.179551	0.016575
O	0.011433	1.428224	1.841533
C	-0.439684	-1.096119	0.880028
N	-0.687329	-2.030646	1.545706
N	0.005071	0.91911	-2.264704
H	-0.631202	1.703381	-2.29596
H	0.100283	0.549864	-3.200543
Br	-3.826971	0.0	0.0
