14

C	0.0	0.0	0.0
C	-0.463502	0.084675	-1.461699
F	1.364258	0.0	0.0
H	0.17444	0.858066	-1.898821
H	-0.168335	-0.872806	-1.906136
N	-0.380734	1.259292	0.774911
O	-0.623635	1.138919	1.970056
O	-0.314242	2.30749	0.14188
C	-0.475873	-1.178944	0.72522
N	-0.759685	-2.201596	1.228463
N	-1.834526	0.365162	-1.744842
H	-2.50889	-0.27327	-1.326586
H	-2.105009	1.281827	-1.415338
Br	-4.624619	0.0	0.0
