14

C	0.0	0.0	0.0
C	-0.579069	-0.183644	-1.384629
F	1.356495	0.0	0.0
H	-0.29311	-1.19811	-1.679918
H	-1.670277	-0.152008	-1.268761
N	-0.371917	1.350974	0.621521
O	-0.058708	1.482992	1.799854
O	-0.860591	2.206081	-0.102502
C	-0.437906	-1.055177	0.928399
N	-0.671897	-1.969952	1.626208
N	-0.007632	0.771768	-2.333258
H	-0.596663	1.5936	-2.340214
H	-0.051366	0.360432	-3.255515
Br	-3.82999	0.0	0.0
