12

C	-0.470821	0.023151	-1.435841
C	0.0	0.0	0.0
Br	-2.435217	0.140769	-1.560065
H	1.093327	0.0	0.0
H	-0.094713	0.917074	-1.932508
H	-0.396716	-0.840372	0.565272
C	-0.054988	-1.174882	-2.151263
N	0.248297	-2.140102	-2.748285
N	-0.426474	1.238469	0.695419
O	-0.763085	1.135411	1.872551
O	-0.377326	2.290415	0.061146
Cl	3.236234	0.0	0.0
