12

C	-0.506577	-0.046305	-1.428727
C	0.0	0.0	0.0
Br	-0.061166	1.575846	-2.415971
H	1.088224	0.0	0.0
H	0.065622	-0.836371	-1.923085
H	-0.339696	-0.897343	0.528228
C	-1.9292	-0.33804	-1.580494
N	-3.053163	-0.645385	-1.731801
N	-0.53732	1.147156	0.780882
O	0.109588	1.500248	1.759665
O	-1.617312	1.624675	0.42843
Cl	3.331752	0.0	0.0
