12

C	-0.587721	0.015074	-1.403205
C	0.0	0.0	0.0
Br	-0.256017	-1.729063	-2.225029
H	1.088437	0.0	0.0
H	-1.672291	0.119098	-1.371331
H	-0.344824	-0.875081	0.551298
C	-0.055671	1.057942	-2.271169
N	0.324423	1.877658	-3.021875
N	-0.485309	1.181376	0.76267
O	-1.103471	2.058775	0.152462
O	-0.237721	1.197496	1.962852
Cl	3.269057	0.0	0.0
