18

C	-0.418756	0.010434	-1.478428
C	0.0	0.0	0.0
F	-1.840442	0.106198	-1.487351
H	1.090671	0.0	0.0
C	0.09752	1.26937	-2.14447
H	-0.347967	2.157811	-1.6976
H	1.184656	1.314084	-2.04406
H	-0.181702	1.243142	-3.201815
N	-0.022905	-1.155512	-2.186227
H	0.57195	-0.931304	-2.970905
H	0.439637	-1.829075	-1.592443
N	-0.502832	-1.289174	0.612974
O	0.152541	-2.310992	0.398276
O	-1.549821	-1.253459	1.250535
N	-0.476612	1.088381	0.787606
H	0.207804	1.829713	0.799472
H	-1.380788	1.415141	0.47812
Br	3.509191	0.0	0.0
