18

C	-0.451075	0.024606	-1.483487
C	0.0	0.0	0.0
F	-1.8274	0.294342	-1.496819
H	1.090752	0.0	0.0
C	0.255827	1.135376	-2.220833
H	1.331528	0.948698	-2.228885
H	-0.136524	1.160473	-3.238296
H	0.069631	2.092125	-1.731755
N	-0.281299	-1.217803	-2.19385
H	0.696683	-1.486393	-2.135973
H	-0.819674	-1.945617	-1.73573
N	-0.501241	-1.319516	0.530322
O	0.264308	-2.281164	0.518249
O	-1.689079	-1.374472	0.848158
N	-0.49637	1.055795	0.819598
H	-1.349605	1.452928	0.455668
H	0.218882	1.754597	0.957348
Br	3.527176	0.0	0.0
