18

C	-0.435299	0.053458	-1.466683
C	0.0	0.0	0.0
F	-1.792796	0.538452	-1.504972
H	1.097096	0.0	0.0
C	0.40338	1.093502	-2.179721
H	0.263287	2.070542	-1.71669
H	0.086005	1.15961	-3.224552
H	1.458214	0.819546	-2.115647
N	-0.327937	-1.197385	-2.110642
H	-0.991126	-1.853285	-1.722222
H	-0.464626	-1.097552	-3.107067
N	-0.464868	-1.25564	0.706359
O	0.171857	-1.593585	1.694349
O	-1.49414	-1.817515	0.31056
N	-0.468728	1.102744	0.788373
H	-1.240616	1.573653	0.343044
H	0.289161	1.734299	0.996983
Br	3.538209	0.0	0.0
