18

C	-0.37135	-0.000849	-1.497941
C	0.0	0.0	0.0
F	-0.142974	-1.328381	-1.951989
H	1.092287	0.0	0.0
C	-1.814301	0.289987	-1.844605
H	-2.470886	-0.428606	-1.360367
H	-2.088956	1.300926	-1.547752
H	-1.937575	0.204591	-2.927499
N	0.50776	0.920733	-2.110771
H	1.4733	0.724374	-1.849039
H	0.412633	0.889127	-3.117493
N	-0.547646	-1.243069	0.622817
O	0.203542	-2.185486	0.839846
O	-1.760166	-1.229149	0.863213
N	-0.44169	1.12195	0.777039
H	-1.369215	1.426203	0.515631
H	0.221138	1.871693	0.649981
Br	3.53644	0.0	0.0
