18

C	-0.411185	-0.100138	-1.480163
C	0.0	0.0	0.0
F	-1.801727	-0.329982	-1.49377
H	1.091124	0.0	0.0
C	-0.130164	1.216405	-2.168454
H	-0.349568	1.09476	-3.230735
H	0.921504	1.479377	-2.033134
H	-0.740479	2.005871	-1.738046
N	0.206091	-1.161872	-2.22221
H	0.177294	-2.01159	-1.670937
H	1.190744	-0.928907	-2.319171
N	-0.452016	-1.269912	0.727706
O	-1.265487	-1.148351	1.643567
O	0.009007	-2.348621	0.36003
N	-0.497628	1.170641	0.634401
H	0.013078	1.330667	1.492479
H	-1.478026	1.057457	0.856581
Br	3.464529	0.0	0.0
