18

C	-0.532477	-0.085457	-1.443174
C	0.0	0.0	0.0
F	-0.284877	1.213109	-1.934428
H	1.09886	0.0	0.0
C	0.248675	-1.025709	-2.328665
H	1.313362	-0.809167	-2.220925
H	0.072791	-2.064124	-2.054626
H	-0.066122	-0.854953	-3.360116
N	-1.951983	-0.280455	-1.538491
H	-2.389395	0.240114	-0.783784
H	-2.152159	-1.263138	-1.407084
N	-0.386695	-1.205113	0.806562
O	-0.633499	-2.266501	0.23115
O	-0.387252	-1.06924	2.027697
N	-0.596277	1.14879	0.661958
H	-0.192698	1.206036	1.589756
H	-0.274783	1.958795	0.145159
Br	3.501048	0.0	0.0
