18

C	-0.341619	-0.01692	-1.507373
C	0.0	0.0	0.0
F	-1.741525	-0.113029	-1.615273
H	1.090614	0.0	0.0
C	0.101165	1.289436	-2.133068
H	-0.074545	1.226621	-3.207882
H	1.166183	1.446134	-1.940912
H	-0.465344	2.125969	-1.724121
N	0.227771	-1.105418	-2.250617
H	1.234281	-0.961352	-2.27244
H	0.089961	-1.970036	-1.739009
N	-0.531359	-1.272938	0.604126
O	-1.57646	-1.210806	1.246167
O	0.078019	-2.317433	0.360463
N	-0.486762	1.103846	0.762089
H	-1.387094	1.428024	0.438146
H	0.196764	1.846476	0.759119
Br	3.477664	0.0	0.0
