16

C	-0.233876	-0.013118	-1.494115
C	0.0	0.0	0.0
Cl	-0.366442	1.739967	-2.160369
H	1.095575	0.0	0.0
H	-0.319653	-0.981422	0.363267
N	0.749302	-0.772962	-2.101138
H	1.669648	-0.593247	-1.666721
H	0.75012	-0.719095	-3.108854
N	-1.607352	-0.559678	-1.927421
O	-2.504308	-0.584122	-1.089754
O	-1.715828	-0.937811	-3.089765
C	-0.589765	1.119769	0.832413
H	-0.38628	0.913361	1.887107
H	-1.669549	1.211979	0.699309
H	-0.11928	2.072381	0.58894
H	2.918686	0.0	0.0
