16

C	-0.616154	-0.058155	-1.3763
C	0.0	0.0	0.0
Cl	0.134358	-1.319215	-2.383862
H	1.090084	0.0	0.0
H	-0.315693	-0.924633	0.495248
N	-2.016381	-0.293255	-1.34589
H	-2.448709	0.392911	-0.742596
H	-2.4154	-0.198814	-2.271994
N	-0.298055	1.301026	-2.089541
O	-1.227509	2.114357	-2.106959
O	0.831027	1.501964	-2.502174
C	-0.435887	1.216139	0.815411
H	-1.51378	1.283376	1.003585
H	0.073567	1.159908	1.780618
H	-0.108264	2.145663	0.344511
H	2.960672	0.0	0.0
