16

C	-0.594493	0.00392	-1.396591
C	0.0	0.0	0.0
Cl	0.009967	-1.405715	-2.288772
H	1.092249	0.0	0.0
H	-0.308192	-0.956224	0.441933
N	-2.03733	0.003817	-1.520414
H	-2.379014	-0.810362	-1.022464
H	-2.386062	0.835667	-1.059354
N	-0.140051	1.278594	-2.121781
O	-0.824874	2.272542	-1.86653
O	0.850049	1.260599	-2.831999
C	-0.452771	1.152496	0.889927
H	-1.539523	1.231459	1.003864
H	-0.01721	0.993831	1.879646
H	-0.071707	2.107006	0.52462
H	2.941784	0.0	0.0
