16

C	-0.283436	0.192642	-1.481597
C	0.0	0.0	0.0
Cl	-0.150136	1.904422	-1.952881
H	1.094245	0.0	0.0
H	-0.29497	-1.035542	0.218034
N	0.588294	-0.570984	-2.324854
H	0.406052	-1.549863	-2.12876
H	1.535326	-0.376919	-1.970754
N	-1.730976	-0.24741	-1.760028
O	-1.881307	-1.429406	-2.068467
O	-2.643335	0.54338	-1.543625
C	-0.616324	0.964028	0.992779
H	-1.709848	0.976972	0.946812
H	-0.31422	0.671849	2.00323
H	-0.251572	1.977871	0.822178
H	2.911288	0.0	0.0
