19

C	0.0	0.0	0.0
C	-0.275978	0.0083	-1.552519
Br	1.953241	0.0	0.0
H	0.541716	-0.601251	-1.952128
N	-0.384647	1.134503	0.757436
H	-1.421777	1.02535	0.740334
H	-0.032025	1.026536	1.706081
N	-0.350749	-1.35729	0.652375
O	-0.40934	-1.373592	1.881375
O	-0.374865	-2.352004	-0.067591
C	-0.043785	1.439329	-2.063556
H	-0.086512	1.419149	-3.167839
H	-0.834256	2.092307	-1.676277
H	0.938606	1.847708	-1.750634
C	-1.533728	-0.577733	-2.196706
H	-1.26682	-0.803158	-3.235775
H	-1.855259	-1.493976	-1.712949
H	-2.366555	0.122228	-2.192257
H	-2.49823	0.0	0.0
