19

C	0.0	0.0	0.0
C	-0.31411	-0.061963	-1.558168
Br	1.944467	0.0	0.0
H	0.566528	0.426212	-1.980381
N	-0.632316	1.076795	0.592798
H	-1.67966	0.818282	0.444051
H	-0.455651	1.069841	1.593151
N	-0.276616	-1.329225	0.840215
O	-0.544189	-1.14015	2.021502
O	-0.130633	-2.430774	0.327086
C	-1.479442	0.788401	-2.072603
H	-1.460014	1.785227	-1.632497
H	-1.343201	0.883096	-3.158756
H	-2.440365	0.343047	-1.827971
C	-0.370345	-1.449431	-2.195628
H	0.51928	-2.044147	-1.9908
H	-1.245474	-2.000675	-1.852828
H	-0.451091	-1.308868	-3.279304
H	-2.996174	0.0	0.0
