17

C	-0.474173	-0.008229	-1.434421
C	0.0	0.0	0.0
Cl	-2.251019	-0.191869	-1.601076
H	1.091922	0.0	0.0
N	-0.085875	1.380295	-2.007276
O	1.065461	1.460608	-2.41679
O	-0.906989	2.283389	-1.938027
C	0.16459	-0.9896	-2.308605
N	0.616317	-1.719599	-3.111607
N	-0.355422	-1.237629	0.643383
O	-0.397731	-1.260826	1.885791
O	-0.442462	-2.255993	-0.068656
C	-0.381142	1.221661	0.800679
H	-0.050476	1.052478	1.82358
H	0.163036	2.087848	0.419171
H	-1.454453	1.425067	0.791207
H	2.403305	0.0	0.0
