17

C	-0.558226	0.049041	-1.40105
C	0.0	0.0	0.0
Cl	0.164429	1.427866	-2.289295
H	1.102458	0.0	0.0
N	-0.175866	-1.185622	-2.240055
O	-0.948366	-1.471178	-3.148023
O	0.89265	-1.710365	-1.983917
C	-2.010955	0.203177	-1.441389
N	-3.159924	0.45305	-1.396877
N	-0.487063	-1.179587	0.658768
O	-0.196414	-1.322695	1.858471
O	-1.085014	-2.047145	-0.018823
C	-0.285868	1.24134	0.825518
H	-1.355574	1.452832	0.919757
H	0.143433	1.071018	1.812323
H	0.230636	2.093656	0.383633
H	2.391603	0.0	0.0
