17

C	-0.592487	0.017799	-1.386262
C	0.0	0.0	0.0
Cl	0.061564	1.412072	-2.306104
H	1.101015	0.0	0.0
N	-0.193201	-1.21279	-2.226181
O	0.916433	-1.67014	-2.022802
O	-0.997726	-1.561367	-3.081459
C	-2.050055	0.120783	-1.386522
N	-3.209867	0.303351	-1.314059
N	-0.453121	-1.177675	0.683304
O	-0.1408	-1.298809	1.88011
O	-1.035134	-2.07129	0.023687
C	-0.28326	1.24909	0.813173
H	0.230694	2.097256	0.359431
H	0.149376	1.088117	1.799414
H	-1.3528	1.460475	0.909843
H	2.387599	0.0	0.0
