17

C	-0.490291	-0.067639	-1.423045
C	0.0	0.0	0.0
Cl	-2.280779	-0.124794	-1.574989
H	1.098953	0.0	0.0
N	-0.001612	1.247018	-2.087346
O	-0.738465	2.222124	-2.044953
O	1.138886	1.203668	-2.53161
C	0.063724	-1.150996	-2.231951
N	0.472651	-1.959935	-2.980848
N	-0.369905	-1.190047	0.717629
O	-0.609132	-2.225668	0.064593
O	-0.291201	-1.163829	1.958036
C	-0.338969	1.273146	0.740438
H	0.254641	2.094268	0.334064
H	-1.400196	1.526748	0.696841
H	-0.035685	1.131784	1.775434
H	2.385644	0.0	0.0
