17

C	-0.254277	0.132207	-1.464894
C	0.0	0.0	0.0
Cl	-1.67826	1.067086	-1.956432
H	1.097973	0.0	0.0
N	1.091188	0.975742	-1.911832
O	1.087611	2.169049	-1.563857
O	2.113322	0.201816	-1.782773
C	-0.187654	-1.102732	-2.218942
N	-0.139727	-2.085697	-2.863833
N	-0.440917	-1.293503	0.587657
O	-1.471887	-1.81101	0.152846
O	0.214173	-1.720557	1.536967
C	-0.49759	1.12808	0.871306
H	-0.146433	2.062685	0.431779
H	-1.588432	1.134374	0.936482
H	-0.062305	1.016216	1.867768
H	2.506433	0.0	0.0
