17

C	-0.447188	0.041676	-1.436806
C	0.0	0.0	0.0
Cl	0.536062	-0.975751	-2.502988
H	1.108492	0.0	0.0
N	-1.960293	-0.357604	-1.605294
O	-2.286543	-1.136919	-2.47741
O	-2.703308	0.23398	-0.831117
C	-0.389569	1.404574	-1.96515
N	-0.338389	2.491692	-2.412728
N	-0.413276	-1.221532	0.62783
O	-0.228961	-1.317284	1.853823
O	-0.824398	-2.157993	-0.086063
C	-0.274319	1.209295	0.869436
H	0.093285	2.107827	0.370264
H	0.310374	1.081883	1.781134
H	-1.331955	1.32414	1.113722
H	2.373404	0.0	0.0
