18

C	0.0	0.0	0.0
C	-0.621771	0.021585	-1.398736
F	1.353862	0.0	0.0
H	-1.5307	0.633525	-1.337364
N	-0.330005	1.327657	0.725027
O	-1.02056	2.172501	0.173192
O	0.180093	1.436198	1.838119
C	-0.502203	-1.129898	0.853193
H	-0.187163	-2.063336	0.388198
H	-0.060209	-1.027883	1.844102
H	-1.592042	-1.089294	0.914362
N	-0.874008	-1.319814	-1.877213
H	-0.909005	-1.276258	-2.889447
H	-1.81438	-1.540429	-1.551
N	0.292477	0.745429	-2.355115
O	0.844281	1.75944	-1.942354
O	0.385588	0.312674	-3.50319
Br	-3.836432	0.0	0.0
