15
Coordinates from ORCA-job run
  C   0.84024278239897      0.31446712124532     -0.01946588584937
  C   -0.66282378135849      0.19919658605628      0.28792218037706
  Br  1.30590402188646      2.12668610897633     -0.53328636413731
  H   -0.87846053133095      0.94396568506151      1.05978390972359
  C   1.25672642212782     -0.60966349552543     -1.05999324112807
  N   1.52233923970605     -1.35117430459185     -1.93377199454322
  N   1.63281444361551      0.01866171021127      1.27193810112253
  O   2.62769230912535     -0.68128067547830      1.16151007096054
  O   1.19035540743602      0.53882744855877      2.28456587750972
  C   -0.89675683700432     -1.13156531916485      0.85705246039399
  N   -1.08674524763709     -2.20774124947228      1.28823566248461
  C   -1.54371624475599      0.42006524830535     -0.94372434548331
  H   -1.39357953554477      1.42151548101704     -1.34677877165559
  H   -1.32406103944375     -0.31731587798029     -1.71778362059333
  H   -2.59093140922081      0.31535553278114     -0.65620403918184
