15
Coordinates from ORCA-job run
  C   0.76163927578966      0.46664018054030      0.26902717840315
  C   -0.64503254226651      0.12705273658803     -0.28016679691165
  Br  0.79811808575927      0.59230364629810      2.18693579387974
  H   -0.54310913171180      0.16592573421675     -1.37161583910049
  C   1.26709595643645      1.70384202024660     -0.30583004947690
  N   1.65043370763859      2.71289496125433     -0.77299983972248
  N   1.67519552145600     -0.68324274836031     -0.23078841120811
  O   1.80653695140466     -0.69305442923719     -1.44853048873493
  O   2.11525316095797     -1.48361386890355      0.57344983828848
  C   -1.58313540251533      1.17308067117206      0.12257258023029
  N   -2.36537727786881      1.99026313533550      0.43850021892552
  C   -1.13587082727432     -1.26132430264347      0.13505720623862
  H   -0.48562634564116     -2.03761109294467     -0.27202518535877
  H   -2.13883973987134     -1.41728798272696     -0.26484647701560
  H   -1.17528139229332     -1.35686866083553      1.22026027156313
