15
Coordinates from ORCA-job run
  C   0.83605966393699      0.32732862642691      0.00113847821077
  C   -0.67444461683390      0.19416332838917      0.26133631650329
  Br  1.28979273555052      2.13445212161787     -0.53943491704232
  H   -0.92705450921771      0.95157056038250      1.00935903927164
  C   1.30136721950200     -0.61339377584556     -1.00301631304357
  N   1.60542921657211     -1.36874343715494     -1.85204462244059
  N   1.58947347843488      0.07424517661003      1.32446571616188
  O   1.10575529157895      0.61062598598580      2.30942065000924
  O   2.59790056567593     -0.61218118166225      1.26322914918994
  C   -0.90688490066040     -1.12782391112418      0.85142407915235
  N   -1.09757965234293     -2.19639731848179      1.30082065858847
  C   -1.51743755438695      0.37408362411901     -1.00304702007129
  H   -2.57161096824654      0.25583755482996     -0.74803248651180
  H   -1.37174785644726      1.36983403686810     -1.42159991647025
  H   -1.25901811311567     -0.37460139096064     -1.75401881150777
