15
Coordinates from ORCA-job run
  C   0.80742635455852      0.39484238396083     -0.00954660559004
  C   -0.67671638447774      0.12582680374071      0.29496393686281
  Br  1.09396595128873      2.25949594506070     -0.46319389305258
  H   -0.96008435862114      0.82260688827742      1.08937964336843
  C   1.30552037459498     -0.44971519420690     -1.08148670364471
  N   1.63317044255196     -1.13098651060233     -1.98272613075763
  N   1.62930720478154      0.13338368257460      1.27002366610309
  O   1.14394104477686      0.57627158627518      2.29959167285417
  O   2.68484814103055     -0.46644268024430      1.13555832883547
  C   -0.78110141633823     -1.23791912621412      0.82326248238224
  N   -0.87190166565612     -2.33867003555579      1.22365734506258
  C   -1.57890743378291      0.29786243429653     -0.92887922771734
  H   -2.61082590780276      0.08871765562831     -0.64311396565148
  H   -1.29486535487305     -0.39469570626147     -1.72293382303519
  H   -1.52377699203117      1.31942187327064     -1.30455672601982
