15
Coordinates from ORCA-job run
  C   0.73365091113499      0.52814079756536      0.23036982219715
  C   -0.55961676940265      0.00956816604374     -0.44385591375884
  Br  0.39588561651466      1.40777776546842      1.90572251181852
  H   -0.23650796431982     -0.39238514756775     -1.41181423124506
  C   1.46065321067494      1.42927885464174     -0.65062405429388
  N   2.02590233491557      2.16156611429544     -1.37707516899643
  N   1.61376060139547     -0.73304536266295      0.43139914554893
  O   1.98464964368524     -1.22934918572830     -0.62512133200506
  O   1.80463525932721     -1.14983918320916      1.55880294944835
  C   -1.45287860247856      1.13838289642276     -0.69864997598589
  N   -2.19991854341201      2.02082929051052     -0.90518628435827
  C   -1.25801331850152     -1.09162492380861      0.35650210461820
  H   -1.53039062686907     -0.74137033343888      1.35219404623181
  H   -2.16733150502606     -1.38899889779412     -0.16798553076505
  H   -0.61648024763838     -1.96993085073822      0.44632191154551
