15
Coordinates from ORCA-job run
  C   0.82313081948147      0.60161530447889      0.14208675135905
  C   -0.71425093852348      0.43855500440420      0.09915739908191
  Br  1.35401055640385      2.00671473621567      1.35294940617304
  H   -1.09420975892891      1.38265587080905     -0.30875115254079
  C   1.33304034993411      0.90325324800718     -1.18647397635485
  N   1.68469455172012      1.19330366125571     -2.27062724892153
  N   1.42007743318409     -0.73961015564269      0.61090089863424
  O   1.84377019836016     -1.46778205687541     -0.27859750842762
  O   1.33891188868426     -0.98562915245651      1.80260849860048
  C   -1.27171795892001      0.27927450937654      1.44273729204919
  N   -1.78924379206503      0.12550004108545      2.48571656663617
  C   -1.14373721534020     -0.72270331699971     -0.80662489967302
  H   -0.85006834505877     -1.68398198153975     -0.38325876899474
  H   -2.23033801364879     -0.71156347060308     -0.90365738151365
  H   -0.70406977528286     -0.62160224151555     -1.80016587610788
