14
Coordinates from ORCA-job run
  C   0.44079470027927      0.36313604837417      0.19984922600110
  C   -0.31810861591641     -0.70243651597850     -0.58016300483691
  F   0.35785437643576      1.51311048845892     -0.67095207264755
  H   -0.26909304012723     -1.64243226966534     -0.02240768416238
  H   0.22392078245764     -0.85041784492481     -1.52995816944491
  N   1.81134973421048      0.02011954033732      0.39773193465556
  H   2.31671834104313      0.88009239212888      0.58412133100878
  H   2.18595806803146     -0.36166516442494     -0.46307609419648
  N   -0.15298720536745      0.74373445398813      1.43128439409252
  H   0.32867691702875      0.29616368457965      2.19563455739233
  H   -1.13485766410258      0.49853027855413      1.41724465532963
  N   -1.69568285552442     -0.30347668054590     -0.68929570870610
  H   -1.79931905094769      0.56063770385239     -1.19873955788864
  H   -2.29622448750068     -1.01609611473409     -1.07127380659697
