14
Coordinates from ORCA-job run
  C   0.35413679360169      0.07901768436444      0.47436796413431
  C   -0.89548279030500     -0.33331432536363     -0.29136020899979
  F   1.18295411509704     -1.10200609774003      0.50900125118382
  H   -1.63622476106349      0.45563472807026     -0.14990951365162
  H   -1.27523288235477     -1.24780672609220      0.17544959761909
  N   0.02952512204319      0.45730158866380      1.80792898935343
  H   -0.28187822404058     -0.36053664545015      2.31731894777626
  H   0.84738241522610      0.82339465986371      2.28027444271981
  N   1.02846000153595      1.11444988105682     -0.21052064870021
  H   1.17835538638889      0.78758368520141     -1.15855139087130
  H   1.92630035431878      1.29721436899370      0.22144518605815
  N   -0.57824009189983     -0.53946745014879     -1.70360705076707
  H   -0.73935261345924     -1.49453515793119     -1.98493783542712
  H   -1.14070282508873      0.06206980651186     -2.28689973042775
