14
Coordinates from ORCA-job run
  C   0.29821051959455      0.10717526100381      0.47093529503213
  C   -0.55498613387840     -0.69901082247201     -0.48985705598386
  F   -0.61090740734119      1.10177139667127      1.01137469580853
  H   -1.32836211046536     -1.21301751377041      0.09783957732493
  H   0.09163801349096     -1.45372210350356     -0.93890586960504
  N   1.35652475586426      0.74468010585258     -0.21315663253296
  H   0.98347277962433      1.11519148282664     -1.07995717078927
  H   1.72576989513610      1.50578540840756      0.34361029296169
  N   0.77784659804918     -0.70121968879696      1.53747236407898
  H   0.03873951392034     -0.85448002121417      2.21090971596997
  H   1.56099066516409     -0.25841187956559      1.99991384899390
  N   -1.06993143209728      0.18413352609718     -1.53161138478687
  H   -1.78815762884960      0.77810430054700     -1.13773560236016
  H   -1.48184802821198     -0.35697945208335     -2.27983207411196
