18
Coordinates from ORCA-job run
  C   0.62154237635815      0.49390063204336     -0.06434247319607
  C   -0.41884533594490     -0.57998940716989     -0.39901117597862
  F   0.82907188087302      1.27678608150708     -1.20210547146011
  H   0.08932689187610     -1.35780788350349     -0.98066620820352
  N   0.05899811354869      1.39089004945629      0.92904774988528
  H   0.62859518193411      2.22960707256949      0.95647905746420
  H   0.12168911401771      0.94259974401270      1.83572723000655
  C   1.96557391253176     -0.10195038846706      0.30793165546751
  H   1.84138217428718     -0.78197062340809      1.15143250179661
  H   2.38306602751356     -0.65370297459314     -0.53778009668498
  H   2.66183611626114      0.69482750480118      0.58074921159468
  C   -1.57726092414837     -0.01527720469382     -1.21221278168188
  H   -1.24443142205855      0.35574313990142     -2.18234605393269
  H   -2.03571553043528      0.81293404112105     -0.66774077294677
  H   -2.32829243847497     -0.79283154523814     -1.37694388760804
  N   -0.82413204939842     -1.18018536730472      0.87879524773625
  H   -1.19159341600601     -2.10991404889541      0.71923815389786
  H   -1.58081067273492     -0.62465882213880      1.26374811384374
