18
Coordinates from ORCA-job run
  C   0.46644730309270      0.60191989746709      0.32121294596312
  C   -0.52466421595162     -0.54770581004665      0.08387577596963
  F   -0.20730574480025      1.75718794944711     -0.15575711132413
  H   -0.03209904311003     -1.45394598012088      0.45789040114971
  N   0.74385086840041      0.80479730090502      1.70244861454020
  H   -0.00953914811134      0.43385875487556      2.26749226317597
  H   1.63667490531803      0.42586080782065      1.97854690350635
  C   1.74770888535324      0.49508340812233     -0.47697845688489
  H   2.24298603907154     -0.46252766629441     -0.29671659785132
  H   1.54667936949881      0.59590907805161     -1.54244817634801
  H   2.41478900492490      1.30624128972277     -0.17856927066370
  C   -0.89084896339660     -0.74032321156166     -1.38538875335249
  H   -1.29793268993259      0.18648507618626     -1.79481532012031
  H   -0.03213256137480     -1.04018748063744     -1.99094193042701
  H   -1.64964121283789     -1.52194066646775     -1.48082048051816
  N   -1.67388836154204     -0.29774374059664      0.95695177165722
  H   -2.32204912833447     -1.07434077972773      0.90916299576632
  H   -2.15703530626800      0.52937177285477      0.62385442576150
