18
Coordinates from ORCA-job run
  C   0.65458248031125      0.49739749760709     -0.14594733340965
  C   -0.45858872106576     -0.52319076830964     -0.41271860374159
  F   1.00852663764701      1.03870348655901     -1.39143054819703
  H   -0.03130055952035     -1.26416080985851     -1.10517250390363
  N   0.13429998896526      1.55764395437085      0.66321132380759
  H   -0.41351128052090      1.13817432440203      1.40619042111707
  H   0.88381921423114      2.10279359059972      1.07130471426160
  C   1.92270348389285     -0.14896644194237      0.38751322540351
  H   2.70777392342464      0.60834851644743      0.45795997214157
  H   2.27296489200735     -0.93835718366265     -0.28260371682819
  H   1.75197489651701     -0.56241549839761      1.38323406626885
  C   -1.66252317850244      0.12466641829024     -1.07778991600373
  H   -2.15091584770014      0.81808924983946     -0.39234951785290
  H   -2.38149526279892     -0.64245282158809     -1.38122312909297
  H   -1.35382610845115      0.67958702830770     -1.96247786140462
  N   -0.85936552002259     -1.11142473498387      0.87061917013914
  H   -1.78859529842568     -1.50567947060115      0.78801178485332
  H   -0.23652373998858     -1.86875633707962      1.12466845244166
