18
Coordinates from ORCA-job run
  C   0.52980757802251      0.54757957979887      0.32140476930155
  C   -0.60618113094365     -0.45654086599762      0.07297979127097
  F   0.07485461695339      1.75403618575620     -0.27273138937646
  H   -0.28437045547344     -1.39862481136765      0.53415298553972
  N   0.73828629076299      0.80164957960839      1.70628232493712
  H   -0.10061371211972      0.58581692035012      2.22994308555209
  H   1.54112656170289      0.31445255395216      2.07380702185535
  C   1.83200733943888      0.19707711677500     -0.36549149351081
  H   2.59379922741323      0.91727251042830     -0.06041997133652
  H   2.15963506649792     -0.80965109455098     -0.09363749515310
  H   1.72423676795582      0.25566579268535     -1.44751285827000
  C   -0.89603199582575     -0.69120868339367     -1.40720293219962
  H   -1.13066649751186      0.25553172214735     -1.89802560120297
  H   -1.75512526773477     -1.35883051620774     -1.51692059446658
  H   -0.05273086448702     -1.15229346785134     -1.92701771521428
  N   -1.76120205529366      0.01782867547440      0.83866430264958
  H   -2.09294028403189      0.88012793904700      0.42044675950793
  H   -2.51289118532587     -0.65888913665415      0.78827901011603
