18
Coordinates from ORCA-job run
  C   0.53111870323843      0.46930180662256      0.35974756414457
  C   -0.53547158938605     -0.59200469876357      0.07559558670394
  F   -0.09577641524825      1.72341268464385      0.03634846042198
  H   -0.10508250495120     -1.54831283974277      0.39112639152749
  N   0.87834582524710      0.41701278569414      1.72911340324188
  H   1.44957107268283      1.21056448744497      1.98938879764572
  H   0.03002179267120      0.39174664946695      2.28276489697358
  C   1.75992402301888      0.38897114247054     -0.51770826185849
  H   2.21131624411646     -0.60183503202717     -0.44445303957349
  H   2.49267106760096      1.12772261737089     -0.18426180886403
  H   1.51220527237680      0.60512483127368     -1.55621950291256
  C   -0.92041016300316     -0.66448586736428     -1.39962567885059
  H   -1.74945895811666     -1.36481750336538     -1.53025205177463
  H   -0.09526702414524     -1.00896748714037     -2.02719385494053
  H   -1.24076629540080      0.31793476731218     -1.75420106451922
  N   -1.66242935760557     -0.31049961269868      0.96975582012451
  H   -2.14073110525267      0.51850053423591      0.63499986887418
  H   -2.32078058784308     -1.07936926543343      0.94607447363569
