18
Coordinates from ORCA-job run
  C   0.62845289372890      0.40238519292468     -0.03150493154874
  C   -0.47145922774532     -0.55793240091864     -0.50919964130814
  F   1.09023015357278      1.07480775646061     -1.20033981343943
  H   -0.01170318914895     -1.17213999321494     -1.29145158865930
  N   0.10718189001941      1.33273807332870      0.91182900990249
  H   0.84843021161196      1.90464523850251      1.29805455806196
  H   -0.56751883847095      1.94421458209173      0.46943838554865
  C   1.83873040427326     -0.30653346418887      0.53854581982810
  H   2.64141373602879      0.41820883430364      0.69526082068926
  H   1.60364232198788     -0.78053283241475      1.49084925926622
  H   2.19832068760780     -1.05866713209164     -0.16596869642020
  C   -1.65453489447275      0.18844986947078     -1.11289634869580
  H   -2.32162058631299     -0.52900830791897     -1.59163909490195
  H   -1.32925709287161      0.92324457133249     -1.85117518481347
  H   -2.23205169906708      0.69247414971814     -0.33242011677816
  N   -0.95814398798218     -1.45234347860950      0.53538099567772
  H   -0.24504149764155     -2.12466883257119      0.78904270469578
  H   -1.16607128511742     -0.89934182620478      1.36019386289499
