18
Coordinates from ORCA-job run
  C   0.72934662048174      0.48653185244210     -0.07316270459989
  C   -0.38100934661537     -0.52775200668404     -0.39978607217663
  F   1.00083178332327      1.15729840642797     -1.27231550671669
  H   0.07316806432938     -1.29152852022131     -1.04136892951142
  N   0.36747632128685      1.49911997023688      0.88360634978088
  H   -0.52530084200574      1.92009643274827      0.65808414411841
  H   0.32633163259961      1.09941807851121      1.81170241156043
  C   2.00393844657819     -0.19475134252497      0.37174071568059
  H   1.81625638646766     -0.81353519746097      1.24888937969839
  H   2.75067299558898      0.56599193734860      0.60180960585811
  H   2.37877286064761     -0.82788239547131     -0.43453768634648
  C   -1.55112971996990      0.09688266829846     -1.15521721579307
  H   -2.29012090780992     -0.67172943651725     -1.39545492537374
  H   -2.05527527686789      0.85280519125717     -0.54385151184768
  H   -1.22531150094832      0.56954964033564     -2.08190951325356
  N   -0.76602035852796     -1.18003011745124      0.85653874996080
  H   -1.50229720317983     -0.64224285710900      1.30018678002220
  H   -1.14932995537836     -2.09724230416620      0.66504592893933
