18
Coordinates from ORCA-job run
  C   0.83120354235953      0.31277960273805     -0.21997508452318
  C   -0.47508272246421     -0.38740481097977     -0.61237334986590
  F   1.80558988698313     -0.30170060797910     -1.04163359312908
  H   -0.63532306225983     -0.10943022261176     -1.67072827552258
  N   0.85178351245124      1.70784406538632     -0.52995343430001
  H   0.61146785313880      2.28495635794822      0.26119091780386
  H   0.26779487980564      1.93865541385355     -1.32265246633019
  C   1.26194572182389      0.07621630412267      1.20985532671122
  H   2.26530529742243      0.48458422577657      1.34064718303537
  H   1.27146327716799     -0.99277426993598      1.41386752599721
  H   0.58561125105527      0.56243714546964      1.91589727796562
  C   -1.66382744274415      0.09276301022476      0.20483222550167
  H   -1.56047252352932     -0.22572353403146      1.24359592577141
  H   -1.76545898541440      1.17891212197213      0.16784825284207
  H   -2.58990064224878     -0.33870140750429     -0.18526285262984
  N   -0.32031627651441     -1.82737115121922     -0.43183267100672
  H   -1.17064281702699     -2.30044836458358     -0.71418139289517
  H   0.42985924999417     -2.15459387864675     -1.02814151542577
