18
Coordinates from ORCA-job run
  C   0.79928965342604      0.35336283004728     -0.27075576080996
  C   -0.52728575913888     -0.34341386789040     -0.59538197554829
  F   1.69648803716579     -0.15668937405730     -1.23848080130323
  H   -0.79703653435310      0.02259043973032     -1.60349165278341
  N   0.76467446195969      1.77135745767281     -0.44970997638898
  H   0.58536131763508      2.26506589819174      0.41119653772986
  H   0.10275682056667      2.05596743935406     -1.15957810996148
  C   1.37659267229511     -0.00038127761250      1.08117319374574
  H   1.42906056216247     -1.08274553072190      1.18197911125621
  H   2.37900515996501      0.42485702008212      1.15089612357884
  H   0.76414140132403      0.39753275840819      1.89293675146907
  C   -1.63696597242779      0.03181336868371      0.37393801575387
  H   -2.58916025683837     -0.38949281357088      0.03960633820884
  H   -1.76212010835649      1.11379885202673      0.44404151881492
  H   -1.42462357789718     -0.37283715895218      1.36509031793307
  N   -0.33036758026069     -1.78921705299402     -0.56283360219236
  H   0.36487419886794     -2.04144344347213     -1.25457354159085
  H   -1.19468449609534     -2.25812554492561     -0.80705248791187
