14

C	-0.54827	-0.029801	-1.416427
C	0.0	0.0	0.0
F	-0.046979	-1.085691	-2.114524
H	1.0913	0.0	0.0
H	-0.322254	-0.94089	0.463986
C	-2.020609	-0.110658	-1.423383
N	-3.184379	-0.252193	-1.356551
N	-0.149516	1.237918	-2.165982
O	1.022025	1.297414	-2.49982
O	-1.022501	2.083012	-2.351673
N	-0.49827	1.19574	0.661248
H	0.260297	1.639517	1.155015
H	-1.238817	0.990032	1.312255
Cl	3.46016	0.0	0.0
