14

C	-0.61349	0.059766	-1.38368
C	0.0	0.0	0.0
F	-1.956606	0.316341	-1.285291
H	1.090335	0.0	0.0
H	-0.318467	0.929638	0.490046
C	-0.021289	1.059494	-2.278844
N	0.426405	1.873269	-2.997855
N	-0.475918	-1.3028	-2.063387
O	-1.500375	-1.929753	-2.282771
O	0.672406	-1.634385	-2.313281
N	-0.483697	-1.205891	0.658665
H	0.291506	-1.636829	1.143321
H	-1.220102	-1.007832	1.319517
Cl	3.378308	0.0	0.0
