14

C	-0.555762	0.914857	-1.068613
C	0.0	0.0	0.0
F	-1.926765	0.821412	-1.094982
H	1.089283	0.0	0.0
H	-0.350081	-1.006845	-0.256536
C	-0.204316	2.328248	-0.902635
N	-0.002451	3.475301	-0.756873
N	-0.082743	0.443319	-2.441962
O	0.828228	1.061715	-2.975255
O	-0.655594	-0.55114	-2.875147
N	-0.482925	0.486177	1.286199
H	0.290145	0.499419	1.936916
H	-1.215913	-0.101006	1.655135
Cl	3.358234	0.0	0.0
