14

C	-0.517741	0.010073	-1.417662
C	0.0	0.0	0.0
F	-0.115986	-1.10115	-2.093063
H	1.090408	0.0	0.0
H	-0.335743	-0.956981	0.411905
C	-1.988128	0.099512	-1.490024
N	-3.160234	0.108357	-1.558076
N	0.009529	1.204594	-2.229132
O	0.53076	2.12707	-1.618487
O	-0.162168	1.125667	-3.440128
N	-0.607634	1.102583	0.743956
H	0.033703	1.884522	0.709865
H	-0.700823	0.830736	1.71327
Cl	3.414385	0.0	0.0
