14

C	-0.550249	-0.037802	-1.407627
C	0.0	0.0	0.0
F	-1.918992	-0.1748	-1.372691
H	1.098333	0.0	0.0
H	-0.344252	-0.924199	0.477042
C	-0.237441	1.146795	-2.211471
N	-0.046843	2.12149	-2.837117
N	-0.034402	-1.282419	-2.124173
O	0.792096	-1.136647	-3.014503
O	-0.496433	-2.340057	-1.711785
N	-0.494593	1.212985	0.63836
H	0.27926	1.677015	1.092997
H	-1.205287	1.008182	1.324157
Cl	3.356758	0.0	0.0
