14

C	-0.514029	-0.374186	-1.368728
C	0.0	0.0	0.0
F	-0.146067	0.542186	-2.308494
H	1.100411	0.0	0.0
H	-0.348816	1.017981	0.18695
C	-0.12143	-1.719619	-1.801414
N	0.219406	-2.783291	-2.16236
N	-2.052461	-0.322942	-1.335205
O	-2.522388	0.773264	-1.051362
O	-2.687615	-1.339506	-1.587627
N	-0.554465	-0.963197	0.950709
H	-0.98724	-0.483972	1.727415
H	0.204517	-1.521956	1.320116
Cl	3.382544	0.0	0.0
