14

C	-0.605575	0.087048	-1.384704
C	0.0	0.0	0.0
F	-1.94879	0.343876	-1.290452
H	1.090374	0.0	0.0
H	-0.317246	0.922313	0.505607
C	-0.00677	1.105869	-2.253989
N	0.439433	1.944705	-2.943289
N	-0.465182	-1.263296	-2.08793
O	-1.489642	-1.881373	-2.3366
O	0.686654	-1.596115	-2.324616
N	-0.485714	-1.215649	0.637173
H	-1.221512	-1.026387	1.30007
H	0.286496	-1.658052	1.114066
Cl	3.380644	0.0	0.0
