13
Coordinates from ORCA-job run
  C   0.47091757156840      0.48719783423730      0.09801587355684
  C   -0.93345527316667     -0.01450807222338     -0.24283259857711
  Br  0.60717149053215      0.44027197279123      2.13249563381853
  H   -1.01994254838378     -0.09303811586352     -1.32972407113536
  H   -1.69369049531983      0.64638334928947      0.16567312918225
  C   0.53132897977410      1.91139250123252     -0.23218367108561
  N   0.56539652786145      3.04674603918239     -0.53341973542955
  N   1.48475042258483     -0.21090955422621     -0.57836878573483
  H   1.42477975996957     -1.20795844198289     -0.41510314706978
  H   2.40818733796814      0.14468245698863     -0.36939197742493
  N   -1.20869637066723     -1.37450690577027      0.30894521750040
  O   -0.36011956120101     -2.24257952484176      0.11032907599447
  O   -2.27662784152013     -1.53417353881353      0.88656505640471
