13
Coordinates from ORCA-job run
  C   0.58919855393218      0.28345473369802      0.31559564526700
  C   -0.49421778225690     -0.77524181544110      0.50385672885204
  Br  1.92466424772249     -0.14826536222167      1.80031669125148
  H   -1.00528442920510     -0.64414492852091      1.45573129341519
  H   -0.06436101674021     -1.77190796573873      0.41979589352786
  C   0.12651516258119      1.63566677687786      0.62192385535729
  N   -0.21668485277052      2.73427074416156      0.85879555810078
  N   1.11716105362069      0.23139562600992     -0.98254056106712
  H   1.44471404273207     -0.68954629330448     -1.24473254908452
  H   1.81991865224040      0.93537903489570     -1.16342789966824
  N   -1.50340572606625     -0.63618873395201     -0.58947173888782
  O   -2.29369124096902      0.29748998503964     -0.48961795242300
  O   -1.44352666482104     -1.45136180150381     -1.50622496464093
