13
Coordinates from ORCA-job run
  C   0.64828172190100      0.35491438571213      0.38623096478692
  C   -0.42554625942159     -0.73304911449401      0.49346788894242
  Br  1.77430111421301      0.04993426530946      1.98221117106228
  H   -1.00185752540240     -0.65166900366691      1.41556998834481
  H   0.02990222915421     -1.72373270008065      0.44571519594653
  C   0.04290415394975      1.68070681883488      0.53100735400423
  N   -0.46698015675450      2.73107549400397      0.66109085602881
  N   1.50750695826629      0.33251087559755     -0.76093263582130
  H   1.95024058135998     -0.57295823648865     -0.86386408553990
  H   0.97278539436606      0.56043635205204     -1.59085663966050
  N   -1.42638504675977     -0.68030164980439     -0.62705726145978
  O   -1.29157192807045      0.17444070334432     -1.50054416487602
  O   -2.31358123680160     -1.52230819031973     -0.57403863175849
