13
Coordinates from ORCA-job run
  C   0.53472960657400      0.42754075426651      0.17087020530257
  C   -0.38250473573666     -0.77755267358055     -0.07625634826550
  Br  0.35322169955330      0.93002481329064      2.06300499279730
  H   -0.37781996409431     -1.01488304304477     -1.14362205469364
  H   -0.03440653371125     -1.62520827730918      0.51198109563509
  C   0.17363237705124      1.58355760727967     -0.65146185293383
  N   -0.03691579058686      2.49384571350090     -1.36386579522572
  N   1.92252121291059      0.12727704931416     -0.07278980853266
  H   2.21643338407266     -0.69789127631748      0.43597779956733
  H   2.10498659127198      0.01905850401437     -1.06402535231009
  N   -1.80542909361631     -0.54481643446640      0.30654581754166
  O   -2.36166658447074      0.41680529122869     -0.21545247453391
  O   -2.30678216921764     -1.33775802817657      1.09809377565141
