16

C	0.0	0.0	0.0
C	-0.553967	-0.282201	-1.400168
F	1.382883	0.0	0.0
H	-1.652053	-0.131905	-1.322435
C	-0.392386	1.351974	0.448167
N	-0.54915	2.430051	0.8865
C	-0.468457	-1.04811	0.991578
H	-1.559113	-1.064157	1.01374
H	-0.075262	-0.787462	1.976002
H	-0.07002	-2.020283	0.693942
C	-0.227164	-1.630432	-1.842752
N	-0.000451	-2.733635	-2.175608
N	0.015397	0.711912	-2.378475
O	-0.507904	1.82085	-2.380374
O	0.966109	0.357252	-3.070984
Cl	-3.533019	0.0	0.0
