16

C	0.0	0.0	0.0
C	-0.593497	0.224292	-1.386081
F	1.376035	0.0	0.0
H	-1.703191	0.250623	-1.22739
C	-0.411633	1.060543	0.943714
N	-0.617281	1.844574	1.79289
C	-0.450518	-1.352311	0.535236
H	-0.047972	-2.14068	-0.104105
H	-0.045299	-1.470385	1.541858
H	-1.539819	-1.393169	0.56342
C	-0.22934	-0.840736	-2.309467
N	0.057612	-1.708675	-3.047452
N	-0.199949	1.537453	-2.018785
O	-0.480799	1.665267	-3.205
O	0.328783	2.383672	-1.307303
Cl	-3.528122	0.0	0.0
