19
Coordinates from ORCA-job run
  C   0.53925943839419     -0.00356802752788      0.44785677954053
  C   -0.57059616733274     -0.26990901059610     -0.57690941051539
  F   -0.04213701495037     -0.22002482997761      1.72161757058469
  H   -0.10184119282881     -0.21316722433689     -1.56775176063457
  C   1.02917868107280      1.43137060115946      0.43536281752497
  H   0.23981475328509      2.11440813940961      0.74913556892869
  H   1.36692847884084      1.71703979743952     -0.56429619879059
  H   1.86661810206673      1.54069811513536      1.12755191640527
  C   1.68318812526064     -0.98849592190422      0.31404852941075
  H   1.30377535075811     -2.00815080303202      0.32768584576890
  H   2.38567358927665     -0.84596743867978      1.13824336677088
  H   2.21388079956879     -0.82471177398597     -0.62753397989508
  C   -1.69845977420697      0.76172435729859     -0.50422969475266
  H   -2.51393658333183      0.46206622025739     -1.16789013529005
  H   -1.37682465983334      1.76000073506795     -0.80965179839664
  H   -2.09145359195567      0.81765944390460      0.51403734471508
  N   -1.02992346907463     -1.64808242691275     -0.39679881356393
  H   -1.74811113610951     -1.85708742641628     -1.08018024991656
  H   -1.45303372889997     -1.72480252630299      0.52170230210572
