19
Coordinates from ORCA-job run
  C   0.56556325836067      0.51199118295707      0.19158113905932
  C   -0.71843734655180      0.09852689303458     -0.53794992982959
  F   0.39532771832032      1.87381653726027      0.52040669237280
  H   -0.84878291914842      0.84545270686659     -1.33839920552079
  C   1.77007668629527      0.43865146343154     -0.72688746091783
  H   1.56983664614663      0.96228816690190     -1.66601884807637
  H   2.03248710012774     -0.59915561084591     -0.93954851387342
  H   2.62341545337163      0.91979070440612     -0.24460702898508
  C   0.79440531062511     -0.24477402526444      1.48225946830747
  H   0.76335921051326     -1.31799911912911      1.29050877628724
  H   0.02849415091205      0.01011848165183      2.21582900708823
  H   1.76698485885716      0.01811774591239      1.90449494117354
  C   -1.94329804058380      0.15142867210009      0.36146127065753
  H   -1.92525042885126     -0.66777712435689      1.08356978218545
  H   -1.98756607792953      1.10029478711477      0.89678608322527
  H   -2.85450264677765      0.05672940163953     -0.23637778804638
  N   -0.55311609058083     -1.26217176126048     -1.05638758460500
  H   -0.01609265702675     -1.24591487648914     -1.91525341946407
  H   -1.46190418607980     -1.64741422593069     -1.28546738103831
