19
Coordinates from ORCA-job run
  C   0.52656113635477     -0.01834149471048      0.36788633210878
  C   -0.71797942195309     -0.17990857154314     -0.52723209720103
  F   0.10503891338084     -0.28640904317289      1.69125735530629
  H   -0.38179462239177     -0.05835452756911     -1.56491310535448
  C   1.08428548625193      1.39229256063298      0.36236934113902
  H   1.30390112100808      1.71822839831600     -0.65786984135833
  H   0.37297656039096      2.08784294760900      0.80686966680898
  H   2.00716811409950      1.43354346067901      0.94507469639092
  C   1.60416798025777     -1.03711820123217      0.04843250367386
  H   2.44348497031221     -0.91584818884492      0.73611982621101
  H   1.22557717300838     -2.05326133549837      0.16094923045228
  H   1.97003333401743     -0.90505403608747     -0.97322287708258
  C   -1.78225199309692      0.87242461980201     -0.23185477507099
  H   -2.67626386895823      0.63369038734210     -0.80802906604953
  H   -1.45680650949873      1.88014240275517     -0.49443325912941
  H   -2.04251549748944      0.85904777439962      0.82966328310654
  N   -1.34533201393972     -1.49720419976846     -0.43065325700442
  H   -1.49984263242176     -1.71188125576564      0.54845929606317
  H   -0.74040822933222     -2.21483169734325     -0.80887325301008
