19
Coordinates from ORCA-job run
  C   0.53694650221216      0.48476723350849      0.17244176689884
  C   -0.76424527144894      0.15197482637751     -0.58289463721039
  F   0.41065463815633      1.83271322747494      0.57228122366102
  H   -0.84048493184936      0.91900243573229     -1.36390342299240
  C   1.75023763189234      0.42720338546618     -0.73707494954216
  H   2.60375601710803      0.87986970160400     -0.22832127388462
  H   1.56513415904642      0.98663464404966     -1.65783473623339
  H   2.01348385291801     -0.60100502108518     -0.99194705754825
  C   0.74275420225540     -0.32733628432847      1.43608795158346
  H   1.69755170995314     -0.06278294863380      1.89570581347230
  H   0.75579739018466     -1.39847823735580      1.22089992484705
  H   -0.04822242092425     -0.12239800875958      2.15806112654248
  C   -1.99538932660859      0.25730126548535      0.30580076004166
  H   -1.99180640389649      1.18953961091238      0.87168829082500
  H   -2.89175706465640      0.21839300815295     -0.31459344660304
  H   -2.04451375851787     -0.57812499919570      1.01034215356299
  N   -0.77971943799501     -1.14198748894173     -1.25667525263924
  H   -0.02438283827903     -1.22107555828615     -1.92504545593339
  H   -0.69379464955054     -1.89621079217734     -0.58601877884792
