16

C	0.0	0.0	0.0
C	-0.283846	0.087022	-1.532618
F	1.35737	0.0	0.0
H	0.468248	-0.560102	-1.993349
C	-0.919921	0.902359	0.720905
N	-0.959577	1.896144	1.396494
N	-0.301423	-1.423235	0.496668
O	-0.18243	-2.338193	-0.319333
O	-0.451926	-1.57224	1.70606
C	-0.069374	1.539327	-1.976995
H	0.905399	1.891589	-1.635296
H	-0.839469	2.179568	-1.543604
H	-0.117245	1.607841	-3.06622
C	-1.581503	-0.391009	-2.002954
N	-2.464887	-0.760021	-2.692038
H	-1.989831	0.0	0.0
