16

C	0.0	0.0	0.0
C	-0.198023	0.175842	-1.556276
F	1.38175	0.0	0.0
H	0.212773	1.186607	-1.698128
C	-0.776201	1.010246	0.707647
N	-0.770726	2.05934	1.282453
N	-0.368144	-1.368078	0.518384
O	-0.375908	-2.29835	-0.291166
O	-0.437984	-1.48946	1.739697
C	-1.55995	0.126049	-2.246738
H	-2.216846	0.89905	-1.859308
H	-2.030948	-0.842022	-2.0821
H	-1.406706	0.281279	-3.325094
C	0.717618	-0.713132	-2.289473
N	1.414859	-1.360413	-2.978363
H	-2.029616	0.0	0.0
