16

C	0.0	0.0	0.0
C	-0.334544	0.1526	-1.500814
F	1.357333	0.0	0.0
H	0.364655	-0.513109	-2.01601
C	-0.719952	0.94895	0.837913
N	-0.708855	1.890102	1.57234
N	-0.333987	-1.408116	0.480597
O	-0.415331	-1.581107	1.694338
O	-0.275019	-2.303915	-0.363599
C	-0.08144	1.60162	-1.921554
H	-0.200856	1.694494	-3.002361
H	0.930086	1.906676	-1.644399
H	-0.796246	2.264203	-1.430791
C	-1.694179	-0.254421	-1.872685
N	-2.541046	-0.561956	-2.646436
H	-2.083643	0.0	0.0
