16

C	0.0	0.0	0.0
C	-0.343309	-0.012135	-1.513048
F	1.356322	0.0	0.0
H	-1.435121	0.026669	-1.566615
C	-0.807607	1.013193	0.703629
N	-0.684024	2.020886	1.340396
N	-0.302475	-1.337903	0.704848
O	0.152945	-1.401083	1.842771
O	-0.907205	-2.235399	0.132265
C	0.212523	-1.191615	-2.318426
H	0.056602	-1.003716	-3.383612
H	-0.304944	-2.106736	-2.04347
H	1.284283	-1.31268	-2.147176
C	0.214397	1.227183	-2.062477
N	0.697215	2.170822	-2.569082
H	-2.27583	0.0	0.0
