16
Coordinates from ORCA-job run
  C   -0.56770421120186      0.36824703543849     -0.10294096838360
  C   0.97593936037922      0.30390999292360     -0.13260494468862
  F   -0.84988671954160      1.42998230030388      0.77999725075156
  H   1.35626466180265      1.21857670632572     -0.59288692203134
  C   -1.24352230846395     -0.86908332237487      0.43789481929548
  H   -1.03469629636358     -1.73094029244376     -0.19572033256395
  H   -2.32080452155846     -0.68878088934740      0.45887476599947
  H   -0.90940302280246     -1.07739429704541      1.45197188516716
  N   -0.98274755244289      0.64760543750657     -1.42547695179744
  H   -1.98438915321558      0.55233817890865     -1.53004489875439
  H   -0.69965927810111      1.57443645938324     -1.71931828160302
  C   1.45196910003593     -0.87272119168251     -0.84380888466306
  N   1.83788890570489     -1.81683263020955     -1.42499611144025
  N   1.52942401143049      0.31401363574320      1.27100605029039
  O   1.98993762668626      1.38008453096028      1.66071699205899
  O   1.45038939765204     -0.73144165439011      1.90733653236264
