16
Coordinates from ORCA-job run
  C   -0.57429434161590     -0.02460222857454     -0.29313603016117
  C   0.88546658174694      0.00474275073302      0.26772365838817
  F   -0.51539158885062      0.81661379672359     -1.40147131760410
  H   0.99180665360722     -0.77104317193049      1.02915886847990
  C   -1.54168361040099      0.56833781668520      0.70800289394838
  H   -1.31917162907921      1.62163320455814      0.87244070063334
  H   -1.49823587320410      0.04194647141361      1.66483294017657
  H   -2.54753042005488      0.48160376930130      0.29485962682439
  N   -1.01713045629741     -1.29950832635847     -0.72347386406304
  H   -1.48315949630101     -1.81687137440949      0.00637636644391
  H   -0.29305078029570     -1.85710495497820     -1.15517711404092
  C   1.25226759635961      1.30763152304676      0.80289532443394
  N   1.49694092239647      2.34811221366780      1.28894753932482
  N   1.83561153967103     -0.37106300728376     -0.84403408095081
  O   1.85817379028703     -1.56838362284743     -1.12608760166019
  O   2.47038111203152      0.51795514025296     -1.39185791017320
