16
Coordinates from ORCA-job run
  C   -0.55424744431365      0.02317985107618     -0.25902501810222
  C   0.85608460364061      0.07700161494890      0.36024085147095
  F   -0.60266765161540      0.97892798822668     -1.28221552087064
  H   0.84548585382859     -0.45767732624063      1.31120499851238
  C   -1.57829527280902      0.43453140445039      0.77865896385208
  H   -1.35003744786186      1.42838273752836      1.16579095882783
  H   -2.55905782426311      0.47970483930663      0.30040272841512
  H   -1.61197148388938     -0.28401102297541      1.59825965527865
  N   -0.79617571258110     -1.28996712070620     -0.73507362340437
  H   -0.27314241970992     -1.46347413040124     -1.58504005265075
  H   -1.78088500803701     -1.42488039675954     -0.92386062829668
  C   1.32114409868930      1.44552167291014      0.55418807084337
  N   1.68196289488031      2.54737491356760      0.73825262661413
  N   1.88177016155695     -0.65690730284788     -0.47550642839919
  O   2.67982081404421     -1.35211200563370      0.14180380094260
  O   1.84021183844047     -0.48759571645028     -1.68908138303326
