16
Coordinates from ORCA-job run
  C   -0.60799902521668      0.43409097633705     -0.20511767460633
  C   0.88703958541053      0.46125744591762      0.26623110571128
  F   -0.88210451050277      1.78996627095575     -0.34939037723220
  H   0.98244018458680      1.10801628154117      1.13891760185617
  C   -1.50440411546436     -0.13726884807556      0.86969071698766
  H   -1.35127130295328     -1.21118884902350      0.99156788064993
  H   -1.32030620746723      0.35232810696276      1.82660536070837
  H   -2.53597658310730      0.03805558452276      0.56565642060849
  N   -0.85485804237129     -0.18035894178353     -1.45889113218476
  H   -0.78670979906339     -1.18709975512874     -1.40929784326721
  H   -0.23527344392097      0.16654470855057     -2.18168624527152
  C   1.75971148733649      0.89706606659322     -0.81229545063560
  N   2.41747879769565      1.25649227796608     -1.71611814216184
  N   1.27142237850541     -0.91916464412243      0.71303016016087
  O   1.43189923797565     -1.76259859317945     -0.16485179159430
  O   1.32891135855674     -1.10413808803375      1.92494941027099
