13

C	0.015445	-0.012625	0.019735
C	-0.462102	0.252975	-1.42371
Cl	1.830994	0.133148	0.038519
H	-1.558594	0.1615	-1.395741
H	-0.03611	-0.478675	-2.115289
N	-0.523522	0.847175	1.027285
H	-0.288925	1.806298	0.787905
H	-1.548872	0.757458	0.96793
C	-0.281408	-1.416139	0.34628
N	-0.470097	-2.552995	0.57094
C	-0.105049	1.599584	-1.852714
N	0.195127	2.682351	-2.192709
Cl	-3.540905	0.397738	-0.031421
