13

C	0.017119	-0.017673	0.017428
C	-0.455187	0.274405	-1.422801
Cl	1.833558	0.112309	0.042235
H	-1.552505	0.192853	-1.398125
H	-0.034532	-0.450235	-2.124938
N	-0.517115	0.830931	1.036724
H	-0.27368	1.791781	0.813985
H	-1.542991	0.750597	0.974247
C	-0.292724	-1.423387	0.321733
N	-0.491008	-2.561813	0.529535
C	-0.084886	1.624251	-1.829996
N	0.22524	2.709183	-2.153731
Cl	-3.536561	0.429192	-0.035338
