15
Coordinates from ORCA-job run
  C   -0.40300380261763     -0.16861191669822      0.03671475391543
  C   0.90275474924511     -0.40676425817243      0.25814822442221
  H   1.14863523760361     -1.26827529495421      0.88005196722782
  C   -1.45774646906116     -1.06311828241193      0.63248677682810
  H   -1.01788965904367     -1.87040870600476      1.22149096635635
  H   -2.13120148170552     -0.49285588915001      1.28156668348465
  H   -2.07809928226609     -1.51065728120065     -0.15168166172692
  C   -0.94764415426297      0.96467487809328     -0.78980136956065
  H   -0.17334565597759      1.60554239445062     -1.20937039945348
  H   -1.61235622656786      1.59033850087914     -0.18445815125823
  H   -1.55073134357706      0.57654915629743     -1.61763027264741
  C   2.08563369519107      0.36507751782279     -0.24735537996402
  H   2.74185663148393     -0.28082074433906     -0.83906602251075
  H   1.80702512680886      1.21497679960194     -0.86943060785496
  H   2.68411263474698      0.74335312578609      0.58733449274187
