15
Coordinates from ORCA-job run
  C   -0.39565256077475      0.20943185175800     -0.03315957088496
  C   0.91977261676349      0.46415991502349      0.09151841165593
  H   1.20182353796447      1.48318307537236      0.35884184610138
  C   -0.98784464996922     -1.12607177176357     -0.39350138290453
  H   -1.66820286191241     -1.46457864505498      0.39533507205141
  H   -1.58497301267039     -1.04347467377771     -1.30798007653834
  H   -0.24070992104867     -1.90323269876845     -0.54873240688239
  C   -1.41244197496904      1.29687356533287      0.19306607574398
  H   -2.02430660048355      1.45127195387239     -0.70238491086579
  H   -0.93876432025774      2.24642220946249      0.45017407291267
  H   -2.09915689706710      1.02610846904764      1.00248296755927
  C   2.06979386260425     -0.48096150392437     -0.09465501542194
  H   2.66263936101939     -0.55182969470938      0.82267463289507
  H   2.74260010237641     -0.11829593659391     -0.87806970953378
  H   1.75542331842486     -1.48800611527689     -0.36661000588796
