15
Coordinates from ORCA-job run
  C   -0.40980274828157     -0.16328398837368      0.01467871168710
  C   0.88302508289526     -0.46916417565045      0.22848023404504
  H   1.08975639156025     -1.39365374520551      0.76881751537335
  C   -1.50436976805957     -1.07194243803478      0.50892798964471
  H   -1.10210732810847     -1.94622533391004      1.02463383795093
  H   -2.12705580349910     -1.42089378183865     -0.32209505134768
  H   -2.16868291455975     -0.54202643765717      1.20030985461472
  C   -0.90194737720627      1.06178767068736     -0.70705914069339
  H   -1.50796681522635      0.77451100086629     -1.57306452023902
  H   -0.09982486073491      1.70951486753116     -1.05829105815672
  H   -1.55152948509906      1.65274696659966     -0.05242025448526
  C   2.09948680941835      0.30599745288353     -0.18395730816504
  H   2.74118516005610     -0.29940668116116     -0.83184719449221
  H   1.85949161496232      1.22468767927102     -0.71817750983728
  H   2.69934204188276      0.57535094399242      0.69106389410075
