15
Coordinates from ORCA-job run
  C   -0.39035814964716      0.21583887931100     -0.11211175168991
  C   0.89954151788669      0.46834404751335      0.17616212618228
  H   1.16732312072202      1.50594446090585      0.37871951284938
  C   -1.40047017032653      1.33227575750230     -0.14842238876830
  H   -0.94483073313309      2.29741415691080      0.08196162577988
  H   -1.86939587046036      1.40194113464236     -1.13606103546106
  H   -2.20631772439756      1.15341788928567      0.57179935459860
  C   -0.95953681517544     -1.14250674093362     -0.41998414185838
  H   -1.75326210447262     -1.39209777613335      0.29234755931418
  H   -1.41885168036077     -1.14431198669254     -1.41438886848274
  H   -0.21864337562080     -1.94035882156710     -0.39069002825986
  C   2.03835848672865     -0.50493409988700      0.25786092112269
  H   2.49249449325854     -0.48415240588567      1.25354317561934
  H   1.73794501832448     -1.53151846514457      0.05076817810294
  H   2.82600398667395     -0.23729602982748     -0.45350423904904
