17

C	-0.354864	-0.008073	-1.480964
C	0.0	0.0	0.0
Cl	-2.150661	0.02352	-1.729314
H	1.100762	0.0	0.0
N	0.229292	1.079183	-2.189617
H	1.239926	0.961632	-2.083696
H	-0.02203	1.888006	-1.625332
N	0.141365	-1.305547	-2.128697
O	-0.427821	-2.348351	-1.816965
O	1.097629	-1.230184	-2.886252
N	-0.52956	-1.096009	0.797259
H	0.264759	-1.529325	1.263434
H	-0.9488	-1.799611	0.203436
N	-0.383954	1.309617	0.520732
H	0.387755	1.629688	1.100343
H	-1.193296	1.167626	1.116349
H	2.798296	0.0	0.0
