17

C	-0.648073	-0.003938	-1.379737
C	0.0	0.0	0.0
Cl	-0.061519	-1.338105	-2.390912
H	1.092775	0.0	0.0
N	-2.062035	-0.046764	-1.274048
H	-2.312602	0.712945	-0.644737
H	-2.47891	0.097748	-2.186803
N	-0.229988	1.277417	-2.168834
O	-0.910751	1.534616	-3.162098
O	0.715172	1.942868	-1.769899
N	-0.388893	-1.21436	0.666136
H	0.284666	-1.416015	1.390866
H	-1.328987	-1.173724	1.03058
N	-0.511635	1.227336	0.67096
H	0.211238	1.93381	0.547141
H	-0.528512	1.015615	1.664227
H	2.886745	0.0	0.0
