17

C	-0.687615	0.001063	-1.374362
C	0.0	0.0	0.0
Cl	0.111654	-1.171825	-2.430092
H	1.095021	0.0	0.0
N	-2.092008	-0.285271	-1.350542
H	-2.148278	-1.185159	-0.879105
H	-2.513139	0.408168	-0.738623
N	-0.511939	1.390169	-1.986951
O	-1.479432	2.14762	-1.901185
O	0.587981	1.691928	-2.429488
N	-0.398891	-1.234368	0.663866
H	0.443053	-1.644831	1.054061
H	-1.045859	-1.017433	1.413058
N	-0.510968	1.151247	0.77233
H	-0.146695	2.002737	0.348264
H	-0.002896	1.091956	1.652305
H	2.863065	0.0	0.0
