16

C	-0.489183	-0.06629	-1.445685
C	0.0	0.0	0.0
F	-0.166849	1.132665	-2.082694
H	1.094415	0.0	0.0
C	0.228657	-1.150405	-2.14814
N	0.708212	-2.017138	-2.778006
C	-1.987373	-0.270296	-1.586626
H	-2.50143	0.566611	-1.106934
H	-2.275467	-1.204891	-1.105151
H	-2.265958	-0.30307	-2.642165
N	-0.357091	-1.255496	0.676743
H	0.487826	-1.571062	1.139429
H	-1.079578	-1.122537	1.372732
C	-0.54538	1.178344	0.651613
N	-1.01754	2.099458	1.21232
F	2.53037	0.0	0.0
