16

C	-0.280967	0.008346	-1.50429
C	0.0	0.0	0.0
F	0.095499	-1.254893	-1.979737
H	1.102317	0.0	0.0
C	-1.712849	0.155131	-1.834037
N	-2.843313	0.296208	-2.120443
C	0.607265	1.038443	-2.174135
H	1.608615	0.866219	-1.76038
H	0.584715	0.903066	-3.257561
H	0.27432	2.049329	-1.928174
N	-0.619107	-1.185772	0.618226
H	-0.047962	-1.96466	0.305269
H	-0.454647	-1.116112	1.61796
C	-0.507899	1.222069	0.600273
N	-0.896562	2.208249	1.109504
F	2.612074	0.0	0.0
