16

C	-0.355459	-0.004868	-1.485537
C	0.0	0.0	0.0
F	0.179253	-1.154706	-2.048494
H	1.09533	0.0	0.0
C	-1.818784	-0.090672	-1.685418
N	-2.984536	-0.139324	-1.81558
C	0.277364	1.186858	-2.174025
H	-0.19102	2.120305	-1.857271
H	1.324659	1.171184	-1.866306
H	0.18618	1.082298	-3.256388
N	-0.475869	-1.208202	0.665053
H	0.233777	-1.487473	1.331152
H	-1.346805	-1.046366	1.155306
C	-0.484893	1.22963	0.620713
N	-0.901956	2.192787	1.153643
F	2.571053	0.0	0.0
