16

C	0.0	0.0	0.0
C	-0.552615	-0.315174	-1.463866
Cl	1.750359	0.0	0.0
H	-1.195441	-1.177808	-1.351788
C	-0.465675	1.30271	0.457774
N	-0.605119	2.430335	0.760692
N	-0.431595	-1.072314	0.993301
O	-0.518811	-2.212478	0.567133
O	-0.536132	-0.716902	2.157378
N	0.587913	-0.749518	-2.354175
O	1.154846	0.110674	-3.02308
O	0.877485	-1.944582	-2.35138
N	-1.255577	0.729486	-2.123501
H	-0.701014	1.578604	-2.136072
H	-2.063974	0.830922	-1.494148
F	-2.427262	0.0	0.0
