17

C	0.0	0.0	0.0
C	-0.251712	0.026644	-1.573553
Br	1.9668	0.0	0.0
H	0.55621	-0.592256	-1.980807
C	-0.252173	1.306802	0.790966
H	0.273375	2.135637	0.313892
H	0.160926	1.173796	1.795644
H	-1.313655	1.522475	0.851688
C	-0.713716	-1.145223	0.561608
N	-0.738719	-2.230126	1.060643
C	-0.018443	1.373525	-2.098715
N	0.127584	2.440903	-2.568964
C	-1.529598	-0.542779	-2.209825
H	-1.318952	-0.690643	-3.280085
H	-2.386965	0.110811	-2.083908
H	-1.767529	-1.503882	-1.754657
H	-2.096612	0.0	0.0
