17

C	0.0	0.0	0.0
C	-0.675527	-0.01894	-1.360108
Br	1.965207	0.0	0.0
H	-1.798858	-0.116956	-0.979143
C	-0.474052	1.193819	0.818903
H	-0.110301	2.12377	0.378692
H	-1.574495	1.143895	0.793986
H	-0.110247	1.120209	1.84526
C	-0.334754	-1.242331	0.714264
N	-0.538952	-2.234856	1.311052
C	-0.285417	-1.171422	-2.148093
N	0.010311	-2.088475	-2.825156
C	-0.536193	1.276502	-2.152613
H	-1.146797	2.056582	-1.692671
H	0.505497	1.611041	-2.209876
H	-0.903487	1.124878	-3.170371
H	-3.006462	0.0	0.0
