17

C	0.0	0.0	0.0
C	-0.250854	0.032667	-1.573305
Br	1.967034	0.0	0.0
H	0.550784	-0.594149	-1.980626
C	-0.253364	1.303783	0.795567
H	0.155366	1.16529	1.801038
H	0.274942	2.133826	0.32393
H	-1.31508	1.51952	0.853209
C	-0.709947	-1.148668	0.558975
N	-0.730525	-2.235848	1.052643
C	0.000452	1.378762	-2.092476
N	0.164057	2.447588	-2.55399
C	-1.534707	-0.518422	-2.212721
H	-1.32812	-0.658398	-3.285145
H	-1.782129	-1.480511	-1.765381
H	-2.385013	0.14334	-2.078023
H	-2.10156	0.0	0.0
