15

C	-0.415672	0.037933	-1.470312
C	0.0	0.0	0.0
F	-0.085882	1.30728	-1.920849
H	1.088215	0.0	0.0
H	0.228517	-0.674825	-1.986865
N	-1.782694	-0.228498	-1.80492
H	-2.37728	0.274027	-1.157753
H	-1.944632	-1.221774	-1.704287
N	-0.41902	-1.209059	0.633274
O	-0.707006	-1.216977	1.84331
O	-0.330306	-2.235121	-0.076534
N	-0.489476	1.153806	0.775762
O	-1.568153	1.662803	0.441664
O	0.207793	1.546231	1.707525
H	2.408169	0.0	0.0
