15

C	-0.444965	-0.013488	-1.455723
C	0.0	0.0	0.0
F	-0.052999	-1.238175	-1.970026
H	1.087691	0.0	0.0
H	-1.526261	0.072908	-1.57122
N	0.224248	1.004843	-2.212252
H	-0.17364	1.900567	-1.962813
H	1.204219	1.000185	-1.934412
N	-0.469616	-1.140762	0.801779
O	-1.350053	-1.862544	0.315648
O	0.060214	-1.31922	1.899576
N	-0.413168	1.21797	0.686381
O	-1.170717	2.008454	0.085852
O	0.070701	1.435628	1.804347
H	2.47302	0.0	0.0
