15

C	-0.566944	0.019955	-1.403009
C	0.0	0.0	0.0
F	-1.9326	-0.394275	-1.334699
H	1.088081	0.0	0.0
H	-0.61525	1.05116	-1.744075
N	0.180387	-0.766246	-2.304754
H	-0.325202	-0.865394	-3.173826
H	0.38473	-1.669497	-1.902308
N	-0.377008	-1.239896	0.684958
O	0.010033	-2.266286	0.106511
O	-0.992078	-1.234122	1.749338
N	-0.389801	1.166769	0.785899
O	0.083625	1.221571	1.926988
O	-1.040227	2.080177	0.249516
H	2.420993	0.0	0.0
