16

C	-0.279023	-0.017792	-1.422566
C	0.11282	-0.119084	0.037656
Br	-0.082717	-1.796913	-2.282582
H	1.193778	-0.280892	0.078401
H	-0.026045	0.911601	0.423228
N	-1.713545	0.291271	-1.524254
H	-1.808905	1.245745	-1.181975
H	-1.967033	0.309768	-2.50773
C	0.647269	0.940065	-2.152841
H	0.406939	1.957356	-1.813289
H	1.686386	0.736196	-1.821071
H	0.490895	0.884896	-3.235038
N	-0.67879	-1.117543	0.753254
H	-0.43928	-1.069511	1.736036
H	-1.660275	-0.886822	0.650736
F	2.801204	0.508132	-0.43467
