16

C	-0.324755	0.040156	-1.427818
C	0.040933	-0.088142	0.034588
Br	0.150337	-1.905479	-2.237153
H	1.125694	-0.236277	0.096743
H	-0.148458	0.906166	0.459972
N	-1.693755	0.258852	-1.597321
H	-2.213707	-0.365306	-0.990654
H	-1.988145	0.185178	-2.560818
C	0.589998	0.967867	-2.185695
H	0.290302	1.989567	-1.920685
H	1.616762	0.808122	-1.80225
H	0.486749	0.83707	-3.266648
N	-0.857561	-1.050798	0.702967
H	-0.509718	-1.97824	0.482648
H	-0.75041	-0.931298	1.70369
F	2.69546	0.606878	-0.35667
