16

C	-0.337433	-0.089678	-1.429416
C	0.043287	-0.094366	0.042941
Br	0.08247	-1.975388	-2.095634
H	1.126985	-0.246654	0.118303
H	-0.132539	0.936875	0.380926
N	-1.740048	0.110173	-1.674825
H	-1.898659	1.104533	-1.786889
H	-2.236789	-0.221579	-0.852048
C	0.552615	0.846146	-2.214872
H	0.259684	1.874321	-1.956877
H	1.58901	0.713591	-1.845286
H	0.422607	0.698377	-3.289763
N	-0.862146	-0.974	0.808337
H	-0.582323	-1.93008	0.613838
H	-0.679394	-0.81874	1.793513
F	2.69655	0.591249	-0.415022
