16

C	-0.313131	0.034829	-1.504994
C	-0.124601	-0.132089	0.001531
Br	0.003853	-1.910656	-2.281485
H	0.841553	-0.612968	0.166557
H	-0.9244	-0.790838	0.376848
N	-1.631921	0.432934	-1.818957
H	-2.311477	-0.231849	-1.470494
H	-1.756725	0.557326	-2.815608
C	0.724243	0.924322	-2.161019
H	1.665191	0.879471	-1.589732
H	0.368752	1.955517	-2.070409
H	0.838995	0.682795	-3.220529
N	-0.071919	1.136888	0.701453
H	-0.721112	1.787672	0.274797
H	0.917387	1.441603	0.552543
F	2.476317	1.226307	0.044761
