16

C	-0.234185	-0.036841	-1.455786
C	0.037102	-0.064616	0.046736
Br	0.170901	-1.841662	-2.206192
H	1.120593	-0.147373	0.1645
H	-0.226712	0.94584	0.400499
N	-1.670494	0.13868	-1.690006
H	-1.89997	1.061802	-1.32751
H	-1.834824	0.164693	-2.692015
C	0.684939	0.946596	-2.152941
H	0.583552	0.87894	-3.241614
H	1.713867	0.761898	-1.771329
H	0.388372	1.956373	-1.834889
N	-0.729147	-1.046158	0.810479
H	-1.63634	-1.141751	0.36422
H	-0.264076	-1.939673	0.704987
F	2.78477	0.377744	-0.428955
