16

C	-0.383917	0.035048	-1.469936
C	0.0	0.0	0.0
Cl	-2.200612	-0.144154	-1.632605
H	1.090957	0.0	0.0
H	-0.403696	-0.887967	0.480089
N	-0.012212	1.294432	-2.047258
H	0.036178	1.209545	-3.057508
H	0.897284	1.574666	-1.687841
C	0.240983	-1.182895	-2.140261
H	1.328017	-1.103321	-2.03872
H	-0.034514	-1.200811	-3.198173
H	-0.094241	-2.115776	-1.679873
N	-0.511044	1.163269	0.760782
O	-1.490462	0.976037	1.488
O	0.071013	2.237958	0.624785
Br	3.536838	0.0	0.0
