16

C	-0.543507	0.042362	-1.41978
C	0.0	0.0	0.0
Cl	0.053667	-1.351799	-2.389394
H	1.08809	0.0	0.0
H	-0.350924	0.896343	0.516339
N	-1.987907	-0.062843	-1.389794
H	-2.364952	0.602139	-0.723603
H	-2.3666	0.133735	-2.308916
C	0.016691	1.298849	-2.078518
H	-0.367413	2.181722	-1.557656
H	1.108033	1.299027	-2.027366
H	-0.299778	1.341968	-3.123995
N	-0.558014	-1.129911	0.779135
O	-0.089849	-2.249319	0.601068
O	-1.483919	-0.864429	1.554559
Br	3.528941	0.0	0.0
