16

C	-0.431202	-0.017983	-1.468495
C	0.0	0.0	0.0
Cl	-0.253785	1.715043	-2.135733
H	1.088893	0.0	0.0
H	-0.371353	-0.91335	0.467962
N	0.452075	-0.928326	-2.095695
H	1.425704	-0.722193	-1.873036
H	0.319756	-0.947414	-3.098242
C	-1.878592	-0.395495	-1.714534
H	-2.045258	-1.402617	-1.324679
H	-2.087076	-0.3904	-2.78753
H	-2.552621	0.300198	-1.218584
N	-0.577591	1.121834	0.771088
O	0.146319	2.059217	1.087193
O	-1.779782	1.032259	1.049219
Br	3.541937	0.0	0.0
