16

C	-0.51146	0.035863	-1.436581
C	0.0	0.0	0.0
Cl	-0.225668	-1.655103	-2.150822
H	1.087136	0.0	0.0
H	-0.377437	0.891791	0.507058
N	-1.88285	0.41189	-1.513713
H	-2.205732	0.35155	-2.471661
H	-2.441182	-0.198088	-0.928243
C	0.365839	0.980377	-2.237156
H	1.414555	0.69066	-2.151597
H	0.062306	0.973007	-3.287414
H	0.240742	1.991339	-1.840342
N	-0.536845	-1.154774	0.766183
O	0.248422	-1.92365	1.303712
O	-1.769137	-1.256689	0.823779
Br	3.596311	0.0	0.0
