16

C	-0.467571	-0.06239	-1.456516
C	0.0	0.0	0.0
Cl	-0.530617	1.782332	-1.953894
H	1.090249	0.0	0.0
H	-0.421636	0.835091	0.549357
N	0.426324	-0.757416	-2.248965
H	0.077049	-1.487757	-2.839639
H	1.376798	-0.848152	-1.913872
C	-1.899587	-0.528873	-1.633136
H	-2.577554	0.069071	-1.024282
H	-1.982036	-1.578226	-1.339864
H	-2.19252	-0.423502	-2.679696
N	-0.45519	-1.226883	0.705347
O	-1.243145	-1.08225	1.644717
O	-0.050657	-2.314421	0.297519
Br	3.499052	0.0	0.0
