16

C	-0.337953	0.015548	-1.48904
C	0.0	0.0	0.0
Cl	-2.136432	0.1865	-1.676801
H	1.091734	0.0	0.0
H	-0.390048	0.894743	0.482301
N	0.274844	1.183532	-2.090343
H	0.022484	2.008639	-1.554567
H	1.283905	1.066841	-1.993304
C	0.126485	-1.209851	-2.246935
H	1.193317	-1.349719	-2.050634
H	-0.403489	-2.104513	-1.930998
H	-0.03721	-1.032423	-3.310712
N	-0.529758	-1.142729	0.773536
O	-0.176065	-2.276629	0.45351
O	-1.294636	-0.886759	1.707546
Br	3.471613	0.0	0.0
