16

C	-0.433677	-0.045125	-1.46683
C	0.0	0.0	0.0
Cl	-0.238773	1.672193	-2.171115
H	1.088871	0.0	0.0
H	-0.371859	-0.903902	0.485051
N	0.43964	-0.978159	-2.074614
H	1.415797	-0.774441	-1.859814
H	0.303823	-1.019598	-3.076218
C	-1.886187	-0.411213	-1.702473
H	-2.550995	0.305497	-1.22398
H	-2.06541	-1.406358	-1.287617
H	-2.095872	-0.429504	-2.77494
N	-0.575273	1.136765	0.749952
O	-1.774781	1.048535	1.040741
O	0.147158	2.084225	1.03797
Br	3.541397	0.0	0.0
