13
Coordinates from ORCA-job run
  C   -0.41161038703289      0.34414154254252     -0.35835314948766
  C   0.61057655821941     -0.66529014604466     -0.84920968788369
  F   -1.32374823273931      0.56336475081775     -1.35354537253213
  H   1.11308696652436     -0.22127026199448     -1.71150214053061
  H   0.09052830946857     -1.56957906665087     -1.16352312605502
  N   -1.29393730294754     -0.32492810133555      0.74610699867912
  O   -1.76181665401545      0.42945998656092      1.59204680643193
  O   -1.49630229943055     -1.52999976613095      0.65000959838309
  N   0.14466282749572      1.55453533356114      0.04690945720643
  H   0.94108737309909      1.42891877600718      0.65727982313612
  H   -0.54608847104511      2.14429657746887      0.49387632161155
  C   1.58056682366830     -0.97614242557097      0.19453766523159
  N   2.35299448873539     -1.17850719923088      1.05436680580928
