13
Coordinates from ORCA-job run
  C   -0.41108232172493      0.28308421166710     -0.27884915780746
  C   1.04225948531042     -0.19908167302761     -0.24854821494682
  F   -0.96233181029475     -0.09354587030922     -1.45175516687203
  H   1.57819769390198      0.31616120552124     -1.05108128117972
  H   1.48827200727862      0.08612218674735      0.70627583091124
  N   -1.14991707840328     -0.43395298415918      0.84972516417406
  O   -2.00798792707458     -1.24809572757173      0.55512819031075
  O   -0.77947776761695     -0.10898588532658      1.97512050418771
  N   -0.64543960836414      1.66645357549025     -0.07969199060385
  H   -0.35004879359075      1.96007157034110      0.84132022030194
  H   -0.19535892681031      2.21956034736303     -0.79716969551183
  C   1.15413692308548     -1.64289605394116     -0.43735184747257
  N   1.23877812430319     -2.80389490279458     -0.58312255549143
