13
Coordinates from ORCA-job run
  C   -0.36903495316581      0.17761817132299     -0.07702776414478
  C   0.63720797999998     -0.95891778676863     -0.14197301215932
  F   -0.99350327612155      0.27226766339990     -1.31357588900745
  H   1.00301321858506     -1.17908525240819      0.86170605883106
  H   0.14460273578391     -1.84959921247997     -0.53285188086074
  N   -1.51585808914619     -0.18852307969579      0.86443924352290
  O   -1.57760969611620     -1.34135529446103      1.27686996313461
  O   -2.30895653980637      0.71556676084435      1.09730444604295
  N   0.17144804302048      1.37529121924383      0.38918418556324
  H   -0.53473930523570      2.09823848752578      0.44365255690532
  H   0.95919069599442      1.67776873250411     -0.16908543472076
  C   1.74809381237478     -0.57383634257714     -1.00786628956737
  N   2.63514537383318     -0.22443406645021     -1.69177618353964
