13
Coordinates from ORCA-job run
  C   -0.40181491678104      0.29126735980206     -0.28656697428098
  C   1.04653655146309     -0.20300766013874     -0.22519658057832
  F   -0.92462373386130     -0.06562104865635     -1.47862357039194
  H   1.46941447801015      0.06523847153075      0.74500268501822
  H   1.60761865002106      0.31877543854779     -1.00605323523603
  N   -1.17518073720917     -0.43680105516044      0.81179385534029
  O   -2.02371706776495     -1.24732130159989      0.48172654690818
  O   -0.83677221638490     -0.12764845337456      1.95164052415192
  N   -0.63038560000441      1.67312099480192     -0.07323242429163
  H   -0.13948370801084      2.23457916504101     -0.75656834724356
  H   -0.37674561222253      1.94568231106613      0.86655998313195
  C   1.15267653323973     -1.64488485902017     -0.43206800012755
  N   1.23447737950510     -2.80337936283954     -0.59841446240058
