13
Coordinates from ORCA-job run
  C   -0.36165785813454      0.18847750632879     -0.08425695409933
  C   0.61692127951643     -0.97243462089140     -0.14287783502839
  F   -0.94683160396745      0.32294199572076     -1.33633994687361
  H   0.11508387901285     -1.84132471603562     -0.56943013278156
  H   0.94462671098748     -1.22331499095036      0.86677387357468
  N   -1.54471854249273     -0.16613812299401      0.81582343582716
  O   -2.31366931101665      0.75629796210513      1.05701317723991
  O   -1.65383698781571     -1.32788754579676      1.19184284230137
  N   0.19570227143867      1.36222906242087      0.42125828567108
  H   -0.49502375353215      2.09973990040801      0.47865395197689
  H   1.00137611717364      1.65934334204527     -0.11380809368596
  C   1.76435542752376     -0.59782281279667     -0.96461657979850
  N   2.67767237130641     -0.26010695956398     -1.61903602432370
