13
Coordinates from ORCA-job run
  C   -0.44893841128010      0.16116661800607     -0.23882118406110
  C   0.65628099155842     -0.86992396547975      0.02895444315277
  F   -0.88335311962581     -0.01079066091150     -1.50538917794104
  H   0.92258538280326     -0.84382461238960      1.08797357328600
  H   0.28467640188512     -1.86938634353372     -0.21599065991998
  N   -1.59148897053151     -0.19686955650555      0.71256873590731
  O   -1.35815190999550      0.03812130674291      1.89502375476447
  O   -2.60106238070322     -0.69200344423655      0.23906988677969
  N   -0.17317705867266      1.53196140691247     -0.03006183783484
  H   0.55217687339170      1.85220243695314     -0.65968522501320
  H   0.07643940765231      1.71719788790494      0.93175159862639
  C   1.82210785708760     -0.55577539494234     -0.78892390411156
  N   2.74090493643039     -0.26307567852050     -1.45747000363492
