13
Coordinates from ORCA-job run
  C   -0.45522994239952      0.20227583128785     -0.19617754863600
  C   0.67648539609847     -0.83531968862483     -0.17951668048602
  F   -0.89598603854599      0.31758923836120     -1.46730883823230
  H   0.32643644453590     -1.75802739696862     -0.65168156167720
  H   0.95039953196841     -1.05160337340302      0.85560735066440
  N   -1.58049520544727     -0.39766298491638      0.64805254109685
  O   -2.56991808694473     -0.81744012272913      0.07074567047494
  O   -1.34995893420055     -0.42968945426256      1.85360954571669
  N   -0.21070673545835      1.49282786474371      0.32521553701186
  H   0.51552600981506      1.96240938335142     -0.20108253700935
  H   0.02121444930272      1.45672839546153      1.30824927681535
  C   1.82918630784295     -0.30813956349055     -0.90070805247400
  N   2.74204680343288      0.16605187118935     -1.46500470326523
