13
Coordinates from ORCA-job run
  C   -0.37444272877056      0.16059664609993     -0.22931668852415
  C   0.74024579821006     -0.84826186086031      0.00862270826636
  F   -0.96341749793057     -0.05504212964490     -1.42313320631928
  H   0.31230411249071     -1.85416804532269     -0.03224801925231
  H   1.15954874038422     -0.70031235262790      1.00617067206371
  N   -1.45701446643307     -0.16157885364707      0.84248826914748
  O   -2.54580929492332     -0.58203841453276      0.48106235389166
  O   -1.09180855690733      0.05527038854448      1.99585698543173
  N   0.06166564326257      1.49368854636197     -0.15933224236302
  H   -0.67551340056058      2.13794704740348     -0.41727243806498
  H   0.43075637709626      1.72095082315375      0.75364337619329
  C   1.78104411181219     -0.71987410370826     -1.00590155532094
  N   2.62144116226943     -0.64817769121967     -1.82064021514957
