13
Coordinates from ORCA-job run
  C   -0.37391274583099      0.14709678557168     -0.23814674602634
  C   0.75765923708031     -0.83302220828113      0.03698162507611
  F   -0.94114450418479     -0.10584202229872     -1.43506330451711
  H   1.16020518013086     -0.65437718928367      1.03647162910226
  H   0.35102878837878     -1.84827742504918      0.01289803324305
  N   -1.46429546665415     -0.17588810454229      0.82557100713556
  O   -1.12687993066612      0.08937017766017      1.97726488425402
  O   -2.53662992986664     -0.63254663338281      0.45863708096816
  N   0.03349062031668      1.49028846157996     -0.19051982279446
  H   0.37843469381749      1.74572900403955      0.72446379643436
  H   -0.71166010336856      2.11251045000161     -0.47796055311010
  C   1.81011173865818     -0.70475514534913     -0.96546534285403
  N   2.66359242218895     -0.62928615066603     -1.76613228691148
