13
Coordinates from ORCA-job run
  C   -0.33378440014301      0.30217645801437     -0.30895814612702
  C   1.06315585815777     -0.29219874331632     -0.39284043690650
  F   -1.08742056908268     -0.10818306264081     -1.34914181573228
  H   1.51552173708221      0.08722054148419     -1.31183107703335
  H   1.65632877279130      0.04735920859725      0.45831316077654
  N   -1.00430165273166     -0.28084425204965      0.96356287956752
  O   -2.01657022996754     -0.95378953488201      0.84911915756200
  O   -0.42324946717710      0.01952276580460      2.00431117208772
  N   -0.30326682292737      1.71229300472965     -0.28492462037264
  H   0.14591189579614      2.05257217737452      0.55515460061509
  H   -1.24121949312401      2.08978035646970     -0.35325842195249
  C   1.02779362691065     -1.75162550016519     -0.41400316582679
  N   1.00110074441530     -2.92428341942031     -0.41450328665783
