13
Coordinates from ORCA-job run
  C   -0.45233976725740      0.22830183567629     -0.16843834967531
  C   0.65199036563599     -0.83435588879608     -0.25956301199586
  F   -0.90974229172223      0.46311560806745     -1.41685607039188
  H   0.27054551216753     -1.70500755907987     -0.80124380358995
  H   0.93671252505755     -1.14428884067601      0.74842205125873
  N   -1.57947444358375     -0.41271356986510      0.64214303726210
  O   -2.59502968736501     -0.74396706084554      0.05284283262670
  O   -1.32892565724578     -0.55425909956476      1.83579683359022
  N   -0.16611626159451      1.46397832235348      0.45574013564152
  H   0.55404548471004      1.96347877207523     -0.05114924589980
  H   0.09603381268999      1.33743986693673      1.42365318358607
  C   1.80577124204692     -0.27744096492674     -0.95636947326774
  N   2.71752916646065      0.21571857864492     -1.50597811914478
