13
Coordinates from ORCA-job run
  C   -0.44578531242654      0.22601415339983     -0.26462685126053
  C   0.73643708282190     -0.59169354220722     -0.74839210972012
  F   -1.35774392121002      0.26244854524802     -1.31842476366776
  H   1.16222089429853     -0.07239379927826     -1.61246672584344
  H   0.37687986933262     -1.56345108753890     -1.08645980280879
  N   -1.21955244000187     -0.51358244430472      0.82686686988982
  O   -1.02361067343247     -1.71752736565643      0.94296518396388
  O   -2.02430511062394      0.16256483838335      1.45664040158651
  N   -0.09712091537856      1.47120912267813      0.24480698782315
  H   -0.89878076893501      1.97612275259607      0.59809016831013
  H   0.44070633477285      2.02361030258516     -0.40735092827198
  C   1.75548550718422     -0.76191969959288      0.28083891963828
  N   2.59416945359830     -0.90240177631213      1.08851265036082
