13
Coordinates from ORCA-job run
  C   -0.26583191804702      0.40824967359399     -0.24264623652038
  C   1.01883798093505     -0.38301348210527     -0.43080453012312
  F   -1.02824901451721      0.34720339809056     -1.35310109888410
  H   1.56864764861095      0.09157557254435     -1.24667345682762
  H   1.61920609430071     -0.32555264929725      0.47906604691262
  N   -1.07870482500021     -0.29737503319610      0.87547046006722
  O   -0.50751139576794     -0.30800393531428      1.96386819942598
  O   -2.18360883316887     -0.74734994557292      0.61559093250863
  N   -0.00842864331873      1.75915322893493      0.07066103138944
  H   0.45432110369395      1.84450275093158      0.96604642219297
  H   -0.86842619862934      2.29506543158983      0.07218112769579
  C   0.74880913433851     -1.78086479609407     -0.75416915696914
  N   0.53193886657014     -2.90359021410533     -1.01548974086825
