13
Coordinates from ORCA-job run
  C   -0.46604001098401      0.35237465011455     -0.27386603765992
  C   0.48935628460660     -0.60323437267693     -0.96582199025784
  F   -1.51951693974412      0.60046815683950     -1.11020662618894
  H   -0.05591841176569     -1.50254339044843     -1.25037104677885
  H   0.85061497293086     -0.10166869852356     -1.86645663722188
  N   -1.16334092930178     -0.39638426039405      0.90888762540453
  O   -1.51463362371770      0.30033592638745      1.85485820671586
  O   -1.35670160799322     -1.59944959666776      0.77608170425994
  N   0.12306404158507      1.55324596011153      0.11263699005557
  H   1.00491813136210      1.41611169909302      0.58814748495443
  H   -0.50263922782672      2.09949477410862      0.69130188955971
  C   1.60844988680340     -0.94482721903268     -0.09533702432195
  N   2.50238743404523     -1.17492362891127      0.62914546147933
