13
Coordinates from ORCA-job run
  C   -0.40665326596838      0.28952254618794     -0.27690586247404
  C   1.04217188313005     -0.20489846946638     -0.24029901373828
  F   -0.95136443956585     -0.06589980371596     -1.45895244760778
  H   1.59080981979582      0.31705910912104     -1.02979870383287
  H   1.48160979349827      0.06153866271714      0.72300610755889
  N   -1.16068276623813     -0.43556598415878      0.83622822800112
  O   -0.79300332507169     -0.13108278951111      1.96808673932292
  O   -2.02654468452952     -1.23500364205275      0.52464542013533
  N   -0.63198849240112      1.67267948107278     -0.06182502737681
  H   -0.18405683832208      2.22825709512127     -0.77891613333823
  H   -0.32335493179435      1.95647642197869      0.85820804458731
  C   1.14299119152155     -1.64693371323338     -0.44929882915971
  N   1.22006605594544     -2.80614891406049     -0.61317852207785
