13
Coordinates from ORCA-job run
  C   -0.36069781023202      0.20102740232280     -0.05007168680941
  C   0.63103832968826     -0.91392482694987     -0.33608973021128
  F   -0.91153156110702      0.60861410248323     -1.25806907012627
  H   0.15076861571310     -1.66931628703849     -0.95856963629673
  H   0.93375409364609     -1.38061679027599      0.60215202441785
  N   -1.56489546925339     -0.34860605605210      0.71307224420871
  O   -2.35506455603014      0.49453284483543      1.11937009650146
  O   -1.66950033961293     -1.56485222228919      0.82560951149521
  N   0.16998396055392      1.23517058502466      0.71985767494004
  H   0.98804597318583      1.64599373151350      0.28900039609603
  H   -0.52969549080073      1.93915060106376      0.91780740372628
  C   1.79606834940564     -0.36184430436721     -1.02162810471090
  N   2.72172590484338      0.11467121972947     -1.56244112323100
