13
Coordinates from ORCA-job run
  C   -0.32204864062661      0.27969464269475     -0.14410096337039
  C   1.09578494308368     -0.24851527481900     -0.25798888145952
  F   -1.03858107928635     -0.12168767171438     -1.25499840967518
  H   1.60034679254149      0.32853453041693     -1.03913692892144
  H   1.61772634529403     -0.08165850870418      0.68407604594823
  N   -1.05889401808932     -0.36128655164057      1.03000351923264
  O   -0.44304005634113     -1.14537062404529      1.74188579844237
  O   -2.22577896025555     -0.00998441921151      1.15751499944156
  N   -0.35842754352664      1.66060109742213      0.08981849885938
  H   0.10425058779516      2.17592314306602     -0.64702409298680
  H   -1.31514727699553      1.97756825148889      0.19428102766797
  C   1.14112009656492     -1.66203266204388     -0.61990194913898
  N   1.20368880984185     -2.78978595290991     -0.93442866403984
