13
Coordinates from ORCA-job run
  C   -0.43731886373063      0.24093793807686     -0.26545880531649
  C   0.72722124108606     -0.60176777275170     -0.74900164293962
  F   -1.33687490685026      0.31666375092339     -1.32808311476321
  H   0.34406930492470     -1.55731998633220     -1.10689571505335
  H   1.17752657692910     -0.08105823327549     -1.59967401947589
  N   -1.24224864920595     -0.49220813353240      0.80737969732668
  O   -1.07510701609674     -1.70139774781109      0.91369337075699
  O   -2.03942026641322      0.19585986685037      1.43386470118481
  N   -0.06093778913048      1.46892510313074      0.26502565825958
  H   -0.85230014585275      1.99112914076619      0.61632518648594
  H   0.50092431904209      2.01507667240825     -0.37188838299853
  C   1.73019364641365     -0.81646966623629      0.28788709629025
  N   2.56427254888442     -0.98037093221664      1.09582597024286
