13
Coordinates from ORCA-job run
  C   -0.41809799734428      0.30204797786971     -0.24659804803882
  C   1.01720925734094     -0.22820961069312     -0.31435117876393
  F   -1.05316317018607     -0.03508234886100     -1.38867819120484
  H   1.53084816818583      0.02504015412775      0.61519646108260
  H   1.51991138136238      0.28277611667596     -1.14074902868752
  N   -1.10905049682659     -0.41125240393829      0.91445221397519
  O   -2.00554092089899     -1.19714883558279      0.66044442522119
  O   -0.65595447234061     -0.12161841501479      2.01899634184146
  N   -0.59341797045971      1.68837852577004     -0.01160035167057
  H   -0.22611318143253      1.95805811245681      0.89065975100843
  H   -0.17629826261623      2.23855755693695     -0.75085035460162
  C   1.06772569112996     -1.67134365063399     -0.53312608979489
  N   1.10294197408592     -2.83020317911323     -0.71279595036668
