13
Coordinates from ORCA-job run
  C   -0.41730434340607      0.32907579995145     -0.19366274860139
  C   0.57979067263062     -0.58407939205268     -0.88072384185797
  F   -1.37628727649698      0.65711024383538     -1.15058512964368
  H   1.03396002064152     -0.01714575763426     -1.69913133084977
  H   0.04283151223495     -1.42717561525395     -1.31523131874644
  N   -1.23078458181637     -0.43030283654895      0.85443218474621
  O   -1.86942009153946      0.26485054648983      1.63559324095986
  O   -1.23111523964309     -1.65407141872966      0.79281064737074
  N   0.16485636095861      1.41930302245883      0.44237007836836
  H   -0.51736969559225      1.98485008901192      0.92933341762215
  H   0.74016230855276      1.97101838034449     -0.17770254266844
  C   1.61642125390149     -1.06208495000453      0.02708514936293
  N   2.46625909957424     -1.45134811186785      0.73541219393743
