15

C	0.0	0.0	0.0
C	-0.332134	0.083221	-1.517751
Cl	1.761502	0.0	0.0
H	-1.328268	-0.327041	-1.645539
H	0.389927	-0.589798	-1.993826
N	-0.388086	1.143508	0.908384
O	-0.474378	0.870741	2.104706
O	-0.339146	2.28723	0.453249
C	-0.591576	-1.220301	0.545849
N	-0.626426	-2.345457	0.920052
C	-0.26979	1.446076	-2.192901
H	-1.107004	2.065594	-1.877964
H	-0.328943	1.292859	-3.275596
H	0.652416	1.98159	-1.971259
H	-2.156359	0.0	0.0
