15

C	0.0	0.0	0.0
C	-0.339349	0.16577	-1.502787
Cl	1.764009	0.0	0.0
H	0.409234	0.831319	-1.936572
H	-1.312401	0.637745	-1.58167
N	-0.382504	1.256723	0.772315
O	-0.445193	1.161452	1.994592
O	-0.40536	2.311373	0.139368
C	-0.667108	-1.135772	0.62021
N	-0.654094	-2.216118	1.121512
C	-0.351765	-1.186306	-2.200832
H	0.563343	-1.75239	-2.01261
H	-1.196675	-1.775295	-1.838878
H	-0.456795	-1.052109	-3.281948
H	-2.158773	0.0	0.0
