15

C	0.0	0.0	0.0
C	-0.324771	0.075344	-1.5121
Cl	1.770193	0.0	0.0
H	0.362072	0.794604	-1.960626
H	-1.337067	0.449833	-1.617286
N	-0.382591	1.305948	0.686678
O	-0.412514	2.317909	-0.010658
O	-0.441347	1.293674	1.913052
C	-0.689263	-1.089886	0.680827
N	-0.669139	-2.137843	1.24737
C	-0.203611	-1.29374	-2.164945
H	0.783217	-1.738964	-2.012968
H	-0.950758	-1.971465	-1.745766
H	-0.377714	-1.207562	-3.242253
H	-2.161137	0.0	0.0
