15

C	0.0	0.0	0.0
C	-0.226513	-0.024578	-1.548121
Cl	1.769887	0.0	0.0
H	0.371757	0.812111	-1.911923
H	0.278118	-0.937619	-1.883349
N	-0.552338	1.230736	0.620038
O	-0.55628	2.248985	-0.103144
O	-0.596917	1.258911	1.863297
C	-0.515437	-1.166384	0.69683
N	-0.613515	-2.218612	1.228392
C	-1.596541	0.061869	-2.202442
H	-1.429942	0.109774	-3.291438
H	-2.225108	-0.800216	-1.987035
H	-2.12117	0.962983	-1.889273
H	-1.981224	0.0	0.0
