15

C	0.0	0.0	0.0
C	-0.319494	0.077263	-1.511716
Cl	1.770142	0.0	0.0
H	-1.329205	0.459578	-1.620336
H	0.377093	0.791751	-1.954811
N	-0.4222	1.263644	0.711931
O	-0.490804	1.216671	1.938896
O	-0.421968	2.29891	0.039962
C	-0.607821	-1.138703	0.669768
N	-0.597613	-2.196848	1.208904
C	-0.202513	-1.292853	-2.16662
H	0.770132	-1.754288	-1.985155
H	-0.975278	-1.956173	-1.775578
H	-0.343114	-1.201791	-3.249595
H	-2.14476	0.0	0.0
