15

C	-0.374868	0.066231	-1.475299
C	0.0	0.0	0.0
Br	-2.341542	0.151409	-1.688226
H	1.097612	0.0	0.0
H	-0.095647	-0.873212	-1.955989
C	0.277923	1.24933	-2.155802
H	0.049441	1.261843	-3.22352
H	-0.060966	2.176486	-1.695547
H	1.359297	1.159319	-2.008781
C	-0.466306	-1.254045	0.611277
N	-0.836096	-2.252186	1.109724
N	-0.424147	1.192962	0.721629
H	0.215944	1.346673	1.490838
H	-1.360248	1.077792	1.08852
Cl	3.321557	0.0	0.0
