15

C	-0.377436	-0.01932	-1.475737
C	0.0	0.0	0.0
Br	-2.34471	0.05123	-1.689177
H	1.100023	0.0	0.0
H	-0.097841	-0.984459	-1.902417
C	0.271573	1.123943	-2.224227
H	0.042668	1.074005	-3.29066
H	-0.069844	2.075248	-1.818471
H	1.353307	1.046116	-2.072248
C	-0.465907	-1.215946	0.684285
N	-0.834626	-2.182993	1.24143
N	-0.422724	1.233504	0.651279
H	-1.358478	1.139863	1.027393
H	0.219236	1.430753	1.409925
Cl	3.320303	0.0	0.0
