15

C	-0.367152	0.046083	-1.47809
C	0.0	0.0	0.0
Br	-2.331621	0.121345	-1.710018
H	1.097576	0.0	0.0
H	-0.084575	-0.900955	-1.941557
C	0.293215	1.215989	-2.172921
H	1.371803	1.127403	-2.012094
H	0.076652	1.20838	-3.242535
H	-0.050135	2.152275	-1.734127
C	-0.470094	-1.243249	0.629217
N	-0.842037	-2.219366	1.167744
N	-0.428501	1.203138	0.699716
H	-1.382311	1.104952	1.025654
H	0.180989	1.348717	1.495838
Cl	3.323959	0.0	0.0
