15

C	-0.481278	-0.044875	-1.453438
C	0.0	0.0	0.0
Br	-0.081264	1.666899	-2.336052
H	1.102093	0.0	0.0
H	-1.572069	-0.108095	-1.478597
C	0.198878	-1.16105	-2.224874
H	-0.087394	-2.126817	-1.797357
H	1.282668	-1.051385	-2.144122
H	-0.095198	-1.145864	-3.275832
C	-0.463585	-1.242005	0.632381
N	-0.861088	-2.227021	1.133937
N	-0.585231	1.12904	0.740093
H	-0.241552	1.062671	1.693788
H	-0.157009	1.966668	0.357261
Cl	3.376968	0.0	0.0
