15

C	-0.475201	-0.09713	-1.452241
C	0.0	0.0	0.0
Br	-0.025901	1.565987	-2.401971
H	1.101134	0.0	0.0
H	-1.566469	-0.134739	-1.481461
C	0.18003	-1.258918	-2.174091
H	-0.135973	-2.199972	-1.71397
H	-0.104233	-1.273496	-3.227505
H	1.265059	-1.174358	-2.088219
C	-0.476051	-1.208649	0.682542
N	-0.891056	-2.163848	1.226242
N	-0.582275	1.163008	0.689639
H	-0.132769	1.980608	0.288692
H	-0.260461	1.123899	1.652377
Cl	3.370605	0.0	0.0
