15

C	-0.313338	0.003929	-1.501096
C	0.0	0.0	0.0
Br	-2.264745	0.121352	-1.821313
H	1.100514	0.0	0.0
H	-0.031921	-0.962656	-1.923408
C	0.396091	1.133277	-2.219147
H	1.466614	1.043189	-2.005724
H	0.228119	1.08039	-3.296526
H	0.042593	2.102413	-1.862308
C	-0.506486	-1.22617	0.624852
N	-0.938455	-2.211093	1.09596
N	-0.42738	1.165817	0.755844
H	0.277371	1.885483	0.671088
H	-1.317574	1.511401	0.416698
Cl	3.32549	0.0	0.0
