15

C	-0.466918	-0.005424	-1.46421
C	0.0	0.0	0.0
Br	0.205343	-1.601099	-2.376014
H	1.094693	0.0	0.0
H	0.033322	0.831484	-1.957838
C	-1.974226	0.052291	-1.653366
H	-2.44945	-0.814403	-1.189054
H	-2.388406	0.961993	-1.207074
H	-2.228027	0.058567	-2.714884
C	-0.540541	-1.160702	0.717419
N	-1.034541	-2.065179	1.280921
N	-0.361395	1.224509	0.715191
H	0.373544	1.904636	0.570053
H	-1.249842	1.604759	0.418504
Cl	3.323782	0.0	0.0
