15

C	-0.440844	-0.137245	-1.47313
C	0.0	0.0	0.0
Br	-0.113587	1.550273	-2.422314
H	1.096503	0.0	0.0
H	-1.526046	-0.268555	-1.53473
C	0.306424	-1.259527	-2.171273
H	0.025284	-1.324548	-3.223695
H	1.381244	-1.087301	-2.08332
H	0.067952	-2.209987	-1.686567
C	-0.478842	-1.214584	0.67947
N	-0.918876	-2.180038	1.1841
N	-0.464827	1.165327	0.735515
H	0.194201	1.915512	0.569799
H	-1.374334	1.460841	0.399087
Cl	3.35297	0.0	0.0
