15

C	-0.49215	-0.031642	-1.454005
C	0.0	0.0	0.0
Br	-0.101633	1.670934	-2.32728
H	1.095272	0.0	0.0
H	-1.583454	-0.107168	-1.480888
C	0.173879	-1.157109	-2.22756
H	1.257833	-1.045544	-2.162035
H	-0.103136	-2.121439	-1.793192
H	-0.132935	-1.147531	-3.275085
C	-0.436982	-1.258246	0.631382
N	-0.83459	-2.222749	1.174367
N	-0.466451	1.158272	0.754881
H	0.279882	1.45395	1.370594
H	-1.279863	0.93233	1.312957
Cl	3.339903	0.0	0.0
