15

C	-0.373342	-0.127071	-1.471952
C	0.0	0.0	0.0
Br	-2.338995	-0.065318	-1.696584
H	1.104204	0.0	0.0
H	-0.096181	-1.122324	-1.824635
C	0.283552	0.954636	-2.30117
H	0.052508	0.830903	-3.361129
H	1.364307	0.878698	-2.145722
H	-0.049302	1.935153	-1.96402
C	-0.469358	-1.160821	0.772689
N	-0.876128	-2.046431	1.430233
N	-0.423876	1.275709	0.55948
H	-1.362201	1.214776	0.933009
H	0.216538	1.533592	1.299524
Cl	3.322714	0.0	0.0
