13

C	-0.452228	0.017457	-1.456013
C	0.0	0.0	0.0
Br	0.003144	-1.65402	-2.370404
H	1.093279	0.0	0.0
H	0.08955	0.793903	-2.001116
H	-0.36235	-0.912529	0.480692
C	-1.888838	0.231092	-1.612847
N	-3.045278	0.421075	-1.702122
C	-0.487248	1.243092	0.741089
H	-0.138579	2.151413	0.24141
H	-1.577131	1.287672	0.823085
H	-0.061027	1.247889	1.746393
Cl	3.488309	0.0	0.0
