13

C	-0.562897	-0.003419	-1.415541
C	0.0	0.0	0.0
Br	0.054041	1.526637	-2.479926
H	1.093336	0.0	0.0
H	-1.650685	0.112696	-1.39494
H	-0.322091	-0.945145	0.455863
C	-0.263843	-1.228053	-2.149823
N	-0.068067	-2.246502	-2.699867
C	-0.513737	1.173476	0.824208
H	-1.608997	1.203934	0.866158
H	-0.15484	2.119317	0.415768
H	-0.132374	1.09398	1.844429
Cl	3.5008	0.0	0.0
