13

C	-0.560875	-0.020846	-1.416362
C	0.0	0.0	0.0
Br	0.020843	1.540361	-2.447351
H	1.093181	0.0	0.0
H	-1.65066	0.064169	-1.39322
H	-0.330174	0.936023	0.461626
C	-0.228243	-1.231734	-2.162983
N	-0.020838	-2.234274	-2.739592
C	-0.511072	-1.198599	0.797487
H	-0.13721	-2.133541	0.375694
H	-0.137269	-1.132275	1.821523
H	-1.605382	-1.24334	0.832349
Cl	3.498593	0.0	0.0
