13

C	-0.401537	-0.016787	-1.466162
C	0.0	0.0	0.0
Br	-2.317716	-0.477299	-1.711697
H	1.096479	0.0	0.0
H	0.135286	-0.806319	-1.995956
H	-0.315999	-0.953803	0.43405
C	-0.177559	1.253629	-2.150199
N	-0.012792	2.279668	-2.699467
C	-0.549299	1.171836	0.796438
H	-0.196214	1.107273	1.827876
H	-1.643173	1.1877	0.805198
H	-0.188813	2.119092	0.38876
Cl	3.459032	0.0	0.0
