15

C	-0.28708	0.139274	-1.494069
C	0.0	0.0	0.0
Cl	-2.028116	0.620665	-1.818505
H	1.097244	0.0	0.0
H	-0.371072	-0.956739	0.372891
N	0.568869	1.152862	-2.037586
H	0.57254	1.129195	-3.04933
H	1.517505	1.004786	-1.685667
C	-0.157452	-1.170037	-2.163757
N	-0.020837	-2.200631	-2.713418
C	-0.492999	1.174149	0.832567
H	-0.01683	1.137151	1.815086
H	-1.576955	1.160182	0.966008
H	-0.212129	2.114382	0.356301
Br	3.567931	0.0	0.0
