15

C	-0.558579	0.024556	-1.423128
C	0.0	0.0	0.0
Cl	0.145485	-1.330048	-2.372447
H	1.093446	0.0	0.0
H	-0.322094	0.937035	0.473552
N	-2.011004	-0.098099	-1.541107
H	-2.430358	0.62853	-0.967331
H	-2.279615	-0.993774	-1.148926
C	-0.188751	1.281791	-2.090498
N	0.035073	2.320673	-2.589699
C	-0.482024	-1.189591	0.822021
H	0.029767	-1.175908	1.786704
H	-0.221669	-2.130889	0.333603
H	-1.559978	-1.174341	1.013265
Br	3.622288	0.0	0.0
