15

C	-0.440014	0.081106	-1.459445
C	0.0	0.0	0.0
Cl	-2.162452	0.936618	-1.47314
H	1.094356	0.0	0.0
H	-0.300333	0.948259	0.456087
N	0.499271	0.758167	-2.223466
H	1.168494	1.319791	-1.720533
H	0.22234	1.088328	-3.131449
C	-0.767511	-1.219622	-2.062379
N	-1.011164	-2.268018	-2.533299
C	-0.57322	-1.167372	0.782521
H	-1.666893	-1.168958	0.768449
H	-0.240733	-1.100111	1.820654
H	-0.216412	-2.118605	0.383745
Br	3.604069	0.0	0.0
