15

C	-0.334192	-0.181997	-1.479801
C	0.0	0.0	0.0
Cl	-0.125323	1.456108	-2.359036
H	1.092996	0.0	0.0
H	-0.31293	-0.934254	0.479777
N	0.502031	-1.190837	-2.006834
H	1.467616	-1.027945	-1.717517
H	0.439817	-1.257064	-3.01412
C	-1.750269	-0.509155	-1.705255
N	-2.883246	-0.787788	-1.844983
C	-0.612188	1.198665	0.696844
H	-0.191501	2.130011	0.320266
H	-1.699603	1.230407	0.573805
H	-0.392622	1.141068	1.765443
Br	3.5968	0.0	0.0
