14
Coordinates from ORCA-job run
  C   -0.63874570981699      0.01980338219216      0.22137995576927
  C   0.07372139548368     -0.01182262361795     -1.12743053844431
  Br  -2.56889015309588      0.43794369356906     -0.27078362603167
  H   -0.23450627644549     -0.89658498854039     -1.68180695713549
  H   -0.09824461856280      0.89802179506391     -1.69720691744282
  N   -0.06347397270028      1.02885651846932      1.03374000317340
  H   -0.09292295547453      1.94736352244193      0.60711317986479
  H   -0.49419613675748      1.06763618677714      1.94855579373190
  N   -0.68180202638011     -1.27906899085731      0.81555448950288
  H   0.26668129761173     -1.59020252768690      0.99674657504707
  H   -1.21739556905962     -1.27107005185765      1.67457167437861
  N   1.54926520717743     -0.09649946413731     -0.90274139009520
  O   2.22403849864860      0.87870349670251     -1.21925410992659
  O   1.97847101937176     -1.13307994851853     -0.39943813239184
