14
Coordinates from ORCA-job run
  C   -0.48250354823179      0.14429946790675      0.26961065999110
  C   0.73533653259777      0.42085322542087     -0.61585608867399
  Br  -2.13094218083285      0.13050903119132     -0.88217796204046
  H   1.59192962562942      0.58718720039484      0.03709321910858
  H   0.56389225304281      1.27704564511226     -1.26660133950265
  N   -0.53754726263780      1.19690652250770      1.23839049660214
  H   -1.31928700269668      1.05182916382371      1.86698944110280
  H   -0.65355720188764      2.10386392078949      0.79902486182539
  N   -0.40156065913431     -1.16877777150809      0.82867870657276
  H   0.39405708384549     -1.22409224492206      1.45578166285456
  H   -1.24976779044958     -1.41344184189859      1.32285371923232
  N   1.07615326820578     -0.74307470335539     -1.47395346978443
  O   1.87390394624276     -1.55135942873933     -1.00384845600941
  O   0.53989293630662     -0.81174818672350     -2.57598545127871
