14
Coordinates from ORCA-job run
  C   -0.58930022908886     -0.04065483517089      0.17765265289245
  C   0.58567205811792     -0.64907032178740     -0.58848210665166
  Br  -2.12688870749483      0.18317332348131     -1.03896033800580
  H   0.24111957080101     -1.46389153370716     -1.21858392276787
  H   1.32880338616459     -1.00107044142386      0.12948355610122
  N   -0.23818930055526      1.25644181792067      0.65962734944078
  H   0.69620602606545      1.29129138758150      1.04770776825040
  H   -0.92408857914830      1.62357886761309      1.30453384081332
  N   -0.99898813943806     -1.07089634585028      1.12305302559130
  H   -0.38295415535594     -1.02840481423646      1.92969081368719
  H   -1.94889459423457     -0.91161424617162      1.43576221483170
  N   1.27836536057871      0.34999823697630     -1.44439513025529
  O   0.89589804480340      0.46694046041431     -2.60413413497991
  O   2.18223925878474      0.99517844436048     -0.91195558894782
