14
Coordinates from ORCA-job run
  C   -0.56462574508722      0.18695288811971      0.16337361561680
  C   0.70830407729648      0.43889009835425     -0.64524562101710
  Br  -2.12428358883032      0.17515499386055     -1.04571168703997
  H   0.54474835978822      1.23708151007776     -1.36344830271066
  H   1.51649776702916      0.69499954071556      0.04239854608241
  N   -0.73124589761032      1.37682658828848      0.98767529265208
  H   -1.69034570536229      1.46309715088934      1.30098289819059
  H   -0.13267864171534      1.28741537795553      1.80357265893048
  N   -0.50131096150045     -1.09627532554505      0.78569005996486
  H   -1.24512671433303     -1.23373582645899      1.45575266500870
  H   0.40628804197326     -1.29268194036952      1.18891447470709
  N   1.15862039223756     -0.77287399494967     -1.37968627177130
  O   1.90404589383575     -1.53907492355367     -0.76811516782103
  O   0.75011272227855     -0.92677613738429     -2.52615316079296
