10

C -0.635899 -0.470263 0.035391
H -0.043246 0.737132 1.713389
Cl -2.876861 -0.886408 -0.17459
Br 1.79135 -0.559484 -0.048243
C -0.715891 0.808206 0.854711
H -0.619514 -0.443979 -1.036285
H -0.571243 -1.417936 0.533529
H -1.736516 0.944685 1.217614
C -0.34955 1.996781 0.081672
N -0.087438 2.97466 -0.51462
