13

C 1.29652 0.028406 -0.210886
H 0.104672 -0.69705 1.424173
F 0.861001 1.487329 -1.144202
F 1.89932 -1.499741 0.566807
C 0.061701 0.06934 0.651898
H 2.177469 0.522495 0.162721
H 1.292037 -0.532826 -1.126945
N -1.152925 -0.41543 -0.188885
O -2.229778 -0.379108 0.418389
O -1.021542 -0.835024 -1.332964
N -0.181611 1.349418 1.231289
H -1.115606 1.376701 1.624241
H -0.098469 2.03106 0.486056
