13

C -0.665144 0.691808 0.029433
H -0.589159 -1.031693 -1.148355
Cl 1.422162 1.830615 0.299352
Cl -2.88071 0.295725 -0.207714
C -0.219952 -0.750395 -0.158868
H -0.735415 1.340512 -0.816574
H -0.827013 1.046556 1.02468
N -0.641989 -1.601027 0.92913
H -0.386562 -2.562198 0.704903
H -1.657303 -1.530444 0.959097
N 1.303077 -0.899933 -0.295771
O 1.962383 -1.222277 0.682831
O 1.746833 -0.721756 -1.425143
