14

C 1.173617 -0.223097 -1.371949
H 1.787173 -2.056582 -0.488699
F 2.755859 1.796378 0.239813
Br -2.42038 0.106671 0.019175
C 1.807336 -0.988914 -0.239119
H 0.333787 -0.621077 -1.932974
H 1.411409 0.833927 -1.328819
C 1.114846 -0.768841 1.10304
H 1.27373 0.285711 1.351267
H 0.033557 -0.990924 1.087859
H 1.606286 -1.402302 1.855513
N 3.18443 -0.523196 -0.165971
H 3.608787 -0.950897 0.657474
H 2.990035 0.548736 0.178882
