13

C 0.826789 0.615219 -0.365306
H -1.054244 0.114621 -1.485759
F 1.940161 -0.090354 0.420554
H 1.240985 1.558429 -0.830478
C -0.688658 -0.008152 -0.451775
H 1.117499 0.051255 -1.261225
H 0.542771 1.16885 0.513554
N -1.543585 0.736779 0.494266
H -2.489202 0.399099 0.371376
H -1.55181 1.705093 0.176114
N -0.612926 -1.404329 -0.106893
H -1.303246 -1.567204 0.624267
H 0.302595 -1.586511 0.298032
