13

C 0.771133 0.490513 -0.501068
H 0.252521 -0.528933 1.365877
F -0.709146 1.421711 -1.374633
Cl 2.602343 -0.390916 0.202345
C -0.176793 0.139953 0.615487
H 1.187008 1.476084 -0.466027
H 0.770098 -0.136723 -1.367738
N -1.29643 -0.742867 0.026441
O -2.378402 -0.70265 0.61513
O -1.029718 -1.509744 -0.891351
N -0.684519 1.323959 1.21203
H -1.436986 1.061709 1.836751
H -1.064586 1.826757 0.416924
