11

C 0.743623 0.625731 -0.175812
H -1.191276 1.490171 0.299407
F 1.291424 -0.838338 0.106083
H 0.527266 2.430717 -0.71845
C -0.665546 0.537952 0.39382
H 0.840808 0.597384 -1.246528
H 1.49138 1.160036 0.374226
H -0.584755 0.2885 1.456372
N -1.425547 -0.490732 -0.332435
H -2.313621 -0.626165 0.143255
H -0.882253 -1.342576 -0.244033
