13

C -0.152108 -0.287928 -0.891452
H 1.884838 -0.505475 -1.372991
Br -2.107398 0.335885 0.180168
F 0.574938 -3.088685 -0.136382
C 1.330811 -0.277949 -0.446273
H -0.344093 0.269082 -1.796742
H -0.448979 -1.324448 -0.858932
N 1.598638 -1.191056 0.610744
H 2.609653 -1.259624 0.749251
H 1.305527 -2.179324 0.110744
N 1.82088 1.073909 -0.016074
O 2.409265 1.164555 1.062287
O 1.661822 1.992606 -0.818051
