15

C 0.633255 -0.197894 -0.380667
H 1.730301 1.156174 0.73863
Br -1.69401 -0.484081 -0.365099
F 2.552213 -0.251464 -0.687073
C 0.859659 1.22815 0.08286
H 0.6129 -0.475495 -1.410598
N 0.886215 -1.316582 0.547958
O 1.03762 -1.044527 1.73643
O 0.896894 -2.443562 0.065689
C -0.221546 1.900666 0.802652
N -0.969592 2.645764 1.318776
C 1.24068 2.107256 -1.117513
H 2.026837 1.548938 -1.615834
H 0.383561 2.261847 -1.777508
H 1.602088 3.085902 -0.780647
