14

C -0.198003 0.385739 0.064658
H -0.264764 -0.214307 2.09356
Cl 2.947914 0.669229 -0.546354
Cl -1.265899 -1.626288 -0.852017
C 0.472752 -0.126184 1.294745
H 0.396036 0.52283 -0.826335
H 1.207781 0.640836 1.555619
N -1.508201 1.038217 0.122409
O -2.131311 0.966073 1.181448
O -1.905294 1.597121 -0.898396
C 1.187167 -1.4508 1.09212
H 0.498317 -2.289066 1.182155
H 1.652538 -1.488371 0.108256
H 1.994582 -1.527531 1.828632
