15

C 0.145217 0.131326 -0.307757
H -0.970432 0.030286 1.440881
Cl 1.734922 -1.516177 -0.834627
Cl -1.203938 1.987832 -0.302569
C -0.82162 -0.62835 0.588293
H 0.107212 0.192907 -1.3742
N 1.212572 0.912916 0.346034
O 1.281698 0.860961 1.571068
O 1.945539 1.576316 -0.37657
C -0.444707 -2.019261 1.113447
H -0.332818 -2.690784 0.2714
H 0.487497 -1.98555 1.668853
H -1.243213 -2.362836 1.769143
C -2.107817 -0.783387 -0.104064
N -3.143901 -1.041824 -0.594498
