15

C -0.853905 0.552463 0.380462
H 0.138836 0.397098 -1.577216
F -0.583627 0.036517 1.591733
H -0.512888 2.686218 -1.265967
C 0.399471 0.503654 -0.526009
H -1.025331 1.601465 0.510834
C -2.030112 -0.045442 -0.210562
N -3.045452 -0.494783 -0.599462
N 1.183049 -0.736714 -0.204548
O 2.354682 -0.624492 0.154759
O 0.597178 -1.80929 -0.375019
C 1.164347 1.789944 -0.294703
H 0.475086 2.606922 -0.531642
H 1.458745 1.849512 0.754814
H 2.061336 1.817164 -0.921415
