16

C -0.285076 0.307354 0.427227
H 0.805092 0.991746 -1.258221
F 0.083305 -1.120152 1.360022
F -0.751508 1.953415 -0.189502
C 0.912127 0.210482 -0.508746
H -0.256105 0.85488 1.349179
C -1.562358 -0.212383 -0.01708
N -2.60656 -0.649538 -0.339895
C 0.999012 -1.142892 -1.20186
H 0.98617 -1.917062 -0.438114
H 0.176636 -1.30185 -1.902999
H 1.945263 -1.198385 -1.748252
C 2.146788 0.496153 0.332659
H 2.064003 1.441042 0.876768
H 2.228005 -0.312347 1.057834
H 3.047725 0.537086 -0.284812
