13

C -0.694796 0.914684 -0.525144
H 0.698789 -0.153614 -1.790661
F -0.360851 1.08521 1.216411
H -1.423301 0.503476 -1.402454
C 0.588255 0.092214 -0.725538
H -0.563391 1.964708 -0.738233
C -2.052082 0.457272 -0.221004
N -3.182046 0.228879 0.107509
N 0.446801 -1.232665 -0.030742
O 1.445548 -1.737476 0.477935
O -0.668528 -1.732612 -0.107215
C 1.793412 0.778365 -0.258628
N 2.808199 1.321504 -0.019656
