12

C -0.008626 -0.415488 0.056245
H 0.897631 0.766961 1.644295
Br -2.459334 -0.38055 -0.299887
Br 2.442584 -0.421488 -0.306033
C 0.006293 0.752391 1.015547
H -0.007379 -0.231747 -0.997554
H -0.890875 0.798386 1.635143
C -0.01894 -1.743044 0.600151
N -0.028511 -2.837347 1.039588
N 0.033975 2.044958 0.256833
O 0.07551 3.064055 0.947077
O 0.009024 2.026107 -0.96974
