14

C -0.403501 0.227651 -0.368153
H -0.686464 -1.277127 1.089595
Cl 1.651061 0.776281 -1.329622
Cl -2.648392 -0.235821 -0.091157
C 0.094121 -1.010321 0.372154
H -0.672468 0.235787 -1.403795
C -0.437093 1.440156 0.394562
N -0.440294 2.394482 1.080765
C 1.272582 -0.724418 1.180405
N 2.181991 -0.56928 1.906732
C 0.3155 -2.184001 -0.578487
H -0.597563 -2.350516 -1.156453
H 1.13402 -1.964762 -1.264321
H 0.535572 -3.102013 -0.027141
