12

C -0.009131 0.0034 0.399554
H 0.317839 2.073667 0.320757
F 1.768679 -0.53781 1.172003
Cl -2.127269 0.47904 0.1437
C 0.531498 1.227833 -0.34658
H -0.156716 0.009671 1.462621
H -0.069825 1.364967 -1.244663
C -0.049541 -1.278583 -0.262942
N -0.104671 -2.317339 -0.813563
N 1.949382 1.205279 -0.712822
H 2.044858 0.714202 -1.592082
H 2.359376 0.60263 0.006946
