14

C -0.483809 -0.151273 -0.676538
H 0.155803 -2.075747 -0.250711
Cl 0.790771 1.901308 0.001906
F -1.864741 -1.085393 -0.968428
C 0.420367 -1.074882 0.102286
H -0.231647 0.249399 -1.632821
C -1.732962 0.224594 -0.078168
N -2.658379 0.671952 0.511235
C 0.136358 -1.003896 1.594024
H 0.113633 0.038243 1.908845
H -0.835385 -1.444936 1.796473
H 0.89553 -1.542626 2.166024
C 1.832301 -0.844186 -0.201531
N 2.973821 -0.769119 -0.474778
