12

C -0.666506 -0.098987 0.726591
H 0.063229 1.247971 -0.857084
F -0.132636 -1.115773 1.381532
F -1.51081 2.000366 -0.146984
C 0.391361 0.77803 0.063967
H -1.207276 0.525885 1.418799
H 0.691338 1.569325 0.747601
C -1.66341 -0.58615 -0.222093
N -2.511794 -1.09987 -0.851132
N 1.607469 0.007505 -0.307607
O 2.692106 0.404439 0.121172
O 1.45856 -0.931354 -1.086154
