13

C -0.047602 0.388259 0.793642
H 2.131214 0.385848 1.397568
Br -1.293649 -0.673412 -0.277276
H 1.539261 2.17291 2.620874
C 1.424216 -0.112208 0.686026
H -0.367692 0.305891 1.864998
C -0.142007 1.801146 0.279048
N -1.114831 2.599309 0.126092
C 1.975182 0.207013 -0.645281
N 2.372012 0.53272 -1.677587
N 1.545954 -1.550214 0.978093
H 2.378435 -1.96271 0.478649
H 0.715818 -2.110492 0.675794
