16

C 0.278226 -0.771087 -0.189806
H 2.013676 -0.539193 0.919118
Br -1.745852 0.320956 -0.271049
F 2.096546 -1.553172 -0.748774
C 1.201967 0.12694 0.627316
H 0.32379 -0.690015 -1.25527
C -0.123783 -2.08204 0.42859
H 0.751663 -2.464978 0.948019
H -0.955852 -1.973243 1.119379
H -0.400351 -2.769222 -0.377017
C 0.623005 0.769366 1.888133
H -0.225018 1.400533 1.62702
H 0.304746 -0.016543 2.582831
H 1.396017 1.390114 2.366089
C 1.809728 1.120375 -0.261468
N 2.327482 1.918043 -0.951584
