14

C -0.59659 -0.352878 -0.19178
H -0.78917 1.61717 -0.924503
F -2.488996 -0.923435 -0.850506
Br 1.776246 0.085952 -0.087763
C -1.027678 1.096739 0.011172
H -0.457728 -0.728132 -1.188399
H -0.387969 1.529582 0.781688
C -0.650554 -1.323949 0.958431
H 0.089469 -2.116693 0.820693
H -0.450372 -0.806279 1.900229
H -1.654024 -1.738907 0.978024
N -2.431135 1.333031 0.359298
H -2.540571 1.102573 1.340542
H -2.910389 0.592592 -0.164043
