17

C 0.635811 -0.54569 -0.13919
H 2.234486 0.622196 0.279788
Br -1.665792 -0.152594 -0.161287
F 2.55429 -1.16553 -0.709857
C 1.170673 0.841028 0.134656
H 0.613167 -0.825862 -1.176103
C 0.75684 -1.625789 0.893854
H 1.734376 -1.549499 1.36797
H -0.033425 -1.598924 1.637706
H 0.722876 -2.591174 0.379073
C 0.673606 1.482547 1.432975
H -0.365047 1.796087 1.356115
H 0.777444 0.765815 2.254696
H 1.303718 2.357326 1.660759
N 1.052962 1.654888 -1.06855
H 1.456607 2.564692 -0.887622
H 0.077577 1.793142 -1.29254
