16

C 0.658067 -0.549052 -0.011933
H 1.018374 1.302053 0.849388
Cl -1.298337 -1.379515 -0.725994
F 2.545514 0.049826 0.005104
C 0.29848 0.915008 0.120053
H 1.064421 -0.885458 -0.939155
C 0.776667 -1.347761 1.247615
H 1.706085 -1.045018 1.720185
H -0.064399 -1.160965 1.922162
H 0.78908 -2.413115 1.014179
C -1.0385 1.188403 0.629793
N -2.066429 1.544445 1.073057
C 0.526064 1.632171 -1.198468
H 1.55787 1.398426 -1.447799
H -0.16171 1.24959 -1.957891
H 0.392721 2.71408 -1.098867
