14

C 0.569194 0.777425 0.464017
H 2.223209 -0.373654 0.004629
Br -1.665329 0.193291 0.16437
F 2.362803 1.25215 1.091244
C 1.142569 -0.519689 -0.105175
H 0.408108 0.827749 1.520805
C 0.623374 2.011933 -0.38673
H 1.540822 1.987962 -0.972749
H -0.218377 2.109372 -1.059801
H 0.660964 2.863123 0.290141
C 0.834706 -0.711363 -1.530463
N 0.687841 -0.801327 -2.693408
C 0.777085 -1.719702 0.655837
N 0.558588 -2.695918 1.27311
