14

C 1.362688 -0.017375 0.019563
H -0.033654 -0.283767 1.698902
F 0.493667 2.439886 -0.27843
H 1.984934 0.746289 0.491698
C 0.01791 0.15278 0.700767
H 1.213102 0.337804 -0.99465
H -0.170974 1.234933 0.744118
C 2.043868 -1.373895 0.095287
H 2.398755 -1.545202 1.117021
H 1.38716 -2.193579 -0.186422
H 2.910073 -1.377308 -0.574451
N -1.16722 -0.367488 -0.019405
O -2.242105 -0.287218 0.590784
O -1.071477 -0.82213 -1.159311
