16

C -0.387865 -0.516484 -0.223576
H -0.741668 1.477501 -0.705784
Cl 2.052176 -1.310955 0.763171
Cl -2.965418 -0.102267 0.188875
C -0.004101 0.935743 -0.097797
H -0.475389 -1.100851 0.673505
C -0.472563 -1.177514 -1.556025
H -0.714265 -0.435456 -2.318466
H 0.47855 -1.655924 -1.791022
H -1.272622 -1.914838 -1.530096
C 1.307129 1.242005 -0.667944
N 2.306116 1.595494 -1.177749
C -0.054709 1.46895 1.332534
H -1.060255 1.294074 1.728701
H 0.6847 0.936183 1.933614
H 0.155894 2.539414 1.345841
