15

C 0.416034 0.22629 0.526458
H 0.172285 -1.267618 -1.014365
F -1.18223 0.587505 1.704673
Cl 2.380449 -0.318153 -0.361423
C -0.448567 -0.755737 -0.273396
H 0.745925 -0.137902 1.480672
C 0.464698 1.682966 0.159996
H 0.720996 1.823483 -0.889424
H -0.502213 2.120923 0.36833
H 1.226655 2.171885 0.773708
C -1.446543 0.010583 -1.046267
N -2.234036 0.56915 -1.715785
N -1.033949 -1.752368 0.622771
H -1.850942 -2.146958 0.162323
H -1.378112 -1.144832 1.371238
