17

C -0.492109 0.800272 -0.644004
H -2.486151 0.473886 -0.313728
Br 1.373488 -0.329366 0.041219
H -2.152895 1.276738 -1.796024
C -1.591205 -0.063097 -0.062836
H -0.265678 0.659681 -1.691429
N -0.240013 2.071329 -0.022173
H -0.474531 2.802487 -0.685854
H 0.745347 2.129294 0.205398
C -1.547284 -0.100885 1.459378
H -0.718987 -0.698124 1.835399
H -1.399071 0.915828 1.81527
H -2.492479 -0.485864 1.858352
C -1.692881 -1.428366 -0.724252
H -1.874818 -1.290153 -1.792438
H -0.789542 -2.02708 -0.593361
H -2.542312 -1.975738 -0.298754
