16

C 0.094007 0.594088 0.438344
H -0.118974 -1.039836 -0.886613
F -1.751531 1.495418 0.960822
Br 2.17963 -0.41217 -0.028931
C -0.729865 -0.200594 -0.557738
H 0.060938 0.238956 1.455632
N 0.502863 1.910666 0.107341
H 1.295675 2.156186 0.683228
H -0.310644 2.472974 0.363841
C -1.225815 0.614072 -1.725324
H -2.003261 1.28192 -1.364173
H -0.372685 1.172134 -2.105231
H -1.62116 -0.073163 -2.478265
N -1.874303 -0.854701 0.138453
O -2.92205 -0.99635 -0.493091
O -1.663333 -1.338542 1.248656
