13

C 1.107416 1.026271 0.213825
H 2.1717 -0.454978 -0.635971
Br -2.054716 0.071576 -0.074732
F 3.131283 -0.750152 -0.444339
C 0.953695 -0.393673 -0.29339
H 0.246507 1.639548 0.43989
H 0.234142 -0.413392 -1.112064
N 2.406858 1.531729 0.140135
H 2.887382 0.487759 -0.260543
H 2.755483 1.680688 1.087618
N 0.748247 -1.355163 0.749946
H 1.235419 -2.205705 0.498532
H -0.249507 -1.519255 0.844042
