14

C -0.862752 -0.679897 0.565387
H 0.61657 0.30585 1.820603
Cl -1.176168 -0.772962 -1.293667
H -2.379457 0.704061 0.639435
C 0.522581 -0.038352 0.777161
H -0.822389 -1.725731 0.844328
N -2.009487 -0.00628 1.19823
H -1.749233 0.862236 1.588515
H -2.597708 -0.665472 1.672762
N 0.668323 1.231822 -0.056708
O 1.696844 1.400359 -0.700383
O -0.269095 2.025902 0.018723
C 1.610808 -0.963409 0.470512
N 2.467059 -1.748504 0.287279
