13

C -0.457814 0.081993 -0.337157
H -1.483427 1.905797 0.013639
Br 1.966709 -0.274958 -0.385148
Cl -2.757991 -0.028107 -0.939392
C -0.460812 1.586227 -0.168963
H -0.354249 -0.444844 -1.261923
H -0.164084 1.985147 -1.14878
N -0.733837 -0.758254 0.843156
O -1.018533 -0.174595 1.888296
O -0.68916 -1.976117 0.696909
N 0.3622 2.081748 0.944546
H 0.600948 3.040322 0.714188
H 1.226613 1.546823 0.973878
