13

C 0.444428 -0.235922 -0.199183
H -0.692732 -0.865669 1.54436
F -0.34724 2.377743 -0.879573
Cl 0.893582 -1.961433 -0.309692
C -0.69309 -0.041818 0.824365
H 0.178675 0.046492 -1.200036
H -0.646612 0.896861 1.36875
N 1.642206 0.557121 0.215607
O 1.965233 0.495879 1.395387
O 2.264692 1.112486 -0.67459
N -2.017789 -0.084976 0.149178
O -2.890988 0.652043 0.589853
O -2.18694 -0.981854 -0.665242
