15

C -0.287437 -0.498012 -0.070905
H -1.080987 -0.456276 1.820822
Br 2.806109 0.453782 -0.53479
Br -2.377394 1.061216 -0.286074
C -0.091367 -0.258203 1.404949
H 0.155311 0.11927 -0.831951
N -0.860096 -1.763487 -0.468893
O -1.250185 -2.491427 0.44717
O -0.877129 -2.045029 -1.668464
N 0.329223 1.135815 1.604225
H 0.50681 1.277589 2.595651
H -0.43822 1.745593 1.329455
N 0.878197 -1.202887 1.90037
H 0.961195 -1.08024 2.901036
H 1.750924 -0.987998 1.431392
