17

C -0.141218 0.296119 0.242416
H 0.588606 0.510504 -1.669639
Cl -3.589572 -0.258429 -0.194591
Cl 3.697219 -1.176265 -0.16127
C 0.597384 1.133341 -0.779431
N -0.870726 -0.917 -0.179278
O -1.021326 -1.075384 -1.387002
O -1.165916 -1.728382 0.693558
C -0.032615 0.60169 1.619572
N 0.071352 0.878825 2.767023
C 2.053406 1.348312 -0.337354
H 2.262922 2.401318 -0.182529
H 2.265144 0.816525 0.587927
H 2.74698 0.913914 -1.052416
N -0.112004 2.387983 -1.062797
H 0.377975 3.106716 -0.546191
H -1.055792 2.345535 -0.68582
