15

C -0.064862 0.123646 -0.046206
H -0.663518 0.998212 -1.864422
Cl -0.351217 -1.91159 0.495483
F 0.369421 2.008988 -0.35395
C -0.974804 0.152159 -1.259902
H -0.798453 -0.760299 -1.826115
N 1.406493 -0.038433 -0.319162
O 1.692393 -0.287494 -1.481473
O 2.186762 0.064732 0.616566
C -0.394312 0.701013 1.23124
N -0.713321 1.095587 2.29311
C -2.447631 0.289786 -0.91223
H -2.773715 -0.46689 -0.197002
H -2.672779 1.275453 -0.508123
H -3.041436 0.152059 -1.81779
