18

C 0.509578 -0.203486 0.300164
H 0.624388 1.033786 -1.214469
Cl -1.692113 -0.600174 1.545986
F 1.725035 2.529355 -0.379044
C -0.232411 0.731515 -0.604635
N 1.129834 -1.326921 -0.367219
O 0.765647 -1.565933 -1.521211
O 1.933786 -2.003591 0.281729
C 1.209947 0.383684 1.447863
H 1.862125 1.115022 0.965144
H 0.46415 0.908803 2.030485
H 1.745769 -0.363365 2.030931
C -0.715861 2.012731 0.049666
H -1.541041 1.86451 0.740286
H 0.195883 2.400926 0.494838
H -0.986602 2.714016 -0.748738
C -1.302308 0.064333 -1.335485
N -2.206006 -0.331851 -1.975414
