15

C -0.515867 -0.323219 0.260104
H 0.470581 -1.166351 -1.455419
F 1.732085 0.444776 0.802954
Cl -2.101316 -0.966228 -0.43242
C 0.640636 -1.096542 -0.379855
H 0.657991 -2.102345 0.050937
N -0.429332 1.108502 -0.303644
O 0.151647 1.227381 -1.375924
O -1.063891 1.993476 0.263471
C -0.612322 -0.273125 1.782374
H -1.350986 -0.9875 2.150532
H 0.365671 -0.426827 2.237906
H -0.953092 0.721226 2.070591
C 2.011984 -0.445786 -0.118185
N 3.157162 -0.615665 -0.453071
