17

C 0.186942 -0.443916 0.161199
H 1.70687 -0.132249 -1.119566
Br -2.082512 0.814664 0.071863
Cl 3.7778 0.150267 0.07306
C 0.772668 0.388358 -0.91277
H 0.090421 0.353922 -1.759816
N -0.446118 -1.694986 -0.220325
O -0.571707 -1.912693 -1.427136
O -0.842791 -2.43592 0.682507
C 0.560507 -0.189776 1.560793
H 1.632406 0.010324 1.490879
H 0.015925 0.695658 1.87303
H 0.34094 -1.034213 2.207223
C 1.092438 1.79404 -0.45655
H 0.209299 2.397526 -0.245551
H 1.740754 1.714558 0.408716
H 1.692172 2.288279 -1.228875
