17

C -0.506911 -0.193832 -0.312595
H 0.476139 -0.027145 1.502138
F -1.341624 -1.720036 0.013117
F 0.022737 1.48642 -0.482441
C 0.734858 -0.49612 0.552227
N -1.714053 0.467061 0.359482
O -1.698582 0.646743 1.572832
O -2.63271 0.794442 -0.386985
N -0.512998 -0.387211 -1.696472
H -0.558437 0.520725 -2.127363
H -1.284732 -0.993154 -1.920575
N 1.945771 0.328681 0.072634
O 2.40171 1.135442 0.880015
O 2.417831 0.111745 -1.037891
N 1.143685 -1.869316 0.755623
H 1.663516 -2.147838 -0.073736
H 0.262982 -2.391801 0.743023
