13

C 0.074814 -0.520634 0.059229
H -0.901676 -1.963081 -1.174192
F 2.038513 -0.74295 0.077732
Cl -2.043862 0.128842 0.01457
C 0.012815 -1.373764 -1.174219
H 0.891144 -2.00727 -1.172941
H 0.029287 -0.730216 -2.048946
N 0.540321 0.925222 -0.091413
O 0.705597 1.366774 -1.22051
O 0.692622 1.552468 0.94894
N 0.041605 -1.08891 1.340575
H -0.424892 -0.460373 1.980532
H 1.02017 -1.184566 1.586632
