16

C 1.37581 -0.307901 0.248987
H 1.980963 1.258407 -0.906819
Br -3.230279 -0.238766 -0.032975
F 2.690127 2.638878 0.065824
C 1.006478 0.803502 -0.71097
H 0.568418 0.40676 -1.628362
N 2.332321 -1.318813 -0.245525
O 2.544944 -1.338207 -1.45822
O 2.821522 -2.095012 0.578967
N 1.240097 -0.271199 1.619286
H 0.860621 0.642192 1.851587
H 2.134545 -0.376357 2.081655
C 0.174609 1.93323 -0.113959
H -0.898386 1.676868 -0.0249
H 0.612532 2.232351 0.830483
H 0.309884 2.789534 -0.768584
