12

C -0.239094 -0.585539 -0.088368
H -1.602395 0.136755 1.447659
Br 2.093409 0.236488 -0.183623
Cl -2.42378 -1.362797 -0.523763
C -0.717937 0.450812 0.896572
H -0.226698 -0.35022 -1.134032
H 0.06604 0.763259 1.58615
C 0.14465 -1.876885 0.402966
N 0.47099 -2.930743 0.818368
N -1.137002 1.701334 0.188285
O -1.629504 2.567466 0.911371
O -0.966198 1.809561 -1.021694
