12

C -0.622574 0.313872 -0.417159
H 0.562639 -1.054159 -1.571364
Cl -2.639596 -0.733465 -0.443499
Cl 1.261937 1.652102 -0.859025
C 0.201837 -0.958881 -0.547509
H -0.965521 0.809373 -1.303859
H -0.392638 -1.82858 -0.276423
C -0.859946 0.968818 0.83862
N -1.097103 1.515769 1.853813
N 1.41159 -1.070893 0.338508
O 2.408407 -1.572061 -0.179927
O 1.303894 -0.752995 1.518003
