15

C -0.035651 0.163216 0.380922
H -1.624792 1.444448 0.393589
Br 3.251195 -0.550166 -0.378939
Br -2.894827 -0.760996 -0.351691
C -0.615338 1.493001 -0.022552
H -0.111847 -0.662449 -0.317301
C -0.095532 -0.162747 1.765097
N -0.134826 -0.470684 2.901147
N -0.665599 1.613991 -1.480124
H -0.865265 2.586755 -1.698458
H -1.470584 1.05856 -1.777236
C 0.133095 2.631913 0.640474
H 0.318383 2.356995 1.680193
H 1.070743 2.828375 0.125723
H -0.50598 3.522543 0.634719
