14

C -0.035146 -0.219725 -0.210028
H -0.918175 0.859988 1.351791
Cl 2.322609 -0.39825 -0.778201
Cl -2.400005 -0.431899 -0.446131
C -0.185216 1.08698 0.573396
H -0.077814 -0.211929 -1.281291
C 0.015071 -1.452005 0.526961
N 0.044988 -2.439828 1.164546
N -0.646606 2.13467 -0.345705
H -0.950904 2.919172 0.227939
H -1.460991 1.757122 -0.819968
N 1.03603 1.549219 1.221209
H 1.099595 2.523372 0.931702
H 1.814881 1.06488 0.781135
