13

C 0.134224 0.038803 0.124841
H -0.65238 -1.914468 0.18731
F -0.231673 -0.290293 -1.548043
F 0.695861 0.337832 1.754919
C -0.936091 -0.940895 0.573193
H -0.967804 -0.952586 1.655201
C -0.143152 1.441423 -0.044362
N -0.384195 2.585068 -0.168807
N 1.524151 -0.421939 -0.175222
O 1.733216 -1.619064 -0.028969
O 2.34032 0.410002 -0.548291
C -2.275965 -0.600146 0.093206
N -3.399941 -0.38076 -0.165626
