14

C 0.134664 0.250315 0.124954
H -0.528371 2.070936 0.837507
F -0.198176 0.541517 -1.583359
F 0.681919 -0.194056 1.758442
C -0.994504 1.092683 0.6928
H -1.223081 0.684268 1.672652
C 1.48578 0.719492 -0.091184
N 2.563401 1.140797 -0.291473
N -0.114845 -1.189788 -0.124911
O -1.243965 -1.602529 0.120153
O 0.802909 -1.865133 -0.576757
N -2.197185 1.19474 -0.120604
H -2.718799 0.341322 0.046858
H -1.870215 1.122454 -1.080438
