13

C 0.11771 -0.027749 0.008242
H -0.287579 -1.445607 -1.586635
Cl -1.242986 1.851968 0.15283
Cl 1.6183 -1.812004 -0.084659
C -0.750503 -0.574817 -1.125314
H -0.864726 0.201371 -1.880261
C -0.097168 -0.290122 1.398397
N -0.310503 -0.50984 2.536896
N 1.261646 0.882172 -0.353668
O 1.417426 1.086007 -1.55156
O 1.932522 1.342407 0.558187
C -2.07063 -0.999919 -0.658996
N -3.126009 -1.444736 -0.394512
