13

C -0.539783 -0.070212 0.055229
H 0.498187 0.833305 -1.620074
F 0.752521 -1.06013 1.22154
Cl -1.978663 0.756454 -1.19166
C 0.62593 -0.019021 -0.956426
H 0.623459 -0.934654 -1.541803
C -0.646026 0.902898 1.130184
N -0.839243 1.718521 1.958136
C -1.197488 -1.352574 0.295442
N -1.832242 -2.338057 0.415116
N 2.016426 0.134269 -0.421442
O 2.834243 -0.699983 -0.797226
O 2.274825 1.126623 0.249352
