14

C -0.454478 0.126172 -0.092926
H 0.358031 -0.596045 -1.958624
Cl -2.788441 0.349815 0.120039
Br 2.066067 0.026703 0.017193
C -0.560213 -0.711955 -1.38114
H -1.37273 -0.299038 -1.979904
C -0.465063 -0.479832 1.22324
N -0.488236 -1.043974 2.26004
C -0.359438 1.555105 -0.214866
N -0.302816 2.720049 -0.384405
C -0.794366 -2.170388 -1.037497
H 0.040722 -2.566234 -0.462641
H -1.686646 -2.276629 -0.423143
H -0.909522 -2.790643 -1.928429
