16

C 0.096154 -0.184711 -0.004201
H 0.82892 1.134525 -1.491753
Cl -2.22047 -0.58803 0.547684
Cl 2.469669 -0.11865 -0.141755
C -0.044558 1.115876 -0.843536
C 0.135995 -1.441043 -0.700393
N 0.168951 -2.433882 -1.332195
C 0.25652 -0.126602 1.427872
N 0.41697 -0.044907 2.594609
C 0.016494 2.306062 0.106506
H -0.786896 2.239473 0.836393
H 0.960373 2.349834 0.650437
H -0.113682 3.234681 -0.452762
N -1.212006 1.115894 -1.742287
H -1.584497 2.061864 -1.66922
H -1.921647 0.515949 -1.332265
