16

C -0.177468 0.212543 0.187373
H 0.616849 0.590407 -1.739619
F -1.183666 1.491821 -0.671873
F 0.674666 -1.159239 1.030204
C 0.980505 0.599951 -0.712551
H 1.208762 1.647926 -0.492641
C -1.130961 -0.770034 -0.309576
N -1.881919 -1.567464 -0.735462
C -0.369605 0.849393 1.543366
H 0.607339 0.934972 2.021256
H -0.843712 1.820369 1.426536
H -0.997007 0.20705 2.162033
C 2.265436 -0.22037 -0.638946
H 2.693879 -0.15978 0.362131
H 2.090069 -1.274326 -0.862421
H 2.970802 0.183484 -1.372009
