18

C 0.51523 -0.348917 0.185513
H 1.707704 0.457345 -1.348214
Br -1.821344 0.140158 0.147626
F 2.481169 -0.989899 0.166495
C 1.168641 0.877596 -0.496041
C 0.36117 -1.517319 -0.658837
N 0.184443 -2.466714 -1.331656
C 0.49508 -0.571405 1.686941
H 1.461743 -0.993019 1.963209
H 0.319566 0.373366 2.202085
H -0.299536 -1.271571 1.93248
N 2.086596 1.52076 0.451304
H 2.554666 2.253212 -0.074903
H 2.754512 0.792908 0.709528
C 0.265163 1.951304 -1.081328
H -0.438418 1.5436 -1.798511
H -0.287725 2.462637 -0.301268
H 0.915031 2.659207 -1.604799
