16

C 0.44385 0.017642 0.274969
H -0.537018 0.0257 -1.639849
Cl -0.402328 -2.052032 -0.184756
F 1.459134 1.72126 0.700208
C -0.605583 0.604598 -0.717675
C 1.710304 -0.370243 -0.294488
N 2.723241 -0.742205 -0.770067
C 0.208082 -0.005711 1.77224
H 1.187248 -0.092593 2.242535
H -0.207038 0.952848 2.07155
H -0.437462 -0.81892 2.089541
N -0.431749 2.019767 -1.042327
H 0.067771 2.078619 -1.930793
H 0.220601 2.320153 -0.304229
C -1.961326 0.404205 -0.160822
N -3.05702 0.297361 0.250235
