16

C 0.934286 0.184182 0.234544
H -0.304948 1.66305 1.228634
F -0.811449 -0.92041 -0.225167
F 2.018933 0.802699 -0.062826
C -0.36864 1.06235 0.313717
C 0.372115 -0.915483 -0.601603
N 0.754162 -1.775076 -1.350957
N 1.104329 -0.374148 1.578299
H 2.088307 -0.604739 1.656792
H 0.557351 -1.230922 1.693573
C -1.453883 -0.081172 0.302535
N -2.590877 -0.293241 0.627585
C -0.540826 1.815554 -0.95064
H 0.136231 2.662796 -0.96546
H -0.307276 1.118737 -1.743201
H -1.568635 2.155141 -1.054202
