14

C -1.412433 0.130595 0.358263
H -1.632433 -0.573715 -1.616651
Br 2.648298 -0.048075 -0.080823
F -3.408853 0.020782 0.165158
C -1.295123 -0.989319 -0.67016
H -0.224383 -1.251527 -0.744822
C -1.550199 1.464869 -0.183151
N -1.659297 2.564423 -0.592194
N -0.482529 0.021559 1.405593
H -0.528089 0.80232 2.060067
H 0.433652 0.035287 0.917227
N -2.120959 -2.139261 -0.348919
H -2.96972 -1.685079 -0.012172
H -1.703741 -2.59563 0.457659
