15

C 0.397341 -0.3199 -0.221197
H -0.803079 0.447807 -1.786185
F -0.46835 0.103203 1.636747
Cl 3.470018 0.312627 -0.325182
C -0.862332 0.397088 -0.689133
C 0.396484 -1.712608 0.123526
N 0.48706 -2.861981 0.378547
N 1.384482 0.558359 0.174181
H 2.38158 0.305866 0.003532
H 1.199956 0.627274 1.184745
C -0.940209 1.757795 -0.149577
N -1.089445 2.885572 0.14519
N -2.143701 -0.352308 -0.387532
O -3.117065 0.313239 -0.04679
O -2.129197 -1.559011 -0.598102
