13

C -0.350454 0.43501 -0.167239
H 0.992165 0.593377 1.481982
Cl -1.918722 -1.068451 -0.192982
F 1.243971 1.69977 -0.463879
C 0.620491 -0.193921 0.820093
H -0.144712 0.293728 -1.211786
H 0.11918 -0.973977 1.397927
C -1.186158 1.620419 0.259741
H -2.075229 1.71591 -0.365534
H -1.531083 1.507465 1.29269
H -0.551701 2.499102 0.160316
C 1.800514 -0.792181 0.177785
N 2.758222 -1.31226 -0.263181
