15

C 1.197063 -0.961954 -0.774697
H -0.062677 0.052704 0.633298
F 3.940119 0.210791 0.253919
Br -2.922533 -0.099944 0.071724
C 0.988851 0.129774 0.277642
H 0.940518 -0.695684 -1.795561
C 2.12319 -2.121179 -0.539942
H 2.57641 -2.38144 -1.497736
H 2.898567 -1.778969 0.138453
H 1.604183 -2.988948 -0.126054
C 1.108897 1.444148 -0.368576
N 1.1803 2.508518 -0.86037
N 1.916461 -0.022074 1.366882
H 1.796921 0.773475 1.992027
H 2.88832 0.269959 0.747814
