14

C 0.840606 0.555356 0.293061
H -0.678498 1.785008 -0.697787
Cl 1.314576 -1.363108 -0.056195
H 0.09307 2.433529 1.148675
C -0.397866 0.743573 -0.563416
H 0.65323 0.504771 1.350057
H -0.295918 0.266081 -1.539622
C 2.114515 1.282429 -0.113158
H 2.387995 1.055156 -1.148268
H 1.987724 2.353919 0.006517
H 2.940679 0.933451 0.513976
N -1.610007 0.089555 0.015549
O -2.510546 -0.172573 -0.78695
O -1.678149 -0.111692 1.2262
