12

C 0.583662 0.000251 0.086023
H 1.534337 -1.292762 1.501268
Br -1.902288 -0.000352 -0.205065
Cl 2.947583 7.5e-05 -0.484857
C 0.680491 -1.308711 0.824404
H 0.529653 -0.000406 -0.983576
H 0.84009 -2.111514 0.1065
H -0.225466 -1.510673 1.393354
C 0.677855 1.30975 0.823677
H -0.219864 1.50234 1.408946
H 1.544003 1.301104 1.48447
H 0.816369 2.115212 0.104261
