15

C -0.070413 1.129078 0.199902
H -2.171502 1.140074 0.113484
Br 1.354075 -0.4847 0.131538
H -1.28784 2.645444 0.759171
C -1.409624 0.394454 0.326866
H 0.280714 1.561521 1.123246
C 0.245506 1.898401 -1.07055
H 1.235896 2.3438 -0.965967
H 0.278204 1.259281 -1.951916
H -0.480664 2.686051 -1.238947
N -1.566878 -0.152148 1.682524
H -2.338413 -0.808312 1.695173
H -1.812647 0.639185 2.271528
C -1.608789 -0.647608 -0.700528
N -1.866901 -1.440493 -1.531631
