16

C 1.012503 -0.764538 -0.011941
H -0.706718 -1.56619 1.021369
Cl 1.101621 0.999676 -1.077157
H 0.988752 -2.786551 0.546015
C -0.511029 -0.959504 0.141738
H 1.486431 -1.365134 -0.766646
C 1.901479 -0.430672 1.172844
H 1.564528 0.46344 1.69696
H 1.958242 -1.266546 1.86649
H 2.892126 -0.193546 0.780682
N -1.240579 -1.45725 -0.990827
H -0.944318 -2.407502 -1.181785
H -1.028202 -0.88935 -1.806443
N -1.16166 0.367876 0.541915
O -0.761719 0.863042 1.592361
O -2.055837 0.833307 -0.157166
