18

C -0.132643 -0.602452 -0.076124
H -1.567557 0.467571 0.934901
Cl 2.019907 -0.152646 -0.582425
F -2.083889 -1.22636 -0.449988
C -0.694786 0.75069 0.3414
H -0.244663 -0.902917 -1.094193
C 0.039374 -1.660859 0.97609
H 0.930825 -1.510371 1.584458
H -0.840229 -1.63685 1.617659
H 0.098174 -2.644485 0.505396
C -1.239829 1.474259 -0.884797
H -0.448816 1.779603 -1.579249
H -1.907513 0.767637 -1.37936
H -1.815749 2.36424 -0.605426
C 0.19266 1.610854 1.234196
H 0.474103 1.071352 2.14904
H 1.106208 1.929885 0.730679
H -0.35685 2.511604 1.542611
