17

C 0.160618 0.808387 0.846188
H 0.093401 2.777567 0.105184
Br 2.045588 -1.253549 -0.22286
Br -2.991786 -0.336579 -0.035468
C 0.615831 1.848844 -0.150548
H -0.39557 -0.028622 0.420595
C 0.822451 0.58484 2.167141
H 1.244783 -0.417044 2.139519
H 1.620942 1.317693 2.299482
H 0.095472 0.670488 2.976933
C 0.220062 1.489714 -1.577614
H 0.755164 0.589044 -1.891932
H -0.866226 1.298898 -1.607005
H 0.463665 2.331188 -2.23778
N 2.051746 2.103124 0.008149
H 2.295655 2.764922 -0.717394
H 2.533673 1.23777 -0.214176
