15

C 0.570524 -0.371803 -0.172073
H 0.419619 1.371341 0.998262
F 2.475722 -1.070216 -0.787832
Br -1.76888 0.096603 -0.094629
C 0.954644 1.069592 0.096184
H 0.512408 -0.702284 -1.189761
H 0.534365 1.674304 -0.709038
C 0.654872 -1.373151 0.941405
H 1.706518 -1.611837 1.062381
H 0.249872 -0.942078 1.858434
H 0.091448 -2.276315 0.696488
C 2.441362 1.396674 0.263629
H 2.795264 1.050824 1.237336
H 3.004018 0.876891 -0.510018
H 2.587388 2.482103 0.18357
