18

C 0.17816 -0.534296 0.359597
H 1.008978 0.058193 -1.467466
F 0.956298 -1.537652 0.439537
Cl -2.045732 1.410602 0.143117
C 1.117362 0.421034 -0.446432
C -0.299045 -0.14948 1.775142
H -0.3735 0.927352 1.941448
H -1.289626 -0.56239 1.954944
H 0.367029 -0.612244 2.505302
N -0.978849 -1.042672 -0.507616
O -0.860781 -0.905047 -1.718749
O -1.833227 -1.737089 0.031318
C 2.540096 0.159548 -0.123706
N 3.699149 0.082934 0.050699
C 0.878554 1.938121 -0.440171
H 0.843754 2.359844 0.573725
H 1.691636 2.390732 -1.007999
H -0.058297 2.142827 -0.937492
