16

C 0.143021 0.088105 0.183811
H 0.768008 1.517502 -1.305421
F 1.413317 -1.48395 0.313144
Cl -1.410983 1.608857 -0.097606
C 1.143027 0.601593 -0.846036
H 1.199844 -0.175001 -1.611929
C 0.271923 0.331519 1.660062
H 0.924401 -0.418861 2.088483
H 0.685751 1.327433 1.810575
H -0.71359 0.274387 2.105401
N -0.778025 -1.02437 -0.239409
O -0.852869 -1.293237 -1.434267
O -1.436822 -1.575628 0.639072
N 2.428236 0.892167 -0.203076
H 3.061759 1.234069 -0.917262
H 2.758905 -0.00551 0.143109
