15

C -0.506094 0.365923 -0.324283
H -1.119992 -1.198662 -1.493723
Cl 2.828996 0.854536 -0.055105
F -2.784885 0.044988 -1.100078
C -0.168459 -0.881234 -1.066563
H 0.529675 -0.611078 -1.870354
C -0.539894 1.657022 -1.029805
H 0.489201 1.886806 -1.310226
H -1.204543 1.525038 -1.875917
H -0.942342 2.419098 -0.372122
N -0.895118 0.296428 1.047756
O -1.006824 -0.822623 1.551381
O -1.086975 1.361256 1.642009
C 0.455344 -1.970088 -0.306592
N 0.96998 -2.909573 0.177411
