16

C -0.387209 0.144061 0.384598
H 0.222807 0.87214 -1.569527
F 1.181083 -0.026202 1.632258
Cl -2.046491 0.180388 -1.122554
C 0.69057 0.633995 -0.61315
C -1.046331 1.097367 1.358723
H -0.459262 1.047786 2.271756
H -1.014212 2.103305 0.939222
H -2.082134 0.817471 1.530423
C -0.528411 -1.275991 0.627377
N -0.732149 -2.418583 0.833729
C 1.662536 -0.433814 -0.92089
N 2.484435 -1.1899 -1.286717
N 1.306745 1.844949 -0.10507
H 2.078066 2.097917 -0.709535
H 1.655193 1.581623 0.817219
