16

C 1.35617 -0.134535 -0.395402
H 2.26388 1.324631 0.800679
Br -3.257404 -0.309797 -0.075876
Cl 3.717814 -0.52523 0.012948
C 1.23512 0.981818 0.676351
C 1.536847 0.263492 -1.824139
H 0.569109 0.508037 -2.261585
H 2.205961 1.122028 -1.90072
H 2.015816 -0.551479 -2.365799
C 0.985669 -1.486341 -0.091439
N 0.695953 -2.588703 0.225837
N 0.726383 0.569828 1.990495
H 1.329608 -0.18942 2.29439
H -0.187313 0.146374 1.835195
C 0.464581 2.105418 0.117678
N -0.116774 3.023522 -0.339893
