15

C -0.556526 -0.207494 -0.014965
H -0.467433 1.721014 0.881117
F 2.695398 -0.44228 -0.145754
H -1.681944 -0.384189 1.089452
C 0.208524 0.926369 0.591945
H 0.59408 0.426519 1.474774
C 0.038347 -1.574648 0.017399
H 0.979775 -1.52585 -0.511604
H 0.264555 -1.712079 1.07658
H -0.644111 -2.334771 -0.361031
C -1.976982 -0.104937 0.042165
N -3.042066 0.28667 -0.404216
N 1.286707 1.377292 -0.253427
H 0.894489 1.537233 -1.179228
H 1.809348 0.369168 -0.374036
