15

C -0.053421 0.565475 -0.4059
H 0.369016 -1.513742 -0.920349
F 1.713374 1.574549 -0.584307
Br -1.948252 -0.682388 0.093023
C 0.89132 -0.565281 -0.80397
H 1.388086 -0.297649 -1.73277
C -0.668716 1.361244 -1.541332
H 0.151481 1.960628 -1.927537
H -1.068225 0.68011 -2.293188
H -1.480648 1.991167 -1.181009
C 0.015665 1.294584 0.84738
N -0.104684 1.975458 1.801907
N 2.015352 -0.873752 0.145959
O 2.996762 -1.421772 -0.366128
O 1.868859 -0.672721 1.346836
