15

C 0.681249 -0.139339 0.16721
H -0.378779 -1.798015 -0.765707
Cl 0.488128 1.665887 0.223357
H 1.55656 -2.974766 -0.079051
C -0.438859 -0.710589 -0.736288
H -0.360607 -0.298094 -1.743821
C 0.689678 -0.675302 1.609368
H -0.205292 -0.346928 2.138623
H 0.732074 -1.765642 1.608998
H 1.557336 -0.264975 2.135218
C 1.954225 -0.393713 -0.48086
N 3.007997 -0.573536 -0.979231
N -1.789819 -0.32852 -0.270297
O -2.504389 0.247692 -1.076775
O -2.126169 -0.628144 0.864122
