17

C 0.512073 -0.292679 -0.002183
H 0.223499 1.742352 -0.503196
Br -2.203845 0.064974 0.000315
F 3.597857 -0.456315 -0.002936
C 0.832822 1.17467 0.201173
H 0.490547 1.403033 1.210329
C 0.795198 -0.873281 -1.351351
H 0.278147 -1.825491 -1.482446
H 0.521988 -0.173527 -2.144841
H 1.885729 -0.996984 -1.29282
C 0.808696 -1.192896 1.15295
H 1.906236 -1.125478 1.123874
H 0.398606 -0.810437 2.094837
H 0.463355 -2.214125 0.971915
N 2.244972 1.535242 0.088256
H 2.460705 1.617982 -0.910547
H 2.717522 0.573859 0.326967
