20

C -0.626651 0.054059 0.26308
H 0.997582 0.086886 1.628384
F -0.396904 -0.113906 -1.408596
H -0.646683 0.058065 2.133908
C 0.866098 -0.056575 0.561259
C -1.587703 -1.135473 0.264396
H -0.992588 -2.036865 0.115074
H -2.184665 -1.215544 1.172384
H -2.257999 -1.062669 -0.602208
C -1.21541 1.461199 0.253949
H -2.205978 1.510263 0.718014
H -0.563162 2.160689 0.788611
H -1.299064 1.791521 -0.786439
C 1.649727 1.071144 -0.102573
H 1.287222 1.238385 -1.115731
H 1.550369 2.002261 0.46185
H 2.711769 0.822933 -0.135847
N 1.316869 -1.402776 0.193903
H 2.325729 -1.415587 0.298644
H 1.115157 -1.461868 -0.797266
