18

C -0.45431 -0.480131 -0.189268
H -1.143024 0.980533 1.087015
Cl 2.81786 -0.778816 -0.287654
Cl -3.009151 -0.125829 0.002107
C -0.14719 0.681622 0.740328
C -0.428294 -1.853111 0.369006
H 0.519719 -2.293849 0.054636
H -0.451639 -1.757195 1.448664
H -1.280395 -2.425403 0.004363
C -0.434397 -0.25653 -1.650211
H -0.973287 0.650533 -1.9091
H 0.606712 -0.187293 -1.95334
H -0.916735 -1.100363 -2.143973
C 0.409017 1.823894 -0.004994
N 0.845937 2.737396 -0.603011
N 0.682272 0.269754 1.877568
H 1.019606 1.121733 2.321112
H 1.504577 -0.154228 1.433851
