16

C 0.558448 -0.503866 0.004163
H 2.252744 0.071113 -0.817775
Br -2.152253 -0.034975 -0.00057
F 3.321054 -1.098037 0.040047
C 1.244794 0.505904 -0.886097
H 0.870576 0.502817 -1.913224
C 0.599625 -1.893838 -0.530206
H -0.029999 -2.580008 0.038986
H 0.315209 -1.924771 -1.585396
H 1.669697 -2.096121 -0.398813
C 0.948224 -0.355834 1.431597
H 2.031898 -0.490847 1.313798
H 0.7072 0.625457 1.838134
H 0.516022 -1.141044 2.057286
C 1.284109 1.850759 -0.325029
N 1.327835 2.931587 0.13714
