18

C -0.584013 -0.548354 -0.58239
H -1.276379 0.958908 0.523616
Cl 2.392879 -0.879617 -0.113652
F -2.856494 0.475623 0.581659
C -0.269731 0.502792 0.44694
C -1.199894 -1.763481 0.013043
H -1.752632 -2.319125 -0.744143
H -0.449352 -2.398359 0.493303
H -1.875329 -1.291631 0.723388
C -1.219969 0.007528 -1.805299
H -2.162436 0.350359 -1.377654
H -0.652496 0.846119 -2.21303
H -1.366786 -0.761334 -2.565184
C 0.651738 1.545158 -0.028894
N 1.319206 2.445575 -0.389082
N 0.011175 -0.059503 1.742945
H 0.087276 0.670629 2.435506
H 0.896191 -0.547052 1.683903
