20

C -0.7953 -0.413426 0.021153
H -2.494121 0.912901 0.235667
Br 2.738273 -0.214671 -0.032674
F -4.571611 -0.843457 -0.014615
C -1.39733 1.010634 0.102497
C -1.160639 -1.221962 1.270803
H -0.677186 -2.218111 1.241503
H -0.815649 -0.704875 2.186794
H -2.262618 -1.354566 1.322041
C -1.199324 -1.195186 -1.23503
H -2.297482 -1.316256 -1.268989
H -0.844521 -0.691314 -2.153444
H -0.73071 -2.198617 -1.22326
C -1.149634 1.839846 -1.167509
H -0.064826 1.939983 -1.369789
H -1.649192 1.382174 -2.04294
H -1.584509 2.850662 -1.041095
N -0.849108 1.701901 1.273266
H -1.296367 2.637032 1.366869
H 0.179233 1.832847 1.157428
