17

C -0.924012 -0.607447 -0.125696
H 0.70127 -1.80202 -1.020749
Cl -0.696412 1.591111 0.218217
H -1.167339 -2.870668 -0.478581
C 0.433633 -0.765349 -0.813303
H 0.421525 -0.197725 -1.746618
C -2.133321 -0.389882 -1.02969
H -2.912612 0.12712 -0.468341
H -1.857935 0.261446 -1.858458
H -2.518051 -1.327891 -1.411404
C -1.159386 -0.924768 1.344527
H -1.206822 -1.990531 1.524366
H -0.391019 -0.472572 1.959843
H -2.096218 -0.441551 1.633052
N 1.635954 -0.217022 -0.087493
O 2.496577 0.298176 -0.808529
O 1.767552 -0.384508 1.122857
