19

C -0.977111 0.513374 0.225723
H 0.584658 1.161882 1.49626
Cl -0.725685 -1.653349 -0.560491
H -1.223744 2.706008 1.037303
C 0.485699 0.936982 0.43493
C -1.784108 0.053317 1.417886
H -2.693497 -0.428098 1.053253
H -1.259396 -0.700476 2.001647
H -2.025992 0.901371 2.048641
C -1.638266 0.923755 -1.071587
H -2.014118 1.937868 -1.014168
H -0.91345 0.86708 -1.874441
H -2.448005 0.233459 -1.291051
N 0.909172 1.989008 -0.471954
H 1.915315 2.108534 -0.393946
H 0.439912 2.838184 -0.147428
N 1.442281 -0.220893 0.214942
O 1.924039 -0.393456 -0.897212
O 1.700649 -0.914076 1.193418
