18

C -0.264785 -0.811098 -0.364938
H -1.512074 0.87334 -0.036289
F 2.499498 0.317118 0.342765
F -3.342487 0.2042 -0.102118
C -0.435822 0.627371 0.001675
C -0.08825 -1.727619 0.792373
H 0.902602 -1.390548 1.087422
H -0.78085 -1.537372 1.622112
H -0.062858 -2.773373 0.47076
N 0.747286 -0.940955 -1.331504
H 0.977788 -1.93121 -1.412243
H 1.445656 -0.461556 -0.70497
N 0.346076 1.504616 -0.892598
H 0.599186 0.886228 -1.666671
H 1.221236 1.312239 -0.352207
N 0.087001 0.798803 1.325973
H 0.206879 1.801658 1.430811
H 1.059938 0.459561 1.107695
