14

C -0.441534 0.417016 0.32485
H -0.099703 -1.134658 -1.091466
F 1.217869 1.048274 1.338937
Cl -2.4127 -0.239166 -0.302278
C 0.413949 -0.72967 -0.212757
H -0.686477 0.326289 1.367952
N -0.363834 1.64553 -0.368063
H 0.24967 2.208799 0.2111
H -1.288051 2.034213 -0.463587
N 0.543962 -1.732908 0.851534
H 1.321899 -2.341226 0.641574
H -0.305744 -2.288129 0.852584
C 1.734043 -0.265875 -0.689403
N 2.766264 -0.013017 -1.192899
