15

C -0.442945 -0.355409 -0.375213
H -0.067896 1.030665 1.181496
F 1.146122 -1.398204 -1.130164
Cl -2.228383 0.889391 -0.018211
C 0.520404 0.312169 0.60799
H -0.416668 -0.021372 -1.395809
N -0.988742 -1.612452 0.00632
H -0.309848 -2.267776 -0.37736
H -1.890483 -1.713922 -0.4399
C 1.544805 1.071248 -0.10985
N 2.366114 1.746069 -0.608376
C 1.162218 -0.665425 1.589749
H 0.364911 -1.25522 2.049896
H 1.839278 -1.325428 1.047923
H 1.699621 -0.093579 2.353142
