12

C -0.488684 -0.414178 -0.153972
H 0.346576 0.341431 1.65281
F 0.04592 -2.308621 -0.507557
Cl -1.048026 1.689857 -0.18089
C 0.679198 -0.280647 0.81746
H -0.29366 -0.405098 -1.213605
H 0.904684 -1.294179 1.150947
N -1.706202 -0.92265 0.404628
H -1.700846 -1.902984 0.130098
H -2.483615 -0.423315 -0.012434
C 1.886358 0.280637 0.206152
N 2.873172 0.668263 -0.30213
