14

C -0.524742 -0.478723 -0.295416
H -1.620832 1.234492 -0.73905
Cl 2.767645 -0.461173 -0.148479
F -3.31332 -0.512175 -0.358135
C -0.563448 0.992267 -0.585606
H -0.734296 -1.116961 -1.159204
H -0.025698 1.167442 -1.523958
N -0.918709 -0.902751 0.961921
H -0.590286 -1.842964 1.113886
H -1.936769 -0.859769 0.966595
C 0.022915 1.834052 0.536667
H -0.544424 1.672174 1.455351
H 1.063077 1.538511 0.702949
H -0.018251 2.890271 0.263469
