15

C -0.306259 -0.287786 -0.276259
H 0.815709 -0.417537 1.477289
Cl -0.925067 1.811678 -0.774102
F -0.063613 -2.071398 0.296528
C 1.01158 -0.053238 0.470698
N -0.254362 -0.668026 -1.620769
H -1.00828 -0.239648 -2.134735
H -0.312055 -1.67866 -1.646087
N -1.558504 -0.428057 0.580973
O -1.453018 -0.160708 1.770508
O -2.579559 -0.784056 0.009606
C 1.552022 1.3052 0.591095
N 2.144854 2.305778 0.751672
C 2.069914 -0.929846 -0.092342
N 2.968064 -1.562261 -0.512669
