14

C -0.095969 0.251446 0.138115
H 1.016969 1.138137 -1.443423
F 0.378396 -1.307302 0.777805
F -0.821592 1.714473 -0.587222
C 0.983432 0.183864 -0.925391
H 0.718226 -0.604019 -1.625405
N 0.122904 0.909768 1.361174
H 0.143169 0.21225 2.08631
H -0.60007 1.595876 1.498095
N -1.438788 -0.394646 -0.159398
O -1.586985 -0.954938 -1.240081
O -2.293304 -0.319273 0.716426
C 2.305581 -0.085323 -0.348882
N 3.400816 -0.216981 0.051847
