13

C -1.76662 -0.201794 0.303547
H -3.009457 1.399567 -0.253473
Br 2.961394 -0.203095 0.068543
F -3.692619 -0.697056 -0.155373
C -2.028187 1.024894 -0.54382
H -2.114257 0.714689 -1.582478
N -2.011576 -0.288546 1.682215
H -3.00657 -0.526702 1.700314
H -1.881418 0.617107 2.121756
C -1.356263 -1.39212 -0.388365
N -1.02328 -2.386686 -0.92981
C -1.046919 2.08742 -0.420675
N -0.281657 2.970486 -0.279677
