17

C 0.757192 -0.435393 -0.428184
H 1.982561 1.205798 -0.924917
Cl -2.842053 0.225636 0.058475
F 1.988035 -1.199135 -0.53869
C 1.22893 0.999234 -0.16395
N 0.114815 -0.552602 -1.715553
H -0.898434 -0.563602 -1.552852
H 0.393433 -1.430469 -2.142541
C 0.087216 -1.12968 0.669047
N -0.381966 -1.788323 1.5278
C 1.926815 1.078737 1.17787
H 1.297039 0.690078 1.96818
H 2.859271 0.51189 1.148569
H 2.170044 2.115058 1.41691
N 0.091645 1.8907 -0.351609
H 0.44015 2.831264 -0.172985
H -0.593871 1.670557 0.360608
