16

C 0.474332 -0.034814 0.420693
H -0.372297 -1.923552 0.388443
Cl -0.547885 1.875607 -0.205225
F 1.574703 -1.620817 0.82843
C -0.553465 -1.002058 -0.170506
N 0.3779 0.237298 1.815544
H 0.608746 1.208325 1.981238
H 1.055169 -0.380747 2.254919
C 1.625777 0.324149 -0.390664
N 2.564431 0.68822 -1.0038
C -0.337201 -1.284104 -1.650863
H -0.326268 -0.353699 -2.218537
H 0.608994 -1.801756 -1.797213
H -1.127654 -1.926481 -2.039912
C -1.932072 -0.603354 0.100852
N -3.080787 -0.428227 0.274963
