18

C -0.674603 0.271676 -0.032248
H 0.305799 -0.859998 -1.455336
F 0.410558 1.788008 0.478182
F -1.84514 -1.032075 -0.628291
C 0.49576 -0.620898 -0.399483
N -1.225364 1.159335 -1.012911
H -1.094974 2.07424 -0.60096
H -2.193844 0.875413 -1.091683
C -1.11899 0.205306 1.395306
H -1.766459 -0.654963 1.499008
H -0.26528 0.105325 2.064563
H -1.628676 1.137201 1.625464
C 0.462155 -1.90329 0.42668
H 0.783236 -1.707271 1.443374
H -0.581029 -2.177058 0.44281
H 1.07945 -2.688563 -0.021332
C 1.830074 -0.028019 -0.302582
N 2.983455 0.20404 -0.284371
