18

C -0.826733 -0.172522 -0.243411
H 0.579284 0.560464 -1.733666
F -0.459672 -0.192107 1.388099
H -1.302767 -0.192261 -2.194566
C 0.512378 0.489211 -0.646877
N -1.958462 0.699469 -0.140586
H -2.049043 0.911324 0.848455
H -2.777935 0.221917 -0.486159
C -0.990994 -1.68356 -0.302717
H -0.022526 -2.13254 -0.060022
H -1.661216 -1.99065 0.505324
H -1.362293 -2.02828 -1.263449
C 1.645996 -0.330346 -0.196282
N 2.634118 -0.881026 0.119025
C 0.654331 1.875376 -0.009748
H -0.205611 2.485544 -0.295088
H 0.657148 1.740132 1.069048
H 1.582557 2.355255 -0.337625
