16

C -0.313053 -0.118076 -0.00424
H 0.261236 1.770759 0.751593
F -1.596577 1.258479 -0.069018
F 0.928198 -1.528919 -0.079953
C 0.708369 0.779557 0.699051
H 0.797255 0.384576 1.717498
N -0.354516 -0.127002 -1.433525
H -1.280342 0.182831 -1.688673
H -0.169467 -1.082405 -1.712047
C -1.255253 -0.943314 0.854244
H -1.979693 -1.466485 0.225263
H -0.685132 -1.692064 1.410219
H -1.81251 -0.290763 1.532415
N 2.046767 0.859215 0.104767
H 1.944062 1.312056 -0.796774
H 2.253866 -0.119032 -0.091775
