16

C -0.331042 -0.108576 0.000911
H 0.366449 1.610481 -0.900352
F -1.767106 1.137131 -0.016775
F 0.949305 -1.504268 0.015871
C 0.638563 1.044327 -0.010616
H 0.361896 1.648349 0.851397
N -0.765926 -0.623871 -1.269757
H -1.759948 -0.463825 -1.310973
H -0.530454 -1.602354 -1.201703
N -0.790605 -0.582034 1.279534
H -0.629473 -1.576793 1.225362
H -1.768975 -0.340202 1.300181
C 2.136901 0.77975 0.00521
H 2.437069 0.222815 0.894158
H 2.445322 0.208362 -0.872677
H 2.667514 1.74573 -0.018728
