17

C	0.0	0.0	0.0
C	-0.365776	-0.103932	-1.500863
F	1.349448	0.0	0.0
H	-1.386177	-0.4717	-1.587633
C	-0.986529	0.949678	0.6212
N	-0.959576	1.981889	1.24191
N	-0.300426	-1.341789	0.707051
O	0.256894	-1.467014	1.795486
O	-1.060972	-2.154733	0.202181
N	0.466513	-1.115044	-2.243046
O	1.03605	-2.01076	-1.628249
O	0.466687	-1.018261	-3.47207
C	-0.218294	1.258564	-2.154763
H	-0.506273	1.211519	-3.202579
H	-0.858602	1.967058	-1.630131
H	0.815013	1.60508	-2.082973
H	-2.133908	0.0	0.0
