17

C	0.0	0.0	0.0
C	-0.390073	-0.242387	-1.492278
F	1.346776	0.0	0.0
H	-1.353917	-0.727698	-1.539786
C	-0.748499	1.132258	0.540528
N	-0.698739	2.23463	1.001833
N	-0.338392	-1.225664	0.848901
O	-0.332815	-2.313021	0.274698
O	-0.390467	-1.056692	2.062924
N	0.552162	-1.183889	-2.208355
O	0.063363	-2.232268	-2.63156
O	1.709033	-0.822586	-2.421805
C	-0.358749	1.072937	-2.251459
H	0.605072	1.566885	-2.115914
H	-1.153177	1.716784	-1.876471
H	-0.515668	0.89102	-3.317869
H	-2.194835	0.0	0.0
