12

C	-0.508968	0.05461	-1.415936
C	0.0	0.0	0.0
F	-1.904159	0.113221	-1.432845
H	1.091674	0.0	0.0
H	-0.136604	0.952261	-1.911254
H	-0.394915	-0.855226	0.545429
C	-0.106628	-1.143549	-2.166019
N	0.156338	-2.101891	-2.791143
N	-0.449822	1.216526	0.726866
O	-0.773891	1.077795	1.90368
O	-0.435624	2.284197	0.118486
Cl	3.263311	0.0	0.0
