12

C	-0.561188	0.056734	-1.403185
C	0.0	0.0	0.0
F	0.151819	-0.738422	-2.269945
H	1.088266	0.0	0.0
H	-1.596146	-0.296051	-1.423004
H	-0.337284	0.842436	0.605135
C	-0.549269	1.445558	-1.896989
N	-0.659982	2.545706	-2.289777
N	-0.460369	-1.224471	0.709018
O	-0.963279	-2.13397	0.046704
O	-0.291308	-1.247076	1.92395
Cl	3.266475	0.0	0.0
