12

C	-0.490472	0.016264	-1.437268
C	0.0	0.0	0.0
F	-0.145524	1.241756	-1.98712
H	1.091492	0.0	0.0
H	-0.005321	-0.770857	-2.017249
H	-0.39086	0.846048	0.562478
C	-1.958531	-0.125597	-1.534343
N	-3.129415	-0.198144	-1.598891
N	-0.437615	-1.23938	0.679686
O	-0.59783	-2.24115	-0.023998
O	-0.576036	-1.202073	1.898456
Cl	3.270111	0.0	0.0
