12

C	-0.505888	-0.000225	-1.415042
C	0.0	0.0	0.0
F	-1.890381	0.167354	-1.443222
H	1.092114	0.0	0.0
H	-0.061721	0.872746	-1.903645
H	-0.344079	0.903041	0.503219
C	-0.173941	-1.17801	-2.23231
N	0.053552	-2.045273	-2.988158
N	-0.508254	-1.134144	0.810384
O	-0.628031	-0.934329	2.016636
O	-0.752314	-2.195862	0.241444
Cl	3.259698	0.0	0.0
