15
Coordinates from ORCA-job run
  C   -0.58896056602504      0.08528109951960      0.33945052272110
  C   0.82765619590342     -0.25849605103596      0.77984277199222
  Cl  -1.63252802283827      0.19448747945738      1.78176734762670
  H   1.11764015896600      0.41159964791263      1.59311569642774
  H   0.78961072712993     -1.27443096706275      1.18106024879155
  N   -0.57093548334285      1.49154704090708     -0.26072216345200
  O   -1.44826119353857      1.77194431303065     -1.06779765885434
  O   0.30681106680662      2.25430084797157      0.13528471644396
  C   -1.17228622330893     -0.88109644876024     -0.65912349899711
  H   -1.21103235944570     -1.87304878334061     -0.20547282173065
  H   -0.52617501157410     -0.90943310110568     -1.53648927326813
  H   -2.17681487836890     -0.58073153536412     -0.94782955332719
  N   1.70765012482172     -0.20790646274593     -0.37877235570514
  H   2.15638348106511      0.69616514137200     -0.43361696391375
  H   2.42224198374958     -0.91918222075562     -0.32269701475499
