15
Coordinates from ORCA-job run
  C   -0.47473444656182      0.19747570623023      0.21154717267872
  C   1.05226205008424      0.20678627411123      0.15686189687456
  Cl  -0.99969088281575     -0.06446589543784      1.89815388413017
  H   1.41065675516691      0.99367745233954      0.82746433128784
  H   1.32931725362882      0.48350212565164     -0.86634154528388
  N   -0.93318571030875      1.60617886512598     -0.16157759441386
  O   -0.40731981770317      2.53256159487051      0.44669043986459
  O   -1.76938518514768      1.71733948770383     -1.05308481781134
  C   -1.11334876590853     -0.82718682186933     -0.68731855255931
  H   -2.19843972990407     -0.78899333129224     -0.61095174599722
  H   -0.74709009025194     -1.80826423212679     -0.39228258975414
  H   -0.82716897227229     -0.63794445053600     -1.72350749283696
  N   1.56657976386929     -1.12470600797393      0.43916699122219
  H   1.60735098783514     -1.27211270006160      1.43959370078652
  H   2.50619679028959     -1.21384806673523      0.07658592181211
