15
Coordinates from ORCA-job run
  C   -0.43217368655487      0.24386843703238      0.23078373204627
  C   1.08670418872867      0.15337774163779      0.10423278703967
  Cl  -0.87584878804555      0.09305955515213      1.94256843171100
  H   1.52572746776661      0.99469576401753      0.65736951475407
  H   1.33597180807094      0.28280721340650     -0.94885194250437
  N   -0.88430183569358      1.61921660585057     -0.26403559726734
  O   -0.24655884647619      2.06312977017610     -1.21700181651118
  O   -1.86857439533380      2.13675240526526      0.24287281750512
  C   -1.17630086249209     -0.78213933061621     -0.59545022492148
  H   -0.94658245544550     -0.62493579644928     -1.65237256758504
  H   -0.84154803705901     -1.77453443522960     -0.29984200805729
  H   -2.25164266916632     -0.68665338014586     -0.43862043469299
  N   1.53065228435149     -1.16282289071557      0.53694347877672
  H   2.44667316169674     -1.35671454281762      0.15576322233261
  H   1.59880266565246     -1.19810711656411      1.54564060737424
