15
Coordinates from ORCA-job run
  C   -0.54954886852742      0.08521592491475      0.35965477469402
  C   0.85590099888729     -0.24194232755366      0.87621348102768
  Cl  -1.65664021648970      0.19253460880331      1.75278046579784
  H   0.79850323906179     -1.23379564061955      1.33354721909021
  H   1.10516647081453      0.46750676617207      1.66443131147357
  N   -0.51951407144729      1.48389778297924     -0.25679058269472
  O   0.20161515634871      2.31224341232472      0.29117685481145
  O   -1.21933903807633      1.68720156184773     -1.24355986226034
  C   -1.09054695910444     -0.90094302262876     -0.64606348154479
  H   -2.10492754581841     -0.64242331543645     -0.94129658667409
  H   -1.09028444829717     -1.89498865207726     -0.19559950101201
  H   -0.46734828503284     -0.90703481185139     -1.54185417795897
  N   1.91195944957430     -0.22818253197190     -0.10925837653020
  H   1.75754383789025     -0.88104273880099     -0.86380467604011
  H   2.06746028021672      0.69875298389814     -0.47957686217956
