15
Coordinates from ORCA-job run
  C   -0.59287387683403      0.08469619680833      0.33547298564293
  C   0.82109391969049     -0.25792237653650      0.78633324820272
  Cl  -1.64850440638537      0.19056895868168      1.76887586751207
  H   0.78253222845742     -1.27437624057632      1.18625151641283
  H   1.10295457742494      0.41169467858919      1.60253227357799
  N   -0.56930486348020      1.49161266631088     -0.26261534537441
  O   0.29533367321081      2.25830647541421      0.15370922622406
  O   -1.42995269437288      1.76862660118093     -1.08869952977211
  C   -1.16654787112600     -0.88105725042327     -0.66907653268912
  H   -2.16860317646379     -0.58118090384878     -0.96688454231291
  H   -0.51345092689447     -0.90786412852707     -1.54130242271494
  H   -1.20892967890420     -1.87335383192924     -0.21646754193011
  N   1.70958293815274     -0.20008681941731     -0.36510791405897
  H   2.17470243761255      0.69633224324856     -0.40217148390852
  H   2.40996771991200     -0.92599626897529     -0.32184980481152
