15
Coordinates from ORCA-job run
  C   -0.49558209469810      0.00716671698826      0.26992203427926
  C   0.93012226739017     -0.52927628554765      0.17641702642154
  Cl  -0.97744856260838      0.15008215815848      1.96220126883396
  H   1.11431197474196     -0.80859887091057     -0.86599781142779
  H   0.95568779784396     -1.44138022115202      0.77718455304419
  N   -0.50807089548286      1.39424558596009     -0.37306864312971
  O   -1.20361443306961      2.27649095315683      0.10281843112823
  O   0.16711828349296      1.48020027623855     -1.39817844902045
  C   -1.50489825808234     -0.82915040577520     -0.49181640782091
  H   -1.51482455349499     -1.84289403407208     -0.08835198184831
  H   -1.23073984645657     -0.86300859061972     -1.54833873690039
  H   -2.50421880570608     -0.40373614059067     -0.38876940117206
  N   1.87446610249244      0.44261122314837      0.69550168044793
  H   2.29237826165661      0.96890373127609     -0.05849051455856
  H   2.60631276198089     -0.00165609625870      1.22896695172306
