15
Coordinates from ORCA-job run
  C   -0.52627564990250     -0.03064742252348      0.20045320920863
  C   0.93107789281587     -0.47465804246126      0.29083800498868
  Cl  -1.23828346744225      0.03738530204033      1.81421654392779
  H   0.93585168448909     -1.39994484911146      0.87167713640509
  H   1.27115969157386     -0.71254639796798     -0.72215911811946
  N   -0.54226896649020      1.36966733681650     -0.41346210865610
  O   -1.35291114972091      2.19332535189808     -0.02210514565433
  O   0.25162931526758      1.52177796653371     -1.34113237864536
  C   -1.36820809176266     -0.90741473007245     -0.70552070851807
  H   -2.39756236393458     -0.54685908917910     -0.73154650893248
  H   -0.95305924077714     -0.89701259517355     -1.71552658792101
  H   -1.36709985183048     -1.92998536313890     -0.32488894864841
  N   1.73185141149152      0.53971478419980      0.95077034656453
  H   2.21657033413495      1.10781876565448      0.27081928315453
  H   2.40852845208783      0.12837898248528      1.57556698084594
