15
Coordinates from ORCA-job run
  C   -0.59354060087840      0.08126426946758      0.33382518199318
  C   0.82358094302222     -0.24085305857097      0.78953437054605
  Cl  -1.65113537801672      0.18971683250470      1.76560663843467
  H   1.09734328561948      0.43967342104793      1.59961292024882
  H   0.79479985145350     -1.25374993897245      1.19923206732444
  N   -0.58674926227092      1.48217959073160     -0.27886852776902
  O   -1.45651733909538      1.74322988803865     -1.10051950773233
  O   0.27492119721710      2.26046653080131      0.12204030462105
  C   -1.15549746112518     -0.90124482921113     -0.66119692755018
  H   -2.16051599876176     -0.61552316601832     -0.96288167855035
  H   -0.50085294147666     -0.93003957654018     -1.53217494928839
  H   -1.18736465142402     -1.88919514623599     -0.19837877312444
  N   1.71322436451133     -0.18794101104680     -0.36121687391193
  H   2.43034189522827     -0.89600149368428     -0.29896180589103
  H   2.15796209599713      0.71801768768838     -0.41565243935055
