15
Coordinates from ORCA-job run
  C   -0.46058222700673      0.01504779490849      0.21200089169824
  C   0.96647788822307     -0.55669459362184      0.25545540667259
  Cl  -0.97077619431779      0.46472427988134      1.84609692143179
  H   1.19512043365485     -0.92853679708667     -0.74570837300988
  H   0.93842960066764     -1.41227550619699      0.93585059661840
  N   -0.38769294783119      1.26791951131285     -0.65756516859351
  O   -0.62349794186783      2.36941594244477     -0.18400004271794
  O   -0.04721264173968      1.03914187913080     -1.81701210611174
  C   -1.46851387291293     -0.93301647890454     -0.40235682370997
  H   -1.16688426150462     -1.18129432395743     -1.42008843582207
  H   -2.46173795316122     -0.48103110015392     -0.41879880767952
  H   -1.51265135829408     -1.84406836915616      0.19619824025017
  N   2.01733999582976      0.34305283268809      0.66370492199727
  H   2.16909508270000      1.07054893654809     -0.02221882281606
  H   1.81308639756076      0.77006599216314      1.55744160179225
