15
Coordinates from ORCA-job run
  C   -0.55421553193309      0.08333429584711      0.35329355767710
  C   0.84773256119671     -0.23398614821296      0.88575104682628
  Cl  -1.67658121457171      0.18953523562790      1.73397978618812
  H   0.79177105440215     -1.22505870432275      1.34492656205143
  H   1.08377260604605      0.47885572683955      1.67503008482827
  N   -0.52473562989139      1.47977228681349     -0.26791235030093
  O   0.18241802916234      2.31493105591028      0.28769807423242
  O   -1.21099304196628      1.67459287738449     -1.26582478056669
  C   -1.07890502697511     -0.90975660019080     -0.65424406064084
  H   -0.44375982811208     -0.91872445517247     -1.54157939433515
  H   -1.08183223265870     -1.90143188337395     -0.19864534489136
  H   -2.09007161878011     -0.65573853976702     -0.96406929351255
  N   1.91419115052829     -0.21540808147571     -0.08804649093704
  H   1.77440611911947     -0.87226113547366     -0.84190093376022
  H   2.06780260443349      0.71134406956652     -0.45945646285885
