14

C	0.0	0.0	0.0
C	-0.522789	-0.073257	-1.438211
Cl	1.791467	0.0	0.0
H	-1.621146	-0.119559	-1.29191
H	-0.178415	0.786322	-2.008403
C	-0.365018	1.35208	0.49755
N	-0.567223	2.423733	0.935267
N	-0.535989	-1.064641	0.777807
H	-1.571749	-0.894685	0.641651
H	-0.296379	-0.905581	1.751837
N	-0.026501	-1.272145	-2.150529
O	-0.553228	-2.355107	-1.903322
O	0.879682	-1.104763	-2.975902
F	-2.763679	0.0	0.0
