14

C	0.0	0.0	0.0
C	-0.506439	0.138584	-1.435253
Cl	1.793546	0.0	0.0
H	-0.245409	-0.758933	-1.994205
H	-1.606004	0.236694	-1.279275
C	-0.396042	1.141095	0.847998
N	-0.588071	2.025199	1.595492
N	-0.530513	-1.189204	0.608618
H	-0.311941	-1.973856	-0.000275
H	-1.563485	-0.97585	0.533765
N	0.034489	1.275669	-2.206964
O	0.11423	2.369782	-1.652564
O	0.342767	1.062793	-3.383028
F	-2.742489	0.0	0.0
