14

C	0.0	0.0	0.0
C	-0.498861	0.443804	-1.371893
Cl	1.851794	0.0	0.0
H	-0.164495	1.443757	-1.64663
H	-1.606714	0.390784	-1.227323
C	-0.374696	1.114337	0.902458
N	-0.534334	2.064665	1.57285
N	-0.503576	-1.224569	0.519259
H	-0.266837	-1.9528	-0.14448
H	-1.538291	-1.033545	0.477671
N	-0.131433	-0.437944	-2.505645
O	-0.356829	0.031101	-3.624955
O	0.295857	-1.57656	-2.296453
F	-2.712317	0.0	0.0
