14

C	0.0	0.0	0.0
C	-0.535486	-0.555509	-1.327171
Cl	1.796101	0.0	0.0
H	-1.50119	-0.992245	-1.091654
H	0.177003	-1.261519	-1.75314
C	-0.401235	1.385643	0.308277
N	-0.57283	2.475707	0.714017
N	-0.483057	-0.940008	0.990489
H	-0.164517	-0.632999	1.908947
H	-1.514364	-0.749402	0.888548
N	-0.835384	0.435379	-2.39703
O	-0.260129	1.520855	-2.398809
O	-1.625597	0.061266	-3.262871
F	-2.647534	0.0	0.0
