14

C	0.0	0.0	0.0
C	-0.276247	0.193918	-1.524606
Cl	1.784338	0.0	0.0
H	0.43435	-0.437158	-2.05949
H	-0.135311	1.23583	-1.807998
C	-0.427829	1.183686	0.763618
N	-0.577826	2.162293	1.395095
N	-0.503987	-1.177039	0.615836
H	-0.306224	-1.960287	0.001091
H	-1.54654	-0.950416	0.547212
N	-1.587611	-0.23699	-2.09188
O	-1.763457	-1.450638	-2.166824
O	-2.285186	0.61845	-2.622439
F	-2.595485	0.0	0.0
