14

C	-0.45122	0.005426	-1.455378
C	0.0	0.0	0.0
Cl	0.372941	1.298677	-2.337341
H	1.09577	0.0	0.0
N	-0.055392	-1.319939	-2.144525
O	0.818148	-1.984026	-1.61468
O	-0.643817	-1.55921	-3.194308
C	-1.895684	0.152909	-1.623549
N	-3.05986	0.302921	-1.693211
C	-0.530857	-1.156534	0.698777
N	-0.956946	-2.092743	1.269275
C	-0.431783	1.229971	0.642003
N	-0.744733	2.234746	1.167285
F	2.409555	0.0	0.0
