14

C	-0.277197	-0.063499	-1.494735
C	0.0	0.0	0.0
Cl	-2.013169	-0.02943	-1.926349
H	1.096942	0.0	0.0
N	0.377999	1.168702	-2.156913
O	-0.122133	2.247079	-1.876489
O	1.335397	0.962861	-2.887736
C	0.320536	-1.261731	-2.075552
N	0.723328	-2.259182	-2.548004
C	-0.459605	-1.214867	0.642497
N	-0.806713	-2.204339	1.175297
C	-0.544697	1.171365	0.654251
N	-0.969448	2.101945	1.234878
F	2.399307	0.0	0.0
