14

C	-0.439457	0.005904	-1.461562
C	0.0	0.0	0.0
Cl	0.432696	1.264174	-2.347958
H	1.095731	0.0	0.0
N	-0.077755	-1.339109	-2.130337
O	-0.677408	-1.584437	-3.171174
O	0.7877	-2.011625	-1.597298
C	-1.875934	0.199266	-1.642022
N	-3.034158	0.386707	-1.727151
C	-0.547574	-1.144541	0.703145
N	-0.988111	-2.070205	1.279905
C	-0.419402	1.239792	0.630655
N	-0.720652	2.252587	1.147713
F	2.410142	0.0	0.0
