14

C	-0.435842	-0.00244	-1.461003
C	0.0	0.0	0.0
Cl	0.408403	1.276865	-2.343576
H	1.095782	0.0	0.0
N	-0.043637	-1.338545	-2.133141
O	0.808556	-2.012844	-1.581219
O	-0.610646	-1.572825	-3.195429
C	-1.876384	0.156292	-1.646898
N	-3.038005	0.315545	-1.734606
C	-0.54406	-1.144274	0.706492
N	-0.981341	-2.070285	1.284777
C	-0.424721	1.240568	0.626257
N	-0.732847	2.251241	1.142403
F	2.411783	0.0	0.0
