14

C	0.0	0.0	0.0
C	-0.44162	-0.441246	-1.392968
F	1.386315	0.0	0.0
H	0.456935	-0.403173	-2.027099
H	-0.360984	0.995229	0.221429
H	-0.353767	-0.694451	0.754862
N	-1.329468	0.578897	-2.05072
O	-1.062662	1.762382	-1.862522
O	-2.13867	0.183161	-2.883397
C	-1.069531	-1.817677	-1.429028
H	-0.370375	-2.529	-0.973626
H	-1.285289	-2.137197	-2.449488
H	-1.981921	-1.708901	-0.838955
F	-2.489122	0.0	0.0
