14

C	0.0	0.0	0.0
C	-0.547291	-0.054274	-1.395797
F	1.385593	0.0	0.0
H	-1.674901	-0.068338	-1.108552
H	-0.361886	0.913601	0.467973
H	-0.355915	-0.850979	0.570031
N	-0.192711	-1.34395	-2.033509
O	-0.03222	-1.370934	-3.260653
O	-0.122994	-2.353656	-1.329061
C	-0.09066	1.105207	-2.256027
H	-0.539099	1.076309	-3.247799
H	-0.390187	2.034526	-1.76512
H	0.998208	1.108897	-2.371691
F	-2.693216	0.0	0.0
