17
Coordinates from ORCA-job run
  C   -0.85618471163950      0.10746430048298      0.11533935489430
  C   0.65075688567391     -0.17925687898097     -0.07654698923152
  Cl  -1.10333425587982      1.88139005677912      0.34529129434371
  H   0.70084381621623     -1.26294085755460     -0.24486317296835
  C   -1.33041904225575     -0.56214761389676      1.32742976197935
  N   -1.70036441578675     -1.14840328669983      2.27612393699511
  C   -1.68183806012579     -0.33800295485189     -1.08414933723136
  H   -1.31004296353257      0.16794634789551     -1.97260379012957
  H   -2.73555510916154     -0.10430591421660     -0.92846441644400
  H   -1.57344681182532     -1.41818080308830     -1.21513284772511
  C   1.48884741270837      0.16142600433597      1.15278556644945
  H   2.52890405214142     -0.11697077359860      0.96573200823262
  H   1.15075168143502     -0.37074136918293      2.04492602613352
  H   1.45578506354970      1.23396095327176      1.35644225767808
  N   1.08932052872924      0.46129007062066     -1.31041262577357
  H   1.26908723887159      1.44422508542630     -1.13761737399850
  H   1.95888869088157      0.04224763325817     -1.61627965320415
