17
Coordinates from ORCA-job run
  C   -0.83934404738330      0.10990526731355      0.26006086230111
  C   0.62953737125370     -0.17539531250610     -0.14639161463385
  Cl  -0.97489599471897      1.75006770888006      0.98314791781017
  H   0.61857824562135     -1.22051974623915     -0.48794113070401
  C   -1.25008671027027     -0.85678293970171      1.28294575846934
  N   -1.54527210083732     -1.67326517836314      2.07482911618578
  C   -1.77469413147751      0.03984011114196     -0.93708986946627
  H   -1.73426308336242     -0.95893429751336     -1.38239682034004
  H   -2.80160427766816      0.24778349779327     -0.63479288667522
  H   -1.45168317377572      0.78021113264097     -1.66793853055773
  C   1.59443804429465     -0.07674469679316      1.02771242424243
  H   1.26437202829514     -0.68003405681346      1.87553747698652
  H   2.58058486948706     -0.43222706086031      0.71953049897805
  H   1.68766190840497      0.95995733081877      1.35745947308328
  N   0.99867753551039      0.71636611504778     -1.23453462796071
  H   1.18333315238696      0.20801559386082     -2.08709735001063
  H   1.81566036423944      1.26275653129321     -1.00104069770821
