17
Coordinates from ORCA-job run
  C   -0.81266295762186     -0.30511015150396      0.44078496446714
  C   0.72665591636865     -0.31334150117737      0.26176771425667
  Cl  -1.18896187381602     -0.03513934958171      2.18171218707847
  H   1.11551260538684     -1.00278896801041      1.02579848135992
  C   -1.31151231916837     -1.63970121483723      0.09940089437009
  N   -1.66870900912798     -2.71606432257151     -0.20838299685845
  C   -1.52084958647781      0.74925454047640     -0.39645453916724
  H   -2.60204670658629      0.63915995133043     -0.30554039341716
  H   -1.22347429472378      0.62269000602928     -1.43832034793089
  H   -1.24501630283850      1.74628799316684     -0.05257837226134
  C   1.34413143851916      1.05922835918864      0.47574532275154
  H   2.43284919095786      0.96559381472681      0.50991505414183
  H   1.01893066714316      1.50840676822025      1.41409063879910
  H   1.08778106769491      1.72438106509749     -0.35113364236683
  N   0.99572771535697     -0.75232706504772     -1.10386107850363
  H   0.91954401171270     -1.75973027787400     -1.18110302523973
  H   1.93610043722036     -0.49079964763222     -1.37284086147950
