9
Coordinates from ORCA-job run
  C   0.78170949083371     -0.01975382058024     -0.01086938299609
  C   -0.50716098411475     -0.05960699539153      0.40090641296153
  H   1.43788381192202      0.80254600794452      0.25788934564015
  H   -1.13731037335845     -0.89442343513784      0.10620077777901
  C   1.31825063981392     -1.05443530447564     -0.82526247380892
  N   1.77228613990015     -1.91066932719334     -1.49233826943968
  N   -1.15020470163950      0.91895046879158      1.11559275901548
  H   -1.94873234278663      0.62752835353077      1.65291370531133
  H   -0.56672168057049      1.59186405251173      1.58696712553719
