9
Coordinates from ORCA-job run
  C   0.80944918296484     -0.17903792822323      0.14159905853774
  C   -0.50859313017785      0.09464095042630      0.28565653684847
  H   1.54628861094615      0.18787931968253      0.85012917993182
  H   -1.21614234564055     -0.28233951505022     -0.44816216867993
  C   1.27648241434821     -0.94760190650558     -0.95967861288506
  N   1.67036290637002     -1.58661919084099     -1.86569336625629
  N   -1.05926572372204      0.89225628029848      1.25553498344642
  H   -0.48912053565631      1.08499830478845      2.06350747708258
  H   -2.02946137943247      0.73582368542426      1.46810691197426
