9
Coordinates from ORCA-job run
  C   0.44249868487209     -0.95237869909888      0.10811628694329
  C   -0.54386160252910     -0.33798104378280      0.80839657957814
  H   0.60543990855918     -2.01686228043772      0.20647337988866
  H   -1.16473216589321     -0.92917932995696      1.47525015206472
  C   1.27383894119408     -0.19947644690255     -0.76543001978931
  N   1.93242549949522      0.48058992645611     -1.46576448442400
  N   -0.90211888604022      0.97662037618112      0.70309882452602
  H   -0.25114234731881      1.59393780283117      0.24122034605137
  H   -1.39134803233922      1.38372969471051      1.48063893516112
