9
Coordinates from ORCA-job run
  C   0.59188522652538     -0.59326059857616      0.19644808916043
  C   -0.37570565684755      0.35194876908423      0.25184614662044
  H   0.82581669359583     -1.21702395213651      1.05412020115080
  H   -0.58843683645630      0.95192273203571     -0.62913586551736
  C   1.32659174325394     -0.81307793290740     -1.00086889152178
  N   1.94220648756509     -0.99814895013060     -1.98629395221704
  N   -1.20084378074475      0.59110034512970      1.32051824790415
  H   -0.91105830467216      0.21928717483699      2.21090926184454
  H   -1.61145557221948      1.50725241266405      1.37445676257583
