9
Coordinates from ORCA-job run
  C   0.50743856348596     -0.00561762214930     -0.36708511899898
  C   -0.22710886453376     -0.08413865590433      0.76753413252605
  H   0.49839349217103      0.88497919609001     -0.98860572179493
  H   -0.18657806363819     -0.98834350207417      1.36922396156242
  C   1.33528312737359     -1.08767258788473     -0.77398961402093
  N   2.01864750260281     -1.98083864934487     -1.11983685717778
  N   -0.98898720066139      0.92377698394709      1.29886001321979
  H   -1.73365024779602      0.64926685291786      1.91609030402009
  H   -1.22343830900403      1.68958798440244      0.68780890066428
