9
Coordinates from ORCA-job run
  C   0.79382796075149     -0.27102736694676      0.19867969569522
  C   -0.48635974086201      0.16679085581085      0.24943242617777
  H   1.48473723797932     -0.10112519488375      1.01924647247854
  H   -1.14703180769872     -0.01378690071153     -0.59446960017607
  C   1.28351483135030     -0.95576269519052     -0.94724905608768
  N   1.69466971509716     -1.52777906087747     -1.88962246685241
  N   -1.03887164948094      0.90890200106699      1.26094041031375
  H   -0.54530872799397      0.92237343458956      2.13908534152049
  H   -2.03917781914263      0.87041492714263      1.35395677693039
