9
Coordinates from ORCA-job run
  C   0.73663812834375     -0.39640077528408      0.18995033568932
  C   -0.48624520945809      0.17758720428764      0.27695168355624
  H   1.36491006704144     -0.52907665506384      1.06582916977534
  H   -1.09151686961958      0.28636408634797     -0.61916736733796
  C   1.23536550828597     -0.86426109854494     -1.05669440503032
  N   1.65838269957377     -1.24925326961384     -2.08485808842008
  N   -1.09894161694118      0.58410904399039      1.43464884726403
  H   -1.80880628772775      1.29015162286790      1.34180040963764
  H   -0.50978641949833      0.70077984101281      2.24353941486579
