9
Coordinates from ORCA-job run
  C   0.76830512655978     -0.33272160113617      0.19336743951673
  C   -0.50410835256867      0.11942956156479      0.28782695834180
  H   1.45429039586725     -0.27709777784888      1.03382580383857
  H   -1.16449899677861      0.04149771819009     -0.57185502587711
  C   1.24707065752788     -0.91315975688684     -1.01306751814668
  N   1.65306958545067     -1.38943903564709     -2.00941217512185
  N   -1.09465315838591      0.61743842033106      1.42097088957928
  H   -1.88080754210376      1.22939967992919      1.28447033442613
  H   -0.47866771556863      0.90465279150385      2.16487329344312
