9
Coordinates from ORCA-job run
  C   0.74357720424142     -0.38773146098937      0.20161921173166
  C   -0.49212757455741      0.15971149215747      0.27977902682310
  H   1.41214818404219     -0.40346907486976      1.05733421546916
  H   -1.13767957207529      0.15015255802227     -0.59445407377304
  C   1.20205230407305     -0.97964022673257     -1.00707492177328
  N   1.59092191136723     -1.46705038490198     -2.00482109988564
  N   -1.06788602259570      0.67813119977052      1.41122062276333
  H   -1.80278895067274      1.35021771560976      1.27277357853226
  H   -0.44921748382275      0.90067818193366      2.17462344011245
