9
Coordinates from ORCA-job run
  C   0.72532628675157     -0.42499225389059      0.21955876669822
  C   -0.47516405423485      0.19972420740098      0.25493139219021
  H   1.29130366197092     -0.61909297531102      1.12590391702483
  H   -1.01722304633933      0.36892968543154     -0.67176157091062
  C   1.28076157640773     -0.86480911940868     -1.01328300330424
  N   1.75006815290899     -1.22665666515313     -2.02969636119199
  N   -1.14183180168805      0.58882214372069      1.38844265354031
  H   -1.81319845705661      1.32964288824840      1.28114282454713
  H   -0.60004231872036      0.64843208896180      2.23576138140614
