9
Coordinates from ORCA-job run
  C   0.41492744934842     -0.97407193494667      0.16044859568205
  C   -0.63271596184538     -0.31099785099098      0.71155704901244
  H   0.50055325812401     -2.04726676443063      0.26174178288688
  H   -1.38079182380277     -0.87213492535253      1.26390971350269
  C   1.41204365022524     -0.26150264261586     -0.55999841528859
  N   2.20823555186941      0.38650565736979     -1.13693165968247
  N   -0.89691875742378      1.02318468144731      0.57796770888732
  H   -1.47701665282201      1.44953694388693      1.27890087672834
  H   -0.14931671367315      1.60674683563263      0.23340434827135
