9
Coordinates from ORCA-job run
  C   0.37994498151077     -0.95500998750353      0.04998263378704
  C   -0.64236184834846     -0.32891241923901      0.68395300370802
  H   0.39569677572707     -2.03305256592013     -0.03404010383779
  H   -1.45503257465333     -0.92348430397888      1.09089425523176
  C   1.45093226473466     -0.20467990084047     -0.50700667256183
  N   2.34193905704143      0.42522684914388     -0.94894947967988
  N   -0.72921210370077      1.01151176412051      0.93571555678883
  H   -1.64585736274234      1.39339818536690      1.08875751907657
  H   -0.09604918956902      1.61500237885072      0.43269328748728
