9
Coordinates from ORCA-job run
  C   0.77442995604914     -0.10647606285365     -0.01269046684965
  C   -0.51114766178116      0.03465002659660      0.38803212396466
  H   1.58623387796370      0.40920300444839      0.49137955888194
  H   -1.29846033203187     -0.49004230246929     -0.14673805272664
  C   1.10326111293446     -0.92498751775483     -1.12788508004928
  N   1.38514018239307     -1.60321193151829     -2.04700279889222
  N   -0.95122770185318      0.86046206888209      1.38993852961904
  H   -0.25819282396740      1.19807840685813      2.03880571936334
  H   -1.83003660970677      0.62232430781085      1.81616046668880
