9
Coordinates from ORCA-job run
  C   0.61208246024932     -0.57252820140186      0.19739983569593
  C   -0.39787345596384      0.32703849812738      0.25478524968843
  H   0.94837638325192     -1.10631006409167      1.08138686971749
  H   -0.71346602612089      0.83504006888836     -0.65275189422881
  C   1.25705778929861     -0.86430656557299     -1.03582970840815
  N   1.79984141848296     -1.10762985751986     -2.05105657804000
  N   -1.14526813885645      0.62249687007899      1.36581300169138
  H   -0.76474873692377      0.34450833913205      2.25635004335828
  H   -1.59500169341786      1.52169091235962      1.37690318052546
