9
Coordinates from ORCA-job run
  C   0.36414572978097     -0.95551274845812     -0.00238191682788
  C   -0.69014305744769     -0.33058854382960      0.57984048757785
  H   0.33552213709986     -2.01939755015484     -0.19390560863314
  H   -1.56804091458562     -0.91282032278637      0.84470817938528
  C   1.52253444168937     -0.21476746149378     -0.36361152164636
  N   2.44862679301498      0.45624988903508     -0.64434246950474
  N   -0.73686238750264      0.98346667873121      0.95204399168879
  H   -0.03041642067682      1.59335194143858      0.56824526179636
  H   -1.64536632137240      1.40101811751783      1.05140359616384
