9
Coordinates from ORCA-job run
  C   0.76600025138362     -0.31180812429313      0.13370547523518
  C   -0.46955233086008      0.21842692244677      0.29195436285294
  H   1.47272257723664     -0.36058561607176      0.95692346749592
  H   -1.14702342204975      0.25758938932649     -0.55708258099297
  C   1.18750187974392     -0.81043477024915     -1.12937994762754
  N   1.54247401422908     -1.23032886255198     -2.16958132905290
  N   -0.94943663250090      0.80271950726710      1.43574743198784
  H   -1.94901137024735      0.83016643644933      1.54070115293343
  H   -0.45367496693517      0.60425511767634      2.29001196716810
