9
Coordinates from ORCA-job run
  C   0.45994335580277     -0.95249914995912      0.15077693566131
  C   -0.51360863403571     -0.31810393709466      0.85135908543445
  H   0.65581202303417     -2.00370259275912      0.31162514167056
  H   -1.08984907913750     -0.87966617309799      1.58100072231879
  C   1.23408961046351     -0.23767752946206     -0.80347609453114
  N   1.84417035483331      0.41272116304353     -1.57256119344275
  N   -0.91250816216900      0.97728327325187      0.67678595323938
  H   -0.29848162284216      1.57899604217416      0.14844749405241
  H   -1.38056784594939      1.42164890390339      1.44704195559700
