9
Coordinates from ORCA-job run
  C   0.47027630094663     -0.95231481013333      0.18340278861009
  C   -0.63055334868900     -0.34169684536134      0.68964739479276
  H   0.56948631732187     -2.02837939107048      0.22373238944412
  H   -1.41598784070016     -0.94890939401084      1.13018138875919
  C   1.50765158149486     -0.17895390075989     -0.40532051071130
  N   2.32693797207705      0.51731717069508     -0.88552222053718
  N   -0.82940154398481      1.00740892569634      0.77645623169793
  H   -0.22133346888826      1.59759467709041      0.22846080243066
  H   -1.77807596957816      1.32993356785404      0.84996173551374
