9
Coordinates from ORCA-job run
  C   0.47006330544530     -0.94749027479533      0.15348075321423
  C   -0.47464175047059     -0.31055098583222      0.89038277520738
  H   0.63896477732359     -2.00861799611639      0.27505283062971
  H   -1.06421277317105     -0.88269243643438      1.60077592774044
  C   1.24861836069154     -0.22279571585568     -0.78986635719989
  N   1.85446998287432      0.43176013235705     -1.55873550860493
  N   -0.71975771326687      1.03373408595923      0.88966559543067
  H   -0.32877198252438      1.57141810279824      0.13057569417680
  H   -1.62573220690186      1.33723508791948      1.20066828940558
