9
Coordinates from ORCA-job run
  C   0.44416634913115     -0.96460646982477      0.18390907902524
  C   -0.64354863229377     -0.32465531220980      0.68211635140138
  H   0.54974189782920     -2.03524029854627      0.29329713723338
  H   -1.40459054542078     -0.90162393824185      1.19948038108307
  C   1.45798301813847     -0.23072910379247     -0.49031648562958
  N   2.26532976788469      0.43434656427189     -1.03119838771672
  N   -0.93164403917544      1.00266840678527      0.53109970246888
  H   -1.55472825094005      1.41740903280646      1.20154818256684
  H   -0.18170956515347      1.60243111875153      0.22106403956753
