9
Coordinates from ORCA-job run
  C   0.41019455419110     -0.22035746323745     -0.39526477139026
  C   -0.13497787232448      0.11332548907226      0.79810778151389
  H   0.00709475480085      0.16106209279716     -1.32882494059520
  H   0.29829236750928     -0.28185112518578      1.71329277377124
  C   1.54406892668058     -1.07532785620855     -0.46473969723672
  N   2.47974185873180     -1.78541336023711     -0.53198592339704
  N   -1.17104704328845      0.99153354588746      0.98676850679222
  H   -1.73139437618464      1.21282218793459      0.17924636646214
  H   -1.70097317011605      0.88420648917740      1.83439990407973
