9
Coordinates from ORCA-job run
  C   0.18789503345578     -0.88193473603406     -0.26416520003948
  C   -0.75946056317084     -0.23929303264499      0.46414366097857
  H   -0.03916521588066     -1.81626381692564     -0.75881821122620
  H   -1.75250377691543     -0.67300831079587      0.53774212230450
  C   1.49339335422526     -0.33174850925688     -0.38267525689982
  N   2.55273959349129      0.17837594958174     -0.44761840256413
  N   -0.57044909163058      0.89431514786507      1.20347321899767
  H   0.27085949331454      1.42259623630329      1.02689274589610
  H   -1.38230882688936      1.44796107190733      1.41302532255279
