9
Coordinates from ORCA-job run
  C   0.39066672630662     -0.97501421867442      0.11303549330524
  C   -0.50654286994526     -0.29581452405256      0.87075960911459
  H   0.52853475780468     -2.03923691353260      0.24630070380916
  H   -1.07933208647256     -0.83507526949796      1.61960131533900
  C   1.15938846904498     -0.29168231452874     -0.86853610730946
  N   1.76927071808720      0.33251236838122     -1.65915509594113
  N   -0.83256451967819      1.02510634105441      0.73626715796631
  H   -0.20272730346965      1.59661005401758      0.19303835464942
  H   -1.22669389167782      1.48259447683307      1.53968856906688
