17

C	0.0	0.0	0.0
C	-0.415418	-0.156949	-1.529683
Cl	1.776012	0.0	0.0
H	-0.301018	0.873217	-1.897806
C	-0.643271	1.192201	0.639893
H	-0.340792	1.287625	1.681718
H	-0.35365	2.090931	0.090315
H	-1.732193	1.0076	0.561415
N	-0.379166	-1.264995	0.75732
O	-0.621958	-1.161661	1.953812
O	-0.35591	-2.315908	0.123413
N	-1.723968	-0.629908	-1.869244
H	-1.733407	-1.631916	-1.715668
H	-2.456314	-0.247237	-1.180403
C	0.56086	-0.963895	-2.290886
N	1.265266	-1.599352	-2.983963
F	-3.244448	0.0	0.0
