17

C	0.0	0.0	0.0
C	-0.707578	0.133296	-1.338649
Cl	1.77898	0.0	0.0
H	-1.828275	0.097512	-0.932643
C	-0.480269	1.082909	0.943787
H	-1.572904	1.009657	0.944749
H	-0.070867	0.923241	1.94126
H	-0.144751	2.052658	0.570847
N	-0.356766	-1.376189	0.603466
O	-1.068507	-1.39243	1.600321
O	0.121053	-2.364472	0.057382
N	-0.466138	-0.942343	-2.281531
H	-1.218466	-0.954854	-2.95544
H	0.410292	-0.818809	-2.7718
C	-0.418868	1.454892	-1.898203
N	-0.200424	2.480522	-2.435487
F	-2.945433	0.0	0.0
