17

C	0.0	0.0	0.0
C	-0.420656	-0.085994	-1.533331
Cl	1.778546	0.0	0.0
H	-0.329371	0.963137	-1.850762
C	-0.649246	1.155648	0.697003
H	-0.350749	1.200612	1.743286
H	-1.737226	0.969559	0.606368
H	-0.364778	2.081815	0.192202
N	-0.372707	-1.303618	0.694785
O	-0.328671	-2.323677	0.013518
O	-0.631503	-1.258658	1.8914
N	-1.723743	-0.565094	-1.886806
H	-2.459216	-0.215067	-1.185348
H	-1.717857	-1.571671	-1.772158
C	0.562021	-0.836368	-2.343062
N	1.263827	-1.425987	-3.078031
F	-3.250766	0.0	0.0
