17

C	0.0	0.0	0.0
C	-0.468211	0.06661	-1.460334
Cl	1.792885	0.0	0.0
H	-0.183697	-0.888027	-1.919287
C	-0.386653	1.190175	0.854734
H	0.131678	1.146938	1.812099
H	-1.4639	1.167592	0.981634
H	-0.075957	2.079481	0.305294
N	-0.411321	-1.308268	0.641263
O	-0.531822	-1.320823	1.860229
O	-0.515287	-2.288193	-0.089296
N	0.189464	1.213016	-2.11623
H	-0.407893	1.453896	-2.89941
H	1.089497	0.921941	-2.480133
C	-1.940531	0.24187	-1.688929
N	-2.655182	0.493441	-2.607788
F	-2.592097	0.0	0.0
