15

C	-0.327668	-0.006706	-1.503966
C	0.0	0.0	0.0
F	0.142685	1.188329	-2.029636
H	1.096794	0.0	0.0
C	0.40518	-1.110178	-2.158821
N	0.882492	-2.003494	-2.752372
C	-1.806285	-0.100181	-1.835457
H	-2.323461	0.737685	-1.362843
H	-1.946723	-0.045495	-2.917138
H	-2.221558	-1.038582	-1.464692
C	-0.488073	-1.209812	0.630371
N	-0.887147	-2.197582	1.129751
C	-0.545698	1.185208	0.629413
N	-0.978961	2.156486	1.13219
F	2.432395	0.0	0.0
