15

C	-0.24781	0.02523	-1.52385
C	0.0	0.0	0.0
F	0.094283	-1.233797	-2.003972
H	1.09733	0.0	0.0
C	-1.667699	0.236348	-1.871091
N	-2.794447	0.418333	-2.152761
C	0.671971	1.045221	-2.164281
H	1.666787	0.843459	-1.751642
H	0.362253	2.058594	-1.899968
H	0.646687	0.928138	-3.249616
C	-0.569588	-1.173367	0.634465
N	-1.019149	-2.125996	1.156362
C	-0.468654	1.230359	0.611793
N	-0.837938	2.243076	1.08274
F	2.499958	0.0	0.0
