15

C	-0.231856	-0.050275	-1.514938
C	0.0	0.0	0.0
F	-1.582692	-0.239632	-1.829573
H	1.097456	0.0	0.0
C	0.158623	1.248469	-2.095872
N	0.462406	2.282343	-2.56243
C	0.604321	-1.167504	-2.10942
H	0.207209	-2.124147	-1.761785
H	1.620011	-1.026862	-1.729221
H	0.567924	-1.136238	-3.199427
C	-0.475516	-1.22159	0.625734
N	-0.837869	-2.226234	1.117142
C	-0.564981	1.176327	0.632748
N	-1.007624	2.138448	1.143617
F	2.486293	0.0	0.0
