15

C	-0.244797	0.030788	-1.524808
C	0.0	0.0	0.0
F	0.101744	-1.224957	-2.008845
H	1.097333	0.0	0.0
C	-1.665689	0.238021	-1.875108
N	-2.792584	0.417798	-2.159762
C	0.67124	1.058071	-2.159257
H	1.665782	0.858819	-1.745675
H	0.355953	2.068546	-1.890772
H	0.646166	0.946481	-3.245551
C	-0.570594	-1.176209	0.628623
N	-1.020208	-2.131833	1.14522
C	-0.469108	1.227617	0.616636
N	-0.839664	2.237689	1.091624
F	2.499426	0.0	0.0
