15

C	-0.329825	-0.027337	-1.503073
C	0.0	0.0	0.0
F	0.147953	1.156213	-2.047635
H	1.096899	0.0	0.0
C	0.394536	-1.145735	-2.141894
N	0.864258	-2.050048	-2.723764
C	-1.809581	-0.113732	-1.832253
H	-2.31906	0.736933	-1.37429
H	-1.951249	-0.077052	-2.914587
H	-2.232632	-1.041303	-1.444182
C	-0.490079	-1.200017	0.647028
N	-0.892455	-2.179766	1.159311
C	-0.543365	1.194538	0.61431
N	-0.972637	2.174432	1.103942
F	2.433082	0.0	0.0
