15

C	-0.24699	0.031247	-1.523703
C	0.0	0.0	0.0
F	0.097467	-1.225511	-2.00812
H	1.097285	0.0	0.0
C	-1.667959	0.238626	-1.868991
N	-2.794478	0.417922	-2.14892
C	0.670838	1.057885	-2.158152
H	0.358236	2.070507	-1.890442
H	0.646723	0.946582	-3.244906
H	1.66573	0.854085	-1.743134
C	-0.570212	-1.177076	0.627161
N	-1.019927	-2.133575	1.141905
C	-0.468316	1.227021	0.618354
N	-0.836642	2.237293	1.094516
F	2.498811	0.0	0.0
