15

C	-0.266156	0.015402	-1.518144
C	0.0	0.0	0.0
F	0.144327	-1.218519	-2.009121
H	1.097339	0.0	0.0
C	-1.701953	0.136614	-1.844689
N	-2.843238	0.237848	-2.107792
C	0.580405	1.096066	-2.16235
H	0.20934	2.086061	-1.888982
H	1.590213	0.95054	-1.764669
H	0.551554	0.985362	-3.247776
C	-0.552226	-1.177661	0.642313
N	-0.975605	-2.141431	1.165907
C	-0.477343	1.224963	0.614052
N	-0.86002	2.230749	1.088491
F	2.491533	0.0	0.0
