15

C	-0.238799	-0.0223	-1.513813
C	0.0	0.0	0.0
F	-1.589951	-0.219723	-1.824092
H	1.097486	0.0	0.0
C	0.132374	1.288851	-2.079698
N	0.397084	2.312478	-2.590062
C	0.605307	-1.118251	-2.135553
H	0.224124	-2.086253	-1.803283
H	1.623776	-0.974601	-1.761222
H	0.558865	-1.066197	-3.224688
C	-0.470161	-1.233981	0.605634
N	-0.820156	-2.24676	1.089088
C	-0.565127	1.163218	0.656431
N	-1.005243	2.11312	1.191453
F	2.486337	0.0	0.0
