14
Coordinates from ORCA-job run
  C   -0.39849410467368     -0.67819961391884     -0.21796650312710
  C   0.64965367088040      0.42822759900340     -0.11700477007111
  Br  -0.27111656042939     -1.83558467160344      1.34116404760963
  H   0.62645004624687      1.00626994632825     -1.04807183855707
  H   -0.13041465798028     -1.30119694486797     -1.07215478457846
  C   -1.79889167913524     -0.11016820120266     -0.35283774538421
  H   -1.85454963103225      0.53957834411467     -1.23204638954140
  H   -2.07703938465921      0.46637792655566      0.53089073137145
  H   -2.51943908659569     -0.91901886490204     -0.47674299506501
  N   2.04012005692997     -0.17821923153551     -0.08334805785070
  O   2.30910604604438     -0.87705169727933     -1.05342249248191
  O   2.76221252483318      0.06803772123965      0.87204259756281
  C   0.44214638391504      1.31757539636362      1.01763297472945
  N   0.22225637565591      2.07237229170454      1.88986522538363
