16

C	-0.605968	0.009949	-1.390378
C	0.0	0.0	0.0
Br	0.52988	1.240007	-2.555364
H	1.093954	0.0	0.0
N	-0.467279	-1.321153	-2.092803
O	-1.201199	-1.5027	-3.060883
O	0.376887	-2.10206	-1.66771
N	-1.950764	0.379302	-1.388675
H	-2.297777	0.539054	-2.324424
H	-2.019395	1.208807	-0.809111
C	-0.507612	-1.117092	0.774445
N	-0.88447	-1.986589	1.472128
N	-0.348356	1.291882	0.635963
H	-0.73048	1.121747	1.558359
H	0.549953	1.760684	0.767331
H	2.575081	0.0	0.0
