16

C	-0.364651	-0.042659	-1.47338
C	0.0	0.0	0.0
Br	-2.309287	-0.283227	-1.765069
H	1.095359	0.0	0.0
N	0.032607	1.313675	-2.066813
O	-0.787238	2.218953	-2.115515
O	1.210556	1.381791	-2.400134
N	0.342363	-1.050549	-2.198421
H	-0.014799	-1.955347	-1.912238
H	1.320334	-0.977762	-1.897464
C	-0.407168	-1.256496	0.625371
N	-0.74279	-2.248321	1.162616
N	-0.412903	1.196242	0.690694
H	0.281224	1.404964	1.399561
H	-1.326254	1.103777	1.114172
H	2.613897	0.0	0.0
