16

C	-0.569783	-0.006487	-1.401793
C	0.0	0.0	0.0
Br	0.571475	1.228444	-2.55
H	1.104959	0.0	0.0
N	-0.400476	-1.344225	-2.087551
O	-1.107523	-1.543876	-3.073342
O	0.44198	-2.109935	-1.636417
N	-1.924807	0.346529	-1.448248
H	-2.01493	1.225125	-0.949766
H	-2.246661	0.434407	-2.404414
C	-0.476086	-1.139777	0.764868
N	-0.841345	-2.020608	1.456578
N	-0.360193	1.275687	0.632883
H	0.512169	1.654135	1.005169
H	-0.999358	1.123404	1.404226
H	2.556461	0.0	0.0
