16

C	-0.270673	-0.083727	-1.497405
C	0.0	0.0	0.0
Br	-2.130728	-0.666433	-1.989775
H	1.096042	0.0	0.0
N	-0.174773	1.37462	-2.070134
O	-1.132578	2.126437	-1.981882
O	0.919422	1.657471	-2.551506
N	0.664209	-0.95686	-2.03246
H	1.589197	-0.772074	-1.604954
H	0.702359	-0.935873	-3.041398
C	-0.428082	-1.226044	0.664237
N	-0.771347	-2.162727	1.28812
N	-0.411225	1.220955	0.648974
H	-1.308959	1.13028	1.102892
H	0.297259	1.454512	1.334832
H	2.629175	0.0	0.0
