16

C	-0.172007	-0.042641	-1.522165
C	0.0	0.0	0.0
Br	-2.093657	-0.147464	-2.064339
H	1.093286	0.0	0.0
N	0.326664	1.264446	-2.182952
O	0.519888	2.239534	-1.461872
O	0.487197	1.237086	-3.394135
N	0.579371	-1.086867	-2.117513
H	0.207975	-1.978606	-1.80971
H	1.531571	-0.985062	-1.721171
C	-0.416125	-1.306295	0.504
N	-0.741262	-2.362128	0.907507
N	-0.563715	1.043857	0.817379
H	-1.51812	1.23409	0.530458
H	-0.012288	1.876678	0.664796
H	2.644856	0.0	0.0
