13
Coordinates from ORCA-job run
  C   -0.31990721459187      1.24348425429977      0.52113830031457
  C   0.16758167033285     -0.18499176002737      0.33555449796736
  F   -1.44970069243919      1.19989779638964      1.32331436464403
  H   0.40749876901803     -0.61881431169064      1.30671087763380
  H   0.43432234814881      1.85427602430220      1.02292603624809
  H   -0.58810220462215      1.69213854072583     -0.43535651060041
  N   1.46432196408395     -0.13285126427417     -0.40721071104911
  O   2.42310389260470     -0.73549561115540      0.06891202032417
  O   1.46864841852606      0.50547775899890     -1.45992234879927
  C   -0.81634933187453     -1.04785385179603     -0.43109102960435
  H   -1.76091565973370     -1.08044386923811      0.11264155589684
  H   -0.43813212424769     -2.06642519297178     -0.53556049733181
  H   -0.99236983520528     -0.62839851356284     -1.42305655564392
