11
Coordinates from ORCA-job run
  C   0.28311546490249     -0.24951802650866     -0.38165555110644
  C   -0.73949630993944      0.14693169749848      0.39325251923721
  H   0.07115413692687     -0.83494702811631     -1.27681748044307
  H   -0.54377240126523      0.72553859830460      1.29460360796430
  C   1.72065880065920      0.04363014811484     -0.06941841946550
  H   2.29444202964315     -0.87424552751066      0.09332761519216
  H   1.80754201828809      0.65191157610038      0.83444501094431
  H   2.20820753555534      0.58627710449487     -0.88517046882319
  N   -2.08830894232750     -0.19562675798404      0.22710472463599
  H   -2.72121346870773      0.55231198745919      0.46730560853115
  H   -2.29232886373525     -0.55126377185270     -0.69597716666690
