11
Coordinates from ORCA-job run
  C   0.35462735982805      0.56963781962431     -0.62880242458202
  C   -0.89879690614091      0.65365255287010     -0.14878859195564
  H   0.65279002123457      1.27460298346526     -1.39659896239645
  H   -1.58078256791072      1.41453073059777     -0.51853109034125
  C   1.35345224436032     -0.43606111709710     -0.12618413800948
  H   1.52594130142299     -0.32938647348511      0.95054373737637
  H   2.31639110483755     -0.32141970826845     -0.62480313382646
  H   1.02242055425890     -1.46731591324377     -0.30093249595392
  N   -1.41007768040732     -0.11510017373595      0.90166545139337
  H   -0.92861440178647     -0.99183836231234      1.03662169345734
  H   -2.40735102969697     -0.25230233841473      0.85580995483814
