11
Coordinates from ORCA-job run
  C   0.36064544122784      0.54537519541123     -0.64725267239281
  C   -0.89886531676482      0.64386519182710     -0.18622015209749
  H   0.66664055085545      1.21904109113076     -1.43961150974735
  H   -1.57806701625339      1.38676571041405     -0.59553253179529
  C   1.35591384683039     -0.43594014536324     -0.09188159819849
  H   1.03095296212964     -1.47441793914229     -0.23209805004272
  H   1.51218849919784     -0.28801725069495      0.98241689555199
  H   2.32565644175876     -0.33645674405890     -0.58046007922622
  N   -1.42028318791207     -0.08335622596519      0.88817915275680
  H   -2.41667692901957     -0.22469893634750      0.83755367794313
  H   -0.93810529205006     -0.95215994721107      1.06490686724844
