11
Coordinates from ORCA-job run
  C   0.38039979524037      0.49657040569521     -0.67429912400522
  C   -0.93772950628363      0.45777723986012     -0.41044763702147
  H   0.71982407943128      1.14725461074201     -1.47229329447595
  H   -1.63346491217052      1.05673285876306     -0.99177843877733
  C   1.38445419910887     -0.34041709212115      0.06946015460116
  H   1.40481771159731     -0.10278275247900      1.14034007136175
  H   2.39349784675413     -0.18103234838639     -0.31186222061725
  H   1.16334704839243     -1.40973127674773     -0.02064288851761
  N   -1.54645311255792     -0.39200681445311      0.51853826595706
  H   -0.92699068094078     -0.70659138467338      1.25064947769642
  H   -2.40370246857154     -0.02577344619965      0.90133563379844
