11
Coordinates from ORCA-job run
  C   0.29785950814102     -0.44686647685842      0.01736436298954
  C   -0.75670932578426      0.37954409697609     -0.07513047774699
  H   0.12199246914827     -1.51856730288150      0.11487205411877
  H   -0.59716028784201      1.45132100714686     -0.18195927682164
  C   1.72233655744282      0.01987731467408     -0.03518403534690
  H   2.27727786682547     -0.27647015377549      0.86030123589179
  H   1.77369741560438      1.10873996101573     -0.11425785321224
  H   2.25371133673092     -0.39952444802768     -0.89540694741986
  N   -2.10354927016843      0.00151722919976     -0.15643459283373
  H   -2.26326840478006     -0.95116501764073      0.13843452842758
  H   -2.72418786531813      0.63259379017130      0.32740100195367
