14

C	0.0	0.0	0.0
C	-0.512884	-0.559815	-1.310861
F	1.366014	0.0	0.0
H	-1.609381	-0.595194	-1.255296
H	-0.127465	-1.571742	-1.441465
N	-0.514163	1.250684	0.295672
H	-1.537081	1.195683	0.219506
H	-0.264932	1.516781	1.239848
N	-0.274536	-1.055968	1.130608
O	-0.319721	-2.24269	0.82714
O	-0.324733	-0.60722	2.271316
C	-0.072896	0.274801	-2.423396
N	0.270872	0.921464	-3.3398
Cl	-3.517189	0.0	0.0
