14

C	0.0	0.0	0.0
C	-0.545191	-0.189584	-1.402438
F	1.367621	0.0	0.0
H	-1.592878	-0.494526	-1.313745
H	-0.530095	0.79219	-1.881133
N	-0.51683	1.138667	0.61178
H	-0.285544	1.115015	1.598785
H	-1.539485	1.102852	0.512332
N	-0.266411	-1.296151	0.83687
O	-0.114575	-1.172657	2.04917
O	-0.533682	-2.335164	0.248629
C	0.223297	-1.118583	-2.221051
N	0.827564	-1.801472	-2.960872
Cl	-3.541271	0.0	0.0
