14

C	0.0	0.0	0.0
C	-0.500763	0.231172	-1.410281
F	1.388536	0.0	0.0
H	-0.102368	-0.551465	-2.056448
H	-1.597622	0.160583	-1.392645
N	-0.522152	0.879313	0.929293
H	-1.54446	0.884871	0.809193
H	-0.302989	0.559421	1.866282
N	-0.247804	-1.508126	0.374426
O	-0.319693	-1.750201	1.57469
O	-0.252208	-2.340779	-0.525411
C	-0.065872	1.535302	-1.898253
N	0.281543	2.564339	-2.34344
Cl	-3.521277	0.0	0.0
