14
Coordinates from ORCA-job run
  C   0.84374209501347      0.07772647845764     -0.26069618488143
  C   -0.48091496182411     -0.12815139087804      0.06736235037757
  C   1.49872149626606      1.30361240344985      0.03598023788743
  N   1.99000640644739      2.33853113523948      0.30465876134462
  N   1.67197501209081     -0.91953751227585     -0.89681194173639
  O   1.16350375044361     -2.01671125348596     -1.17058031769116
  O   2.83925837648307     -0.62140665282794     -1.13342653594919
  C   -1.24706986475331      0.95303857624571      0.77556602036131
  H   -2.27443409592765      0.98568237465317      0.40641909720162
  H   -0.79551953646022      1.93268744085166      0.63531934596873
  H   -1.27151254231988      0.74144527639745      1.84850460037968
  N   -1.16668989939318     -1.24734625167107     -0.20027072032636
  H   -2.09492869562093     -1.35832668877477      0.16868783236229
  H   -0.67613754044512     -2.04224393538133     -0.58171254529872
