14
Coordinates from ORCA-job run
  C   0.84755553773853      0.07360494374971     -0.23913341655968
  C   -0.47815714114496     -0.13995731015986      0.07968148407787
  C   1.49494583936993      1.29707152180658      0.08174151568100
  N   1.97761463650785      2.32845193175103      0.37827510204292
  N   1.66197264407894     -0.88385658276699     -0.94850886419935
  O   1.15675519224243     -1.97610573720874     -1.24695489863864
  O   2.81639539411284     -0.56143052315736     -1.21414575214229
  C   -1.23149466600453      0.91943063784990      0.83321592242381
  H   -1.13717437254021      0.73909255286990      1.90749142513082
  H   -2.29159734634296      0.89001091215813      0.57226408474366
  H   -0.84830783491919      1.91619160897029      0.62392362612596
  N   -1.14322459852731     -1.27849568103308     -0.15470469772186
  H   -2.13355365522296     -1.31561396943005      0.01134806856363
  H   -0.69172962934840     -2.00839430539946     -0.68549359952784
