14
Coordinates from ORCA-job run
  C   0.73708773225500      0.05144364612733     -0.54009437498109
  C   -0.49276417809651     -0.10321125459787      0.05813260485642
  C   0.91249433817206     -0.33357185350794     -1.89581288652879
  N   0.90261357180934     -0.69282429608504     -3.01726321635636
  N   1.91145758559414      0.57139975945251      0.12399342971470
  O   1.80342188053246      0.99201106101979      1.27642300902501
  O   2.95488565580513      0.55897742504670     -0.52730938716660
  C   -0.80392012377053      0.23494616042368      1.48564200720947
  H   -0.11604332045747     -0.26509606209284      2.16527659062469
  H   -1.82967541882490     -0.05174111792563      1.72541608910946
  H   -0.68534735350822      1.30503253431843      1.65470723937920
  N   -1.53720374310512     -0.53880636803645     -0.68062768420575
  H   -1.38624311822755     -0.88300636179232     -1.61736538452124
  H   -2.37176350817782     -0.84455327235035     -0.21211803615912
