14
Coordinates from ORCA-job run
  C   0.76523124323330      0.10180790566805     -0.44056076893277
  C   -0.42186237835178     -0.15399479999543      0.21431182552087
  C   1.27390242988413      1.42207630791939     -0.57924324686523
  N   1.65008276710335      2.53341461521750     -0.66770467500157
  N   1.61335122384014     -0.93465890295062     -0.98451757653483
  O   2.66647184374158     -0.58728873581144     -1.51139359564356
  O   1.23418537751659     -2.11121678813616     -0.89393418079651
  C   -1.23543750313834      0.98179508043145      0.76679460156545
  H   -1.44742068053697      0.80241763863276      1.82439687449838
  H   -0.72774961352823      1.93831508774133      0.67337400170324
  H   -2.18810236436123      1.03930056953667      0.23364518022945
  N   -0.96874384600272     -1.37014903467520      0.35351812878525
  H   -1.77343684729925     -1.48062879999928      0.94572784440651
  H   -0.44147165210056     -2.18019014357901      0.06458558706533
