14
Coordinates from ORCA-job run
  C   0.78135631112272      0.01093851024268     -0.47739761008079
  C   -0.42211898520165     -0.24284257515958      0.14073964200788
  C   1.30129039984924     -0.92158664708470     -1.41359882370816
  N   1.59865687458203     -1.78222335875790     -2.16038811012799
  N   1.57629222253570      1.20000387139133     -0.26591267651313
  O   2.58586110863396      1.31005701091142     -0.96010886492115
  O   1.20831898816506      2.01622636324533      0.57975896253679
  C   -1.09097156761534      0.66856158068242      1.12596898308135
  H   -1.22326841945966      1.66611083994048      0.70997690665429
  H   -0.47402714190886      0.78422078116116      2.01656693817476
  H   -2.06144251400137      0.26074755100121      1.41502980261966
  N   -1.05058955897749     -1.41604803618017     -0.09083316357584
  H   -0.71985208458927     -2.03346167459182     -0.81739583824788
  H   -2.00750563313506     -1.52170421680186      0.19659385210021
