14
Coordinates from ORCA-job run
  C   0.74696365515252      0.07696277648792     -0.52343664527504
  C   -0.50469268730151      0.00360477706856      0.04489985442183
  C   0.87045320390255      0.25777268120854     -1.92654943088403
  N   0.81040711611056      0.40602230729071     -3.09325074249202
  N   1.98850338459283     -0.02299516712628      0.21037852631541
  O   1.94527186690367     -0.18254823088296      1.43077932383359
  O   3.02059274327316      0.06107083873725     -0.45337422494450
  C   -0.77498257800639     -0.19896560917013      1.50620787839032
  H   -0.34363540392513      0.61388465934709      2.08958487861660
  H   -0.31103966586871     -1.11696620131235      1.86355758718506
  H   -1.85057552341743     -0.23749463005256      1.68818611952688
  N   -1.59494266451837      0.17788459388240     -0.73305324232396
  H   -1.50260344869324      0.21896183018481     -1.73725359390399
  H   -2.50071999820452     -0.05619462566300     -0.36667628846615
