14
Coordinates from ORCA-job run
  C   0.77691636788601      0.09404331606094     -0.42145769604981
  C   -0.42495576952664     -0.15097433443351      0.21007673000805
  C   1.28458630631324      1.41275294072531     -0.57767129239393
  N   1.65805139097088      2.52360068901941     -0.68260813909266
  N   1.63729945069087     -0.95124612913104     -0.92787392283031
  O   2.70118944936335     -0.61237117459051     -1.43840922134915
  O   1.25714629532348     -2.12636718866421     -0.82362344810774
  C   -1.25343364106719      0.99465161452152      0.71888964541553
  H   -1.51767045360201      0.82031003533502      1.76556372799489
  H   -2.17901627692619      1.05907730311104      0.14049111464187
  H   -0.73263305465566      1.94597401335297      0.64666927460726
  N   -0.97345079670232     -1.36499428677639      0.36035925030806
  H   -1.79355467550925     -1.46569718675092      0.93261188903705
  H   -0.44047459255855     -2.17975961177962      0.09598208781089
