14
Coordinates from ORCA-job run
  C   0.82993173323160      0.10767796491814     -0.29213895981522
  C   -0.47029653155049     -0.15223899907057      0.09074036684891
  C   1.40744305650083      1.39546060093175     -0.12542652762483
  N   1.83169143385606      2.48118831727150      0.03486560694051
  N   1.71024417499720     -0.88882398681119     -0.85555982173889
  O   1.27106832340104     -2.03775209663166     -1.01165871965598
  O   2.84923571890163     -0.53857788225063     -1.15084955677135
  C   -1.29063972241484      0.93854012109066      0.71931643883340
  H   -2.32920137759162      0.86268045554049      0.38997400183778
  H   -1.26361691565333      0.83557405641556      1.80788257493462
  H   -0.91592193146901      1.92774687875251      0.46554427351644
  N   -1.08503572670580     -1.33373058335607     -0.05333948162799
  H   -1.99538575286467     -1.46909725112409      0.35036585214590
  H   -0.55051648263860     -2.12764759567641     -0.37271604782331
