14
Coordinates from ORCA-job run
  C   0.72134724032785      0.04865898101262     -0.56194887694315
  C   -0.46966516995990     -0.16446835326628      0.09389923904950
  C   0.87221767842544     -0.38711021639771     -1.90513733879552
  N   0.84669888115198     -0.80506579156830     -3.00584550503905
  N   1.86205879140092      0.72588142868409      0.01291363081569
  O   2.81262063889049      0.92663838770527     -0.74162141692270
  O   1.82163952783318      1.05183305356696      1.19984289268865
  C   -0.76988499367739      0.27377797221697      1.49620781112852
  H   -0.11686549246516     -0.23921068105682      2.20181560809167
  H   -0.58538759279517      1.33943879448922      1.62067068162838
  H   -1.80951749905531      0.05245425597343      1.74474829738023
  N   -1.44756630540736     -0.86472311719791     -0.52173242477226
  H   -2.37511182527855     -0.85371556526561     -0.13598380792455
  H   -1.36058387939102     -1.10638914889593     -1.49782879038541
