14
Coordinates from ORCA-job run
  C   0.79873493497630      0.20378627975891     -0.40722487223642
  C   -0.49196297649925     -0.06463808137999     -0.02318473876332
  C   1.10720217148699      0.45016855139483     -1.77098521036353
  N   1.23358657965131      0.63126759311164     -2.92786136109159
  N   1.92963742210930      0.27521931728072      0.50056039922650
  O   2.93027398913799      0.85449586690736      0.08054571654090
  O   1.82790238261662     -0.24672195176342      1.61113157094878
  C   -0.96450312362331     -0.30743985692142      1.37996086228074
  H   -1.98135277426722      0.07698862982672      1.48307536541781
  H   -0.32033332578143      0.14999552148283      2.12049376610166
  H   -0.98842883872186     -1.38239540105997      1.56311724138499
  N   -1.47199461316082     -0.08411129462891     -0.95933806874228
  H   -2.37279173746012     -0.45252420510120     -0.70976661258983
  H   -1.23397009046449     -0.10409096890809     -1.93952405811440
