14
Coordinates from ORCA-job run
  C   0.74148803301875      0.10487804501729     -0.53122893628028
  C   -0.50222739418747     -0.01877515372026      0.04317976235521
  C   0.85763302587074      0.26547300238355     -1.93644135519159
  N   0.80174635585626      0.37575550027546     -3.10715342877172
  N   1.98038374241993      0.09880219694753      0.21394817182954
  O   2.98108553944929      0.48822818905239     -0.38398625749163
  O   1.96341646850377     -0.29976903934387      1.37997599587318
  C   -0.75956183228482     -0.18461094114116      1.51041284714997
  H   -1.82178757137761     -0.04780028564705      1.72243543705830
  H   -0.18131259971604      0.52443935635726      2.09809549788595
  H   -0.44904324039422     -1.17888425521398      1.83409231732174
  N   -1.60026391000861      0.03246367109709     -0.74090786724290
  H   -2.49918214262066     -0.20113833446263     -0.35867059016335
  H   -1.51237447452930      0.04093804839838     -1.74575159433242
