14
Coordinates from ORCA-job run
  C   0.75725151746269      0.09894415984085     -0.50472977420581
  C   -0.49118001928533     -0.11946414916488      0.03187515980009
  C   0.94325436044974      0.00990810913359     -1.90990920246309
  N   0.94043030243457     -0.09797274433110     -3.08258291364719
  N   1.93111211085400      0.44401007859757      0.26523844081399
  O   1.84753836353865      0.47160493797393      1.49355301419239
  O   2.95134413843580      0.68693036149414     -0.37774011082200
  C   -0.82971716482243     -0.02566692274039      1.48984881882077
  H   -0.53961713651757      0.94150991714969      1.89685529579272
  H   -0.28123927083790     -0.77864085105246      2.05515891800896
  H   -1.90048653434898     -0.17800568757699      1.63784315003426
  N   -1.50187304782357     -0.50235512836839     -0.77968272951196
  H   -1.38089798405501     -0.48681038113201     -1.78165270681684
  H   -2.44491963548466     -0.46399169982355     -0.43507535999630
