14
Coordinates from ORCA-job run
  C   0.72567000012606      0.15243523166116     -0.53698236771769
  C   -0.49326644617486     -0.10450354679186      0.04827551325797
  C   0.86105764726386      0.06076062432506     -1.94767295119776
  N   0.81673815538305     -0.05279532649509     -3.11899976894335
  N   1.92634142633455      0.49931132116233      0.19026181200467
  O   1.85601470715330      0.65793689831995      1.40946629296093
  O   2.95249920537875      0.61529343751889     -0.47810331582047
  C   -0.76413976411480     -0.06995575669807      1.52284247268726
  H   -0.60927648075901      0.93565523759682      1.91306272835834
  H   -0.07793130966813     -0.72091438863006      2.06197313576546
  H   -1.79244495959825     -0.37617125622554      1.72404750113630
  N   -1.56384133770803     -0.35667330315431     -0.73703588642936
  H   -1.44226215674372     -0.49984739900556     -1.72868691354882
  H   -2.39415868687279     -0.73953177358370     -0.32044825251348
