14
Coordinates from ORCA-job run
  C   0.72240278205983      0.10858473044195     -0.55551864510009
  C   -0.49857389117501     -0.06011679688760      0.05768745925425
  C   0.78341671417274      0.32666410818897     -1.95690100151145
  N   0.68076270929721      0.50040673892539     -3.11695996326253
  N   1.98645124576405      0.15312168082382      0.14504193296154
  O   2.96015105687016      0.51664635838523     -0.51200601606297
  O   2.01470564457308     -0.16673221360603      1.33408247134039
  C   -0.70227774720851     -0.24820213886283      1.53243593884580
  H   -0.18061782069938      0.51654499349659      2.10340795287965
  H   -1.76694577480308     -0.21309110155734      1.77028366466927
  H   -0.29028812279232     -1.20478627160159      1.85367651668360
  N   -1.62359026452138     -0.01598553922822     -0.68517351960731
  H   -1.57574904679162      0.04087225799923     -1.69059253373099
  H   -2.50884748474578     -0.25292680651759     -0.27646425735917
