14
Coordinates from ORCA-job run
  C   0.79446179441046      0.10920953104818     -0.44202254950506
  C   -0.42191864398996     -0.26878716471960      0.07934666816396
  C   1.35726971063416     -0.62680173164576     -1.51818065771226
  N   1.69202306647642     -1.33047519260692     -2.40115881801264
  N   1.56403997486836      1.24453632891809      0.01547218300590
  O   2.59209110927368      1.49321977321917     -0.61270778788518
  O   1.15860897700327      1.88344145390968      0.98714981233997
  C   -1.13720024598903      0.43620032698348      1.19321216775229
  H   -0.55001504276265      0.38997323322066      2.11000739430460
  H   -1.27258017386629      1.49192911750512      0.96439333358699
  H   -2.10960711858529     -0.02778412016433      1.36839090488084
  N   -1.02203164145059     -1.38688431526267     -0.38522130275877
  H   -1.98633171614218     -1.55344784117882     -0.15739224589757
  H   -0.65781004988035     -1.85632939922626     -1.20128910226308
