14
Coordinates from ORCA-job run
  C   0.84064541268787      0.09699284903798     -0.25147284283939
  C   -0.46969667099766     -0.16121318347808      0.09675749270396
  C   1.41505867844642      1.38048117556122     -0.04735354387645
  N   1.83138311119324      2.46302547337472      0.15098493701591
  N   1.70439009654486     -0.87055082049938     -0.88318656214404
  O   1.25811533276245     -2.00928271809614     -1.08772359752985
  O   2.83959905445561     -0.50996684136592     -1.18125617814762
  C   -1.27422712455206      0.91924369940712      0.76272467830205
  H   -2.33932567833310      0.77738022612343      0.56806605695577
  H   -0.98443907378647      1.90959964269210      0.41605725167680
  H   -1.11358168605661      0.88086488412689      1.84344102815707
  N   -1.07001492725576     -1.35181494126396     -0.02834693140652
  H   -2.05675727771640     -1.42783094004721      0.14541982036680
  H   -0.58214924739240     -2.09692850557276     -0.50311160923450
