14
Coordinates from ORCA-job run
  C   0.75503059082689      0.03980370003911     -0.51595037343093
  C   -0.48170319408583     -0.14576027295813      0.05852422066708
  C   0.96596020348337     -0.33933106712253     -1.86829608489253
  N   0.98797033037930     -0.70243039670444     -2.98828434405071
  N   1.88986233033599      0.63168525443530      0.15681856424423
  O   1.78788846279437      0.91915300761635      1.34997687994584
  O   2.89721197224669      0.80623423418101     -0.52716364161812
  C   -0.84463304117339      0.23759795177924      1.46227658005361
  H   -0.63044878842445      1.28877513631554      1.64785443227768
  H   -1.90312717913569      0.04194925900455      1.64383203631552
  H   -0.24977248293378     -0.33162467000888      2.17622024214219
  N   -1.45265982156571     -0.76638959268485     -0.64772455111136
  H   -2.40008713012045     -0.72115180299106     -0.31637701107545
  H   -1.32049225262731     -0.95851074090120     -1.62970694946703
