14
Coordinates from ORCA-job run
  C   0.75122267648961      0.03757481748220     -0.52183555232985
  C   -0.50233535626233     -0.05163000448586      0.03931522336594
  C   0.88947902302085      0.04579258754416     -1.93517612935110
  N   0.84360358149515      0.03931491769845     -3.11189522097057
  N   1.97981936279946      0.14918691151169      0.23206708365262
  O   3.00850533491323      0.30436162962249     -0.42434665553350
  O   1.93016629498992      0.07964837823318      1.46072262651927
  C   -0.78902018215370     -0.04038031184144      1.51132032086639
  H   -0.34996628121296      0.83384839271747      1.98886945767985
  H   -1.86689431208864     -0.04905263915036      1.68460849379514
  H   -0.34419115695553     -0.91264039363334      1.98991025087387
  N   -1.57605499123408     -0.21936304549484     -0.76405605565016
  H   -1.47849450020281     -0.13447031245249     -1.76505813532917
  H   -2.49583949359817     -0.08219092775132     -0.38344570758874
