14
Coordinates from ORCA-job run
  C   0.72843301668103     -0.00612392960406     -0.55444651251941
  C   -0.49052387452490     -0.10027461935793      0.07796509769612
  C   0.83530457626394     -0.34893410452560     -1.92848251236552
  N   0.76526020936894     -0.66716196144397     -3.06019665084845
  N   1.94751802127596      0.44491733665393      0.07903633446885
  O   2.93882237351500      0.52472352235926     -0.64491022611029
  O   1.92658326967810      0.71667331916336      1.27993747854131
  C   -0.74447572454727      0.25072608363244      1.51380273514313
  H   -0.43788561728385      1.27383976413276      1.72532740568610
  H   -0.15759112356706     -0.39087579048059      2.17050706511106
  H   -1.80355265577479      0.12984439925736      1.74910521990530
  N   -1.55052575655972     -0.59317087827321     -0.59956753943365
  H   -2.47148778486645     -0.48089192014759     -0.21407118283882
  H   -1.48687892965894     -0.75329122136616     -1.59400671243574
