14
Coordinates from ORCA-job run
  C   0.79067552467694     -0.01453312033700     -0.46122256701271
  C   -0.43380101070863     -0.22685048544273      0.13030755024592
  C   1.29709977535568     -0.96327718289406     -1.38866899334745
  N   1.58161939098953     -1.83341594809587     -2.12946173646031
  N   1.62478175629413      1.14269597415164     -0.22514927681441
  O   1.27126660099934      1.96582184102374      0.61990488964958
  O   2.65102059250391      1.21995244155715     -0.89898265529590
  C   -1.09318407856247      0.70580676385436      1.10217527172207
  H   -0.49322200545563      0.79564570279166      2.00749608840752
  H   -1.17807941368614      1.70826322290177      0.68596865723179
  H   -2.08510655456436      0.33451495966169      1.36653236403049
  N   -1.09713171080214     -1.37799628183939     -0.11711766465589
  H   -0.77041089779236     -2.00724481206232     -0.83549629837024
  H   -2.06452796924783     -1.44938307527065      0.14471437066953
