14
Coordinates from ORCA-job run
  C   0.76286240406663     -0.03762872862450     -0.50467679764189
  C   -0.49288287735607     -0.10277777621431      0.05466307500397
  C   0.96208768458271     -0.48148754044114     -1.83889509901985
  N   0.97008817862824     -0.88442510476610     -2.94544916943393
  N   1.93304344957171      0.48157327578375      0.16780785774135
  O   1.83764796303734      0.81878581661947      1.34835943518331
  O   2.96172221657329      0.54691307686732     -0.50359843623633
  C   -0.84376086496655      0.35762353232408      1.43816497877843
  H   -0.31340337855361     -0.23788928549807      2.18098757942422
  H   -0.54141469909376      1.39150088337391      1.59536727121958
  H   -1.91821071120133      0.26112335560739      1.60510040495859
  N   -1.50020760664137     -0.67000085176125     -0.64562335663135
  H   -2.44588683544981     -0.53461799813765     -0.33436122407113
  H   -1.36968492319743     -0.90769265513291     -1.61784651927498
