14
Coordinates from ORCA-job run
  C   0.77824136454104      0.15320316551047     -0.39012234797360
  C   -0.43643103132902     -0.18624082241425      0.16996348092757
  C   1.33109644094168      1.45159114057452     -0.22332844266040
  N   1.73795547402926      2.54170621930483     -0.04796719640703
  N   1.55464805539584     -0.74169508044880     -1.21504617708298
  O   2.60269280609751     -0.31190562649552     -1.68855842950540
  O   1.12546810387343     -1.89014503983632     -1.39947800615693
  C   -1.15759234742026      0.81688062059432      1.02499657946117
  H   -0.87085292219435      0.67614675147718      2.07072396665166
  H   -0.91604724472409      1.83971213940852      0.74310515215655
  H   -2.23794175633499      0.67697627438165      0.94456441448064
  N   -0.99890825601631     -1.39945211032239      0.08997770042422
  H   -0.57528775828840     -2.09547303642016     -0.50537644311987
  H   -1.93704092857133     -1.53030459531405      0.42554574880440
