16

C	0.0	0.0	0.0
C	-0.244773	0.192348	-1.537625
F	1.354164	0.0	0.0
H	0.37754	1.059382	-1.764039
H	-0.426432	0.850277	0.559451
N	-0.604474	-1.177454	0.588136
O	-0.372197	-1.31928	1.814912
O	-1.763192	-1.374723	0.025861
C	-1.601191	0.367737	-2.186105
H	-1.438711	0.592111	-3.247226
H	-2.129959	1.19328	-1.715913
H	-2.200272	-0.52547	-2.066874
N	0.485818	-0.918446	-2.260004
O	-0.128919	-1.954353	-2.506493
O	1.659449	-0.711414	-2.578538
H	-2.805253	0.0	0.0
