16

C	0.0	0.0	0.0
C	-0.241267	0.05217	-1.537728
F	1.354194	0.0	0.0
H	0.197337	1.009578	-1.829193
H	-0.414114	0.907198	0.470143
N	-0.60878	-1.097356	0.718758
O	-1.781733	-1.352483	0.205913
O	-0.32747	-1.141509	1.94415
C	-1.577654	-0.117471	-2.22456
H	-1.947715	-1.127439	-2.074962
H	-1.446939	0.108234	-3.28982
H	-2.310481	0.550995	-1.772013
N	0.691497	-0.941166	-2.179637
O	1.392204	-0.53039	-3.108169
O	0.655729	-2.102263	-1.787323
H	-2.859827	0.0	0.0
