16

C	0.0	0.0	0.0
C	-0.310679	0.056897	-1.5315
F	1.354295	0.0	0.0
H	0.237966	0.928935	-1.880217
H	-0.425946	0.875855	0.517824
N	-0.517313	-1.188219	0.629586
O	-0.000828	-1.554178	1.722759
O	-1.77234	-1.374435	0.24401
C	-1.698149	0.032945	-2.12906
H	-1.579133	0.041789	-3.220946
H	-2.218527	-0.863838	-1.811849
H	-2.280165	0.886468	-1.809985
N	0.38368	-1.064249	-2.243529
O	0.134423	-2.214858	-1.902081
O	1.09582	-0.757635	-3.208903
H	-2.942445	0.0	0.0
