15

C	0.0	0.0	0.0
C	-0.508161	0.238455	-1.450518
Cl	1.785315	0.0	0.0
H	-1.601929	0.064427	-1.38431
N	-0.482985	0.976372	0.92544
H	-0.231022	1.907219	0.610291
H	-1.506357	0.880726	0.939337
C	-0.396987	-1.336708	0.477731
N	-0.598085	-2.410739	0.908603
N	0.071177	-0.73047	-2.438765
O	-0.246904	-1.904396	-2.275948
O	0.810807	-0.296877	-3.319573
C	-0.221412	1.602859	-1.861757
N	0.009716	2.724973	-2.122005
Cl	-3.386471	0.0	0.0
