16

C	0.0	0.0	0.0
C	-0.48489	0.080342	-1.458176
Br	1.959149	0.0	0.0
H	-1.572346	0.127156	-1.29633
H	-0.243827	0.943534	0.501821
N	-0.580413	-1.155733	0.611397
H	-1.609	-0.904492	0.476547
H	-0.389238	-1.126645	1.608495
N	-0.179826	-1.112846	-2.244985
H	0.829724	-1.242407	-2.23621
H	-0.560556	-1.897366	-1.72453
C	-0.015439	1.322791	-2.191125
H	1.055777	1.28575	-2.414618
H	-0.558292	1.402588	-3.136232
H	-0.210447	2.22306	-1.599878
F	-2.854411	0.0	0.0
