16

C	0.0	0.0	0.0
C	-0.42982	-0.098117	-1.509976
Br	1.959806	0.0	0.0
H	0.467998	0.075772	-2.110502
H	-0.199699	1.031624	0.31547
N	-0.605571	-0.980623	0.838815
H	-1.622945	-0.790793	0.645587
H	-0.438141	-0.718076	1.806014
N	-1.411046	0.906921	-1.899128
H	-2.204107	0.751756	-1.248278
H	-1.020178	1.825299	-1.708238
C	-0.981813	-1.475766	-1.852457
H	-0.3198	-2.275396	-1.515414
H	-1.952693	-1.573713	-1.36699
H	-1.116788	-1.535554	-2.936101
F	-2.965635	0.0	0.0
