16

C	0.0	0.0	0.0
C	-0.594282	0.183421	-1.440342
Br	1.959613	0.0	0.0
H	-1.385347	0.916279	-1.259702
H	-0.216415	0.917805	0.546221
N	-0.544517	-1.082968	0.755272
H	-1.55393	-0.807455	0.755
H	-0.495005	-1.897431	0.148173
N	-1.230388	-1.075409	-1.8408
H	-2.104736	-1.01356	-1.297827
H	-1.483905	-0.987652	-2.821198
C	0.343935	0.694135	-2.520593
H	-0.236465	0.91269	-3.424718
H	1.102136	-0.051473	-2.766766
H	0.850235	1.612945	-2.218176
F	-2.908288	0.0	0.0
