12

C	-0.607848	0.04164	-1.383419
C	0.0	0.0	0.0
F	-0.15821	-1.06925	-2.094898
H	1.090133	0.0	0.0
H	-0.356785	0.860965	0.574063
H	-0.351689	-0.921748	0.478023
N	-2.050752	0.019144	-1.377957
H	-2.398199	-0.145079	-0.445223
H	-2.465559	0.853413	-1.764327
C	-0.168226	1.232863	-2.153075
N	0.154604	2.204023	-2.722987
H	3.025646	0.0	0.0
