14

C	-0.183937	0.128457	-1.531062
C	0.0	0.0	0.0
Cl	-0.081352	-1.583929	-2.281881
H	1.095758	0.0	0.0
H	-1.173274	0.456239	-1.859676
N	0.846014	0.989237	-1.950113
H	1.72668	0.716672	-1.480369
H	0.937622	1.042909	-2.95378
N	-0.564834	-1.179946	0.635662
H	0.179342	-1.634888	1.14875
H	-1.2971	-0.931735	1.284339
C	-0.470971	1.237329	0.612572
N	-0.893723	2.190114	1.158813
F	2.646282	0.0	0.0
