14

C	-0.165718	0.104006	-1.529326
C	0.0	0.0	0.0
Cl	-0.081857	-1.65918	-2.242028
H	1.103006	0.0	0.0
H	-1.153019	0.410535	-1.881156
N	0.878222	0.922642	-1.963567
H	0.984319	0.958132	-2.965326
H	1.749237	0.665682	-1.462973
N	-0.668638	-1.147869	0.624646
H	-0.552931	-1.034534	1.626131
H	-0.113514	-1.958782	0.373939
C	-0.503183	1.236197	0.582185
N	-0.902204	2.224004	1.078865
F	2.66554	0.0	0.0
