14

C	-0.439217	-0.052191	-1.455612
C	0.0	0.0	0.0
Cl	0.149197	1.446536	-2.336221
H	1.09323	0.0	0.0
H	0.096848	-0.872062	-1.935122
N	-1.85177	-0.236327	-1.594305
H	-2.114973	-0.281234	-2.572833
H	-2.328419	0.556382	-1.17815
N	-0.355833	-1.241931	0.695171
H	0.461895	-1.839357	0.634948
H	-1.151987	-1.687755	0.253713
C	-0.612356	1.143903	0.666871
N	-1.142706	2.060803	1.179903
F	2.556544	0.0	0.0
