14

C	-0.112265	0.004438	-1.530038
C	0.0	0.0	0.0
Cl	-1.77359	-0.542255	-2.117356
H	1.099161	0.0	0.0
H	-0.06943	1.035334	-1.898198
N	0.901914	-0.87209	-2.027108
H	1.751325	-0.674868	-1.462011
H	1.083746	-0.686947	-3.004624
N	-0.420767	-1.218292	0.675284
H	0.336325	-1.882766	0.563707
H	-1.242499	-1.600644	0.217384
C	-0.609654	1.184585	0.581353
N	-1.102747	2.147314	1.04185
F	2.637163	0.0	0.0
