16

C	-0.345158	0.07002	-1.474834
C	0.0	0.0	0.0
F	-0.148269	-1.263193	-2.019783
H	1.09506	0.0	0.0
H	-0.329478	0.943089	0.445506
N	-1.715763	0.419404	-1.745011
H	-2.292716	-0.357186	-1.443757
H	-1.83352	0.506019	-2.749432
N	0.545222	0.967566	-2.118659
H	0.559443	0.777075	-3.114395
H	1.484513	0.808413	-1.743899
C	-0.56886	-1.19665	0.741483
H	-1.665931	-1.20361	0.760772
H	-0.220247	-1.184902	1.777715
H	-0.22373	-2.12398	0.283697
H	3.082362	0.0	0.0
