16

C	-0.365579	0.131509	-1.468242
C	0.0	0.0	0.0
F	-1.69621	0.666642	-1.571783
H	1.093696	0.0	0.0
H	-0.361847	-0.953605	0.403825
N	0.462421	1.055343	-2.210919
H	1.4257	0.804161	-1.977119
H	0.307005	1.978389	-1.821586
N	-0.295011	-1.119793	-2.129704
H	-0.891727	-1.796994	-1.679945
H	-0.558179	-0.991666	-3.09753
C	-0.483978	1.161489	0.857759
H	-1.572868	1.20381	0.932865
H	-0.134109	2.114571	0.451444
H	-0.058551	1.074474	1.860917
H	3.068898	0.0	0.0
