16

C	-0.2643	-0.005686	-1.491394
C	0.0	0.0	0.0
F	-1.645798	-0.065967	-1.756133
H	1.096594	0.0	0.0
H	-0.366661	0.943334	0.415895
N	0.250755	1.211515	-2.045863
H	1.160713	1.373622	-1.617238
H	0.403515	1.048197	-3.035524
N	0.295704	-1.155453	-2.187551
H	-0.14012	-1.99964	-1.83119
H	1.27959	-1.187673	-1.916752
C	-0.558797	-1.194913	0.751309
H	-1.637508	-1.303114	0.6003
H	-0.370199	-1.086403	1.822817
H	-0.067598	-2.120761	0.439033
H	3.018198	0.0	0.0
