16

C	-0.346151	0.224313	-1.466964
C	0.0	0.0	0.0
F	-0.245947	1.59696	-1.711341
H	1.092023	0.0	0.0
H	-0.391116	0.832516	0.590421
N	0.614748	-0.379635	-2.377307
H	0.530938	-1.386648	-2.276082
H	1.547978	-0.153927	-2.015883
N	-1.702952	-0.135855	-1.804872
H	-1.87834	-1.087707	-1.504894
H	-1.767674	-0.111194	-2.817046
C	-0.466815	-1.337093	0.558552
H	-1.555098	-1.400798	0.666113
H	-0.125537	-2.164701	-0.07287
H	-0.017614	-1.498326	1.542273
H	3.079372	0.0	0.0
