16

C	-0.341624	0.201151	-1.472594
C	0.0	0.0	0.0
F	-0.223696	-1.044675	-2.090488
H	1.093631	0.0	0.0
H	-0.388304	-0.966357	0.331195
N	-1.6973	0.637428	-1.703265
H	-1.920073	1.403574	-1.081538
H	-1.74155	0.977389	-2.658496
N	0.615891	1.041886	-2.171618
H	1.550339	0.711419	-1.906909
H	0.547408	1.974506	-1.777493
C	-0.464662	1.124593	0.916611
H	-1.551492	1.150002	1.056826
H	-0.137052	2.099478	0.539985
H	-0.002083	1.005412	1.899708
H	3.07893	0.0	0.0
