16

C	-0.343341	-0.144289	-1.478554
C	0.0	0.0	0.0
F	-0.211782	1.121101	-2.052003
H	1.093631	0.0	0.0
H	-0.387641	0.953993	0.365988
N	0.605745	-0.970516	-2.20671
H	1.541942	-0.653364	-1.932332
H	0.531458	-1.912298	-1.839927
N	-1.705077	-0.554029	-1.722361
H	-1.927353	-1.350683	-1.140681
H	-1.757336	-0.845318	-2.691725
C	-0.466677	-1.156438	0.875868
H	-0.139042	-2.118012	0.465148
H	-1.553912	-1.185835	1.012504
H	-0.006015	-1.072442	1.863893
H	3.075832	0.0	0.0
