13

C	-0.62944	0.007889	-1.360312
C	0.0	0.0	0.0
Br	-0.163611	1.656804	-2.284788
H	1.08728	0.0	0.0
H	-1.71602	-0.045982	-1.359903
H	-0.25309	0.912127	0.541718
N	-0.199631	-1.1392	-2.247895
O	0.834167	-1.730546	-1.976686
O	-0.939334	-1.357761	-3.208443
N	-0.49251	-1.115233	0.778857
O	-0.223202	-1.116179	1.98501
O	-1.084573	-2.041917	0.188501
H	2.54781	0.0	0.0
