13

C	-0.453566	-0.026759	-1.43008
C	0.0	0.0	0.0
Br	0.062195	-1.55055	-2.490148
H	1.089607	0.0	0.0
H	-0.031457	0.848902	-1.920101
H	-0.34649	0.935614	0.440521
N	-1.950286	0.158339	-1.506702
O	-2.671772	-0.800305	-1.265175
O	-2.333422	1.305968	-1.739065
N	-0.511646	-1.073431	0.841798
O	-1.101136	-0.751643	1.883294
O	-0.248887	-2.23516	0.520924
H	2.588162	0.0	0.0
