13

C	-0.510113	-0.010293	-1.40024
C	0.0	0.0	0.0
Br	-0.002133	-1.661731	-2.279088
H	1.090878	0.0	0.0
H	-0.134179	0.812989	-1.999633
H	-0.34168	-0.849612	0.585476
N	-2.017763	0.073577	-1.484019
O	-2.669153	-0.449846	-0.585808
O	-2.482986	0.644556	-2.466559
N	-0.422346	1.211415	0.678748
O	-0.360875	1.221323	1.911236
O	-0.715423	2.198946	-0.017589
H	2.574386	0.0	0.0
