13

C	-0.598078	0.086484	-1.377392
C	0.0	0.0	0.0
Br	0.530902	0.924903	-2.722772
H	1.088572	0.0	0.0
H	-1.527918	0.647218	-1.386389
H	-0.279369	-0.918593	0.514452
N	-0.968088	-1.31246	-1.813454
O	-0.166025	-1.996757	-2.434531
O	-2.081335	-1.679714	-1.432443
N	-0.429399	1.104921	0.817028
O	-0.723649	2.178368	0.258583
O	-0.34018	0.960943	2.046311
H	2.469136	0.0	0.0
