13

C	-0.539953	-0.130041	-1.388009
C	0.0	0.0	0.0
Br	-2.43681	-0.629292	-1.443353
H	1.091065	0.0	0.0
H	-0.00415	-0.939622	-1.884349
H	-0.283738	-0.878882	0.577813
N	-0.297637	1.07991	-2.277973
O	-1.229009	1.78942	-2.624233
O	0.87834	1.211085	-2.594601
N	-0.468012	1.159082	0.728005
O	-0.673035	1.02691	1.943286
O	-0.508148	2.24123	0.125513
H	2.539396	0.0	0.0
