13

C	-0.541981	0.069917	-1.371905
C	0.0	0.0	0.0
Br	0.832194	0.335795	-2.837022
H	1.085762	0.0	0.0
H	-1.225116	0.894609	-1.536139
H	-0.247514	-0.91262	0.532889
N	-1.248707	-1.184992	-1.753264
O	-2.314969	-1.056942	-2.358747
O	-0.728756	-2.257589	-1.455037
N	-0.38855	1.133475	0.783087
O	-0.42734	0.984331	2.017458
O	-0.505329	2.235384	0.212712
H	2.331867	0.0	0.0
