13

C	-0.631211	0.010436	-1.358924
C	0.0	0.0	0.0
Br	-0.138123	1.650353	-2.280379
H	1.087254	0.0	0.0
H	-1.718342	-0.033279	-1.360386
H	-0.251847	0.912835	0.538823
N	-0.212286	-1.144771	-2.242414
O	0.809086	-1.750137	-1.961816
O	-0.952224	-1.364288	-3.19853
N	-0.500729	-1.113233	0.777477
O	-0.221491	-1.122238	1.981151
O	-1.104829	-2.033024	0.187349
H	2.541713	0.0	0.0
