13

C	-0.55291	-0.11105	-1.384567
C	0.0	0.0	0.0
Br	-2.489734	-0.432217	-1.440675
H	1.09104	0.0	0.0
H	-0.092869	-0.973457	-1.869611
H	-0.287029	-0.880901	0.572413
N	-0.199009	1.058911	-2.291441
O	0.985632	1.065278	-2.607977
O	-1.055176	1.852421	-2.64979
N	-0.445861	1.160265	0.744031
O	-0.599684	1.030979	1.967117
O	-0.513873	2.238394	0.137404
H	2.533909	0.0	0.0
