15

C	-0.431271	-0.028862	-1.427063
C	0.0	0.0	0.0
Cl	-0.109411	1.543141	-2.141733
H	1.088051	0.0	0.0
H	-0.321496	0.928133	0.467796
N	0.305399	-1.095798	-2.248224
O	0.332937	-0.940935	-3.461887
O	0.772822	-2.028843	-1.61379
N	-1.935981	-0.30285	-1.626051
O	-2.277738	-1.166336	-2.419396
O	-2.66854	0.409044	-0.954174
N	-0.551306	-1.087866	0.811616
O	-0.305679	-1.042741	2.015104
O	-1.222611	-1.970764	0.267469
F	2.471019	0.0	0.0
