15

C	-0.523692	0.000195	-1.395919
C	0.0	0.0	0.0
Cl	0.230882	1.316213	-2.272703
H	1.090801	0.0	0.0
H	-0.319324	0.916986	0.494886
N	-0.248105	-1.307217	-2.163718
O	-1.222105	-1.958021	-2.520658
O	0.926267	-1.564343	-2.346852
N	-2.055173	0.1797	-1.489227
O	-2.685019	-0.110637	-0.47836
O	-2.525442	0.565343	-2.549422
N	-0.470874	-1.114804	0.820116
O	-0.577138	-2.222871	0.288321
O	-0.658461	-0.892314	2.015385
F	2.469341	0.0	0.0
