15

C	-0.452215	-0.006487	-1.419488
C	0.0	0.0	0.0
Cl	0.309801	-1.22325	-2.387764
H	1.08616	0.0	0.0
H	-0.323668	0.905149	0.505371
N	-1.994222	-0.060736	-1.57906
O	-2.580365	0.744438	-0.862154
O	-2.498923	-0.819609	-2.386873
N	-0.163586	1.377913	-2.051444
O	-0.286283	1.44513	-3.268238
O	0.099778	2.300689	-1.296821
N	-0.541844	-1.129502	0.753884
O	-0.295041	-1.147252	1.958911
O	-1.211608	-1.988966	0.165146
F	2.478494	0.0	0.0
