15

C	-0.569222	0.011464	-1.377633
C	0.0	0.0	0.0
Cl	-2.323955	-0.221104	-1.44339
H	1.089908	0.0	0.0
H	-0.306089	-0.914743	0.502462
N	-0.173233	1.252802	-2.192451
O	1.026317	1.464981	-2.187141
O	-1.040361	1.871301	-2.786465
N	0.024142	-1.167557	-2.159125
O	0.155676	-2.210522	-1.536517
O	0.248815	-0.990623	-3.348713
N	-0.503123	1.115985	0.791125
O	-0.573693	0.950934	2.008289
O	-0.779954	2.173308	0.215555
F	2.460049	0.0	0.0
