15

C	-0.4877	0.001933	-1.410852
C	0.0	0.0	0.0
Cl	0.185982	-1.394275	-2.230739
H	1.090782	0.0	0.0
H	-0.347167	-0.899956	0.504881
N	-2.022889	-0.058516	-1.556042
O	-2.481801	-0.384399	-2.64163
O	-2.665273	0.254927	-0.559827
N	-0.072786	1.261703	-2.202185
O	-0.97237	1.969962	-2.635818
O	1.12649	1.423878	-2.3216
N	-0.447104	1.148398	0.783909
O	-0.53023	2.239868	0.215873
O	-0.636963	0.970152	1.985946
F	2.467581	0.0	0.0
