15

C	-0.491099	0.00456	-1.408852
C	0.0	0.0	0.0
Cl	0.20582	1.388484	-2.231857
H	1.090782	0.0	0.0
H	-0.340266	0.904384	0.502556
N	-0.103484	-1.263971	-2.20053
O	-1.017657	-1.954662	-2.631583
O	1.092622	-1.445211	-2.331876
N	-2.026735	0.092782	-1.545974
O	-2.48663	0.442874	-2.624693
O	-2.668542	-0.210756	-0.546761
N	-0.451414	-1.13956	0.791965
O	-0.657485	-0.947992	1.990175
O	-0.528247	-2.238152	0.235265
F	2.464158	0.0	0.0
