15

C	-0.446432	-0.013183	-1.423605
C	0.0	0.0	0.0
Cl	0.432559	-1.114559	-2.430142
H	1.089617	0.0	0.0
H	-0.348279	0.889364	0.514866
N	-1.97575	-0.218428	-1.578668
O	-2.63434	0.495168	-0.828481
O	-2.40666	-0.992511	-2.411876
N	-0.301176	1.408283	-2.021858
O	-0.053165	2.330172	-1.258299
O	-0.503758	1.495674	-3.225859
N	-0.508815	-1.155935	0.734387
O	-0.407639	-1.114812	1.959707
O	-0.981237	-2.109197	0.105362
F	2.477598	0.0	0.0
