15

C	-0.59156	0.111415	-1.364611
C	0.0	0.0	0.0
Cl	-2.358327	0.264888	-1.380988
H	1.08771	0.0	0.0
H	-0.31609	0.853867	0.594874
N	-0.077257	1.39761	-2.027264
O	0.086458	2.359858	-1.295521
O	0.044549	1.371659	-3.245331
N	-0.153719	-1.012944	-2.311803
O	1.057024	-1.139613	-2.376944
O	-1.003658	-1.638468	-2.919311
N	-0.478314	-1.200851	0.678426
O	-0.688407	-2.211126	0.000547
O	-0.5882	-1.148868	1.903767
F	2.461334	0.0	0.0
