15

C	-0.442269	-0.010695	-1.422929
C	0.0	0.0	0.0
Cl	-0.044969	-1.57275	-2.120466
H	1.088069	0.0	0.0
H	-0.31069	-0.924896	0.484179
N	-1.961345	0.183123	-1.616182
O	-2.65474	-0.552971	-0.929968
O	-2.34964	1.016274	-2.420891
N	0.235344	1.081962	-2.259235
O	0.647552	2.049416	-1.636766
O	0.277751	0.913183	-3.470186
N	-0.572795	1.088731	0.799573
O	-0.264603	1.102183	1.987996
O	-1.334763	1.900793	0.263961
F	2.472878	0.0	0.0
