15

C	-0.525261	0.015897	-1.394251
C	0.0	0.0	0.0
Cl	0.243106	-1.271818	-2.29813
H	1.103269	0.0	0.0
H	-0.312689	-0.925075	0.483592
N	-2.056558	-0.176737	-1.488243
O	-2.68777	0.14391	-0.488141
O	-2.525102	-0.59458	-2.537116
N	-0.26566	1.33949	-2.137718
O	-1.247504	1.96169	-2.52238
O	0.904838	1.634821	-2.280341
N	-0.472188	1.101794	0.83371
O	-0.638617	0.867868	2.029702
O	-0.600382	2.212774	0.313958
F	2.465772	0.0	0.0
