15

C	-0.500232	-0.021799	-1.40312
C	0.0	0.0	0.0
Cl	-2.218544	0.359032	-1.58838
H	1.087771	0.0	0.0
H	-0.2916	0.93927	0.465915
N	0.263458	1.07321	-2.168314
O	0.74744	0.775509	-3.251216
O	0.278568	2.169312	-1.632396
N	-0.168375	-1.321777	-2.149572
O	0.93978	-1.767138	-1.905565
O	-0.987283	-1.756051	-2.944889
N	-0.561961	-1.076476	0.805336
O	-0.516739	-0.932473	2.026771
O	-1.017729	-2.075587	0.23901
F	2.458508	0.0	0.0
