15

C	-0.421397	-0.029857	-1.430399
C	0.0	0.0	0.0
Cl	-0.116308	1.548692	-2.139363
H	1.088071	0.0	0.0
H	-0.322091	0.929552	0.464745
N	0.33585	-1.086592	-2.247735
O	0.40428	-0.913018	-3.457047
O	0.773398	-2.0343	-1.613775
N	-1.918777	-0.325145	-1.645046
O	-2.238457	-1.18292	-2.45442
O	-2.669679	0.366148	-0.97235
N	-0.557026	-1.084	0.812836
O	-1.220431	-1.973394	0.270004
O	-0.325735	-1.026027	2.01841
F	2.470466	0.0	0.0
