15

C	-0.521617	-0.219299	-1.377974
C	0.0	0.0	0.0
Cl	0.19791	0.969331	-2.444264
H	1.103376	0.0	0.0
H	-0.326835	0.978291	0.350701
N	-0.207027	-1.619521	-1.941332
O	-1.160916	-2.341892	-2.198845
O	0.97383	-1.869866	-2.082129
N	-2.05935	-0.10486	-1.49681
O	-2.682816	-0.297802	-0.459509
O	-2.537013	0.127313	-2.597851
N	-0.455135	-0.984364	0.978724
O	-0.670723	-0.584307	2.121011
O	-0.514104	-2.164557	0.626333
F	2.46389	0.0	0.0
