16

C	-0.173779	0.036951	-1.521709
C	0.0	0.0	0.0
F	0.120482	1.424265	-1.866849
H	1.094617	0.0	0.0
N	0.821777	-0.798221	-2.070055
H	0.938694	-0.616245	-3.057802
H	1.695815	-0.58967	-1.560745
N	-1.497694	-0.236078	-1.967247
H	-1.560667	-0.065342	-2.965539
H	-2.098045	0.431212	-1.491978
C	-0.52571	-1.236596	0.554042
N	-0.980253	-2.180809	1.086623
N	-0.658187	1.159817	0.630913
H	-0.047287	1.944091	0.421615
H	-0.596765	1.024121	1.635039
F	2.665178	0.0	0.0
