16

C	-0.150612	-0.034411	-1.535154
C	0.0	0.0	0.0
F	0.069727	1.295072	-1.984956
H	1.096582	0.0	0.0
N	0.864009	-0.899343	-2.022986
H	1.732952	-0.68501	-1.498268
H	1.006441	-0.753274	-3.015418
N	-1.498629	-0.313762	-1.980259
H	-1.527	-0.213517	-2.989876
H	-1.69114	-1.285116	-1.760204
C	-0.528256	-1.237441	0.560589
N	-0.97631	-2.22685	1.011308
N	-0.57609	1.163339	0.649955
H	0.079104	1.921008	0.50204
H	-1.434894	1.405095	0.16524
F	2.656759	0.0	0.0
