16

C	-0.181839	0.028132	-1.523482
C	0.0	0.0	0.0
F	0.133605	-1.274712	-1.958672
H	1.093734	0.0	0.0
N	-1.503681	0.374879	-1.941936
H	-1.496895	0.418027	-2.955462
H	-2.135711	-0.364274	-1.654846
N	0.77962	0.902235	-2.127528
H	0.543012	1.828472	-1.784377
H	1.668145	0.662357	-1.660514
C	-0.637569	-1.149551	0.627329
N	-1.214626	-2.030828	1.153073
N	-0.395108	1.288625	0.56232
H	-1.385422	1.318076	0.770727
H	0.131325	1.435015	1.414106
F	2.621496	0.0	0.0
