16

C	-0.011548	0.131797	-1.531311
C	0.0	0.0	0.0
F	-1.306555	0.297809	-2.032884
H	1.104624	0.0	0.0
N	0.755097	1.308037	-1.840104
H	0.948845	1.271694	-2.835116
H	1.64476	1.169455	-1.343186
N	0.548096	-1.033979	-2.182847
H	1.476547	-1.126978	-1.769483
H	0.014425	-1.857263	-1.918872
C	-0.584871	-1.2591	0.433516
N	-1.045739	-2.282643	0.78148
N	-0.545491	1.134441	0.735468
H	0.222703	1.77027	0.906386
H	-1.194541	1.623671	0.130498
F	2.646382	0.0	0.0
