14
Coordinates from ORCA-job run
  C   0.86856068257234      0.59241221189749     -0.38168385257463
  C   -0.55847469297074      0.08911564045325     -0.52440067896383
  Cl  1.84146656220552      0.20087532983449     -1.79123336264613
  H   -0.95941025920600      0.37790983269049     -1.49562975454970
  H   0.85018771405032      1.67495806567209     -0.26568359046600
  N   1.56864084447402      0.07053778993227      0.85024652000987
  O   2.22964011372352      0.89038262782560      1.47117553302015
  O   1.44381908353803     -1.12417968014580      1.08552379266625
  N   -1.43798279633253      0.70168939563758      0.51910350297638
  O   -0.89913647587170      1.05281373647640      1.56480283404658
  O   -2.62617641547839      0.77438544444325      0.23071426080813
  N   -0.72989517359974     -1.41433051844246     -0.43000412407707
  O   -1.28275511561361     -1.85665821204833      0.56408648709026
  O   -0.30748407149101     -2.02891166422632     -1.39701756734025
