14
Coordinates from ORCA-job run
  C   0.92984550054478      0.19283847465889     -0.32368208426371
  C   -0.38706165796459     -0.46737032273538      0.00013188759795
  Cl  1.94741030756430     -0.92716200173134     -1.21857717659862
  H   -0.28647951633771     -1.38425615359658      0.57372876997311
  H   0.79617537019801      1.10614006632153     -0.89722473417574
  N   1.62671773746819      0.57042558629054      0.96003716774641
  O   2.43244138346223      1.48534275565775      0.87743759995162
  O   1.34402676280287     -0.08746446424028      1.95638288860349
  N   -1.11366817938287     -0.77920205495837     -1.27578548663272
  O   -1.28601049644082      0.17268689115295     -2.03124518039084
  O   -1.46810689431195     -1.93983390289107     -1.43881382183697
  N   -1.28737360596361      0.46547719104626      0.76339160024828
  O   -2.29080399159325     -0.05316644598509      1.23574938621900
  O   -0.95811272004557      1.64554438101020      0.81746918355874
