14
Coordinates from ORCA-job run
  C   0.94876930743672      0.18915898372238     -0.26843231151685
  C   -0.37621396018956     -0.47665753498996      0.00615180380675
  Cl  2.05435552649041     -0.97150751564212     -0.99032093931093
  H   -0.30166184973020     -1.34649769240118      0.65226062862227
  H   0.84357196234464      1.05131098544794     -0.92137384576155
  N   1.53621930060568      0.68322891586170      1.03117545788414
  O   1.18999666329750      0.09687439965377      2.05178454329279
  O   2.32790534272310      1.60919208802419      0.93742243545598
  N   -1.00062564078786     -0.89799073122171     -1.29268706132487
  O   -1.12140452917684     -0.01188549868620     -2.13324922753621
  O   -1.33466255747296     -2.07224453984234     -1.38699830246037
  N   -1.34726051037775      0.48826287677890      0.63043194136111
  O   -1.05468057801960      1.67876084078309      0.59701832190697
  O   -2.36330847714330     -0.02000557748847      1.08681655558076
