14
Coordinates from ORCA-job run
  C   1.01635792965796      0.45818549510127     -0.12819684444797
  C   -0.41498560155232      0.20924399228191     -0.58442534262144
  Cl  2.14991198102829      0.37288319660201     -1.45579108322263
  H   -0.52057948379665      0.40589039870143     -1.65082768807208
  H   1.07649124769317      1.44965589017816      0.32145118734478
  N   1.39940389096523     -0.48788420448360      1.01036220160983
  O   0.48516928260280     -0.70259830722996      1.79721301402623
  O   2.55133911975162     -0.87410830705005      1.08287487804988
  N   -1.41991088655335      1.09452147687215      0.09657318130499
  O   -2.49399235196743      1.17955041694702     -0.48810344804314
  O   -1.09684263753071      1.64946625722217      1.14093874360688
  N   -0.82657023494302     -1.24097944848694     -0.40360542095865
  O   -0.01181758724984     -2.02740415644391     -0.86609279215602
  O   -1.89397466810576     -1.48742270021164      0.12762941357932
