14
Coordinates from ORCA-job run
  C   0.87861987007737      0.47418448008780     -0.15247152036314
  C   -0.54483301702146      0.05023292814755      0.15855536249991
  Cl  1.39906080964641      0.03364925657167     -1.75188458309317
  H   -0.71748685978177      0.03174189997603      1.23387265834184
  H   0.96234212667975      1.55381623243080     -0.02985434647453
  N   1.78673523686741     -0.11349054214525      0.93741057459987
  O   1.46101825179799      0.23377163083064      2.06653873303263
  O   2.72944887549860     -0.81230318002085      0.61730670683024
  N   -0.79286338779510     -1.34419436171098     -0.35182280368340
  O   -1.57049622129360     -1.50281138217115     -1.27890017787852
  O   -0.12436972080256     -2.19050972015537      0.22883449195211
  N   -1.56743787013651      0.97587701224560     -0.42646197814314
  O   -1.19240925705513      1.82326083665518     -1.22919019155794
  O   -2.70832883668140      0.78677490925832     -0.02193292606277
