14
Coordinates from ORCA-job run
  C   0.95658341826598      0.04886322261769     -0.30083798043209
  C   -0.43173791407870     -0.42384162799466      0.05167992826842
  Cl  1.88863766457167     -1.29175084836461     -0.95225240644019
  H   -0.44618788372065     -1.24450158765442      0.76298927769040
  H   0.93762316176552      0.86560342067928     -1.01738935566185
  N   1.63781230149080      0.56250394166268      0.94321799231508
  O   1.25657624942881      0.09773691733112      2.01297708149506
  O   2.52875558668023      1.37906062361402      0.76285731933503
  N   -1.13953570231138     -0.86210440655791     -1.19782749729536
  O   -1.60840942559175     -1.99325614554161     -1.19696362398815
  O   -1.18181732138205     -0.03134793798351     -2.10028299538265
  N   -1.25885186718657      0.69855827135019      0.61580968265584
  O   -0.82124130268796      1.83722034130120      0.48888986364255
  O   -2.31820696524396      0.35725581554053      1.12613271379791
