14
Coordinates from ORCA-job run
  C   0.96020157978106      0.00055341805249     -0.29156808274770
  C   -0.45884074754242     -0.39689887387283      0.03002478557189
  Cl  1.81133014234188     -1.36621882893199     -0.99682863846886
  H   -0.53330953518579     -1.24485776571804      0.70463569241788
  H   1.00062238394963      0.84846943004838     -0.97008680683484
  N   1.66115922769330      0.41323079307128      0.97921069456522
  O   1.23789932790098     -0.06926378893911      2.02496752287142
  O   2.60793795580037      1.17321711977972      0.84106596695968
  N   -1.18033101848965     -0.73388739063728     -1.24292479531728
  O   -1.71049919618318     -1.83611774472774     -1.30012329725320
  O   -1.16905787789623      0.14063057738877     -2.10397372009102
  N   -1.21788232000813      0.75105237462194      0.63692906832276
  O   -0.70655513540464      1.86339557712280      0.56517572885398
  O   -2.30267478675718      0.45669510274161      1.12249588115006
