14
Coordinates from ORCA-job run
  C   0.98969871875259     -0.22668227750712     -0.17169427278598
  C   -0.46553883861992      0.16421479420113     -0.35816552510992
  Cl  1.22216297288171     -1.85812685798860      0.38689090062310
  H   -0.54939999335067      1.10920080553629     -0.88996919428975
  H   1.48927591322581     -0.11279453387521     -1.13565499079908
  N   1.64251623628376      0.81192504355177      0.73919967340032
  O   1.29365625900641      1.96174781911873      0.48993978050128
  O   2.46234571147485      0.44723423335144      1.55894948704467
  N   -1.23045899625057      0.32071417383729      0.91780755044773
  O   -2.34899206618983      0.80039599274649      0.78090723768065
  O   -0.68599123696038     -0.02439600429150      1.96016038223055
  N   -1.13277653769170     -0.88142814132838     -1.21288064624512
  O   -0.72054419154746     -0.90156976557340     -2.36652118289669
  O   -1.96695395101459     -1.61043528177893     -0.69996919980176
