14
Coordinates from ORCA-job run
  C   0.95882460481429      0.18396295249920     -0.33401667274693
  C   -0.35926837982133     -0.49140507681678     -0.03851133202861
  Cl  2.04917035289434     -0.94499890471068     -1.11304595670207
  H   -0.24835207604860     -1.40574253888035      0.53882011849284
  H   0.83197478405866      1.07103972129756     -0.94827564800334
  N   1.53607450877190      0.62917368088314      0.99035889442619
  O   1.70553217216238     -0.24441024428729      1.83289748795716
  O   1.75887841055300      1.83007901231922      1.10282571400067
  N   -1.10109968838715     -0.81282200098039     -1.30403339488289
  O   -1.91128766722850     -1.72920698389925     -1.20859185917345
  O   -0.87112473780063     -0.11777961407497     -2.28650590601788
  N   -1.24282534244613      0.44976690306120      0.73824715532335
  O   -1.50670496087011      1.51122914333451      0.18160423479914
  O   -1.59979198065214      0.07211395025488      1.84822716455582
