14
Coordinates from ORCA-job run
  C   0.90649744220970      0.24712176290928     -0.35183705347310
  C   -0.36628043720240     -0.48382541021053     -0.00417694913809
  Cl  1.93455939765056     -0.78853094431904     -1.33156016486849
  H   -0.20237660756115     -1.41688427888376      0.52718933760666
  H   0.71020296330126      1.17641482694904     -0.87989601585863
  N   1.63819423119528      0.60395378815317      0.91899633365913
  O   2.39627379179038      1.55935150939133      0.84453211773424
  O   1.42790070355806     -0.10781871281947      1.89595735469257
  N   -1.13001233511125     -0.77787328185674     -1.26257933281168
  O   -1.43353180657791     -1.94722966735008     -1.46203690449388
  O   -1.37882863784577      0.19459240067319     -1.96878524201531
  N   -1.27395684718331      0.37678569051291      0.83122192575325
  O   -0.99330849088117      1.56713039713807      0.92267287751674
  O   -2.23433336734228     -0.20418808028738      1.32030171569660
