14
Coordinates from ORCA-job run
  C   0.95678737662565      0.17279625696869     -0.24789047644763
  C   -0.38664988454213     -0.46845235594750     -0.00543795210048
  Cl  2.05027453804887     -1.00202787540522     -0.96502746057771
  H   -0.34266245677051     -1.34744509757693      0.63100536010739
  H   0.88088915117014      1.04482009750565     -0.89191177259801
  N   1.53067392274899      0.63930630008252      1.06738520660061
  O   2.34947446182232      1.54361211330594      0.99849240194417
  O   1.14784831112057      0.05385897980844      2.07548642070890
  N   -0.99351921776776     -0.86143840190436     -1.32154919515046
  O   -1.09317089871775      0.04039870236396     -2.14798374454063
  O   -1.33229693105324     -2.03178957125908     -1.44353220270687
  N   -1.34978157650306      0.50833975599850      0.61109037527835
  O   -2.38581668514800      0.01618411849421      1.03951062488198
  O   -1.03205011103409      1.69283697756520      0.60036241460038
