14
Coordinates from ORCA-job run
  C   0.99569174279301      0.41846701000911     -0.32092214971120
  C   -0.47533029337309      0.15380471690058     -0.56988073096667
  Cl  1.94357564236344     -0.21695759730503     -1.64439879457382
  H   -0.75481178302443      0.53867981121380     -1.55003357696287
  H   1.14006647007743      1.49761103118221     -0.25760081508421
  N   1.45213997369709     -0.12053628651126      1.03230576281412
  O   0.72581323227196      0.23882929459003      1.95084041784055
  O   2.47181129420948     -0.77783327720424      1.10043874497163
  N   -1.35988438030350      0.88147197587911      0.42175982295749
  O   -2.14531948973383      0.22496712974275      1.08384234298769
  O   -1.20091222677073      2.09359110205406      0.41757136535218
  N   -0.83361060757633     -1.29643945927393     -0.55942555173746
  O   -0.17605100581094     -2.03272103240685      0.16713006051674
  O   -1.78317856881955     -1.60293441887031     -1.27162689840415
