14
Coordinates from ORCA-job run
  C   0.90231968464731      0.27865442525965     -0.33873457867163
  C   -0.34172706285537     -0.50171347807887      0.00533904365620
  Cl  2.00591862409066     -0.74046292549991     -1.25170226471763
  H   -0.14664445940054     -1.40564859968896      0.57502896740025
  H   0.67464337220358      1.17583073433102     -0.90811463509639
  N   1.58110019232756      0.71974089205377      0.93442141584239
  O   1.37656210263891      0.03845427791324      1.93421657946715
  O   2.29696153284550      1.70553354898774      0.84057636359693
  N   -1.05740185871061     -0.87827042793059     -1.25965824238273
  O   -1.29745269825150     -2.06778339178231     -1.42320287428167
  O   -1.33596627078878      0.05474495855381     -2.00674720671890
  N   -1.31135984625250      0.34245193434674      0.78595266327238
  O   -2.24994524857115     -0.26866835988627      1.28069084194089
  O   -1.09700806392307      1.54913641142094      0.83093392669277
