14
Coordinates from ORCA-job run
  C   0.89636062195730      0.28148294695798     -0.35170429682137
  C   -0.34125707865471     -0.50171369372124      0.00889946005624
  Cl  1.98586040944288     -0.73353730054475     -1.28627695943248
  H   -0.13566075104469     -1.40666527211212      0.57337870632194
  H   0.65909770115289      1.18075386307512     -0.91380046564096
  N   1.59544177110740      0.71743538469399      0.91230326429445
  O   2.30568821243252      1.70663225587412      0.81206861404461
  O   1.41132109784322      0.02887233971376      1.91093394430178
  N   -1.07606825164041     -0.87555898220789     -1.24537743928797
  O   -1.36559971042592      0.05933502481715     -1.98601355737460
  O   -1.31935362837731     -2.06447291168831     -1.40797330184197
  N   -1.30034528584069      0.33858986684392      0.80710816797971
  O   -1.08159521563532      1.54409689837293      0.86041306367608
  O   -2.23488989231716     -0.27425042007469      1.30704079972455
