14
Coordinates from ORCA-job run
  C   0.98475747712400      0.43514116682094     -0.33052050160788
  C   -0.48218624725956      0.13889599544205     -0.56860480145904
  Cl  1.93793761530544     -0.19683096308833     -1.65183748127594
  H   -0.77438792172855      0.50895046578137     -1.55073974642338
  H   1.10890885850970      1.51747861882921     -0.28044787645357
  N   1.45901289541059     -0.07916056790720      1.02659911482607
  O   0.73103286721389      0.27645832572294      1.94512185022657
  O   2.49237987305933     -0.71455221658056      1.09607001583300
  N   -1.37562484597465      0.85695285383220      0.42135853866367
  O   -2.14481548530459      0.19094152125339      1.09295404687799
  O   -1.24062584316108      2.07194320786635      0.40604186480135
  N   -0.80923413618562     -1.31874108254121     -0.54310316293996
  O   -1.74814985021856     -1.65492292698151     -1.25604313957040
  O   -0.13900525679034     -2.03155439844965      0.19515127850151
