14
Coordinates from ORCA-job run
  C   0.94447089394580      0.24018617869663     -0.23901479182716
  C   -0.35279023950434     -0.49373536300507     -0.00716718702240
  Cl  2.12542958301941     -0.85584541296580     -0.94201230208478
  H   -0.25326971648297     -1.36228999437147      0.63745946168671
  H   0.81319143283415      1.10354581819039     -0.88577250676529
  N   1.47120081718687      0.74839468373226      1.08046460560749
  O   1.13358816326658      0.12989000724892      2.08487462259207
  O   2.21170701084363      1.71838860041970      1.01857500211709
  N   -0.91489388004945     -0.93771749654178     -1.32624411835816
  O   -1.16519886098739     -2.13029154940602     -1.44561411837275
  O   -1.07262057366654     -0.04928254946458     -2.15831022294504
  N   -1.39018236841452      0.41608935657447      0.59204568948318
  O   -2.40181405498441     -0.14456746121147      0.99362887787639
  O   -1.14781820700681      1.61823518210382      0.59808698801265
