14
Coordinates from ORCA-job run
  C   0.96340914787447      0.51305731128626     -0.24355128233314
  C   -0.48772119492187      0.19499314916684     -0.56457113374953
  Cl  2.02950673988141      0.12071800390751     -1.58361785219529
  H   -0.75107950428139      0.60530668919774     -1.53914490313306
  H   1.05177132935683      1.57805576106064     -0.03443509518495
  N   1.46964939600400     -0.18157129997264      0.99817405684602
  O   2.15586418676399      0.50184609432549      1.74417587029826
  O   1.18337326004931     -1.36553896863517      1.11812914184847
  N   -1.39796960445536      0.82400764793020      0.44215982371640
  O   -2.53496862250738      1.05810470452338      0.05153625282594
  O   -0.93450124174898      1.02796818943626      1.56056283106173
  N   -0.83310481028591     -1.28042316732251     -0.62247062728993
  O   -1.53651904924918     -1.72968375059264      0.26780720146666
  O   -0.37771003247995     -1.86384036431138     -1.59375428417760
