14
Coordinates from ORCA-job run
  C   0.99696583700449     -0.12506143945846      0.10110793964310
  C   -0.43665497747851      0.05774841646935     -0.36142409334654
  Cl  1.21233300065831     -1.47707652561928      1.17278959003834
  H   -0.59780482206858      1.06841779296200     -0.73422355843403
  H   1.63860969332326     -0.24964467986419     -0.77093879680458
  N   1.45280783510307      1.19751785620745      0.73440206687232
  O   1.88672937626937      1.19741814634638      1.87076720481248
  O   1.35454336158812      2.15044975680287     -0.02975455236077
  N   -1.38211080816149     -0.14150493302903      0.79348010762271
  O   -2.12222645759665     -1.11179245670058      0.78837508854206
  O   -1.26428072004431      0.71651536863980      1.65962107395806
  N   -0.81307752680551     -0.87677203771192     -1.46995163973708
  O   -1.88183727554837     -0.61506294236936     -2.00884639522016
  O   -0.04499651624321     -1.79215232267502     -1.74440403558590
