14
Coordinates from ORCA-job run
  C   0.84317853510790      0.55152238839181      0.06895464032998
  C   -0.55221255515771     -0.04155767361784      0.13467090110292
  Cl  1.44801628749241      0.71982967782514     -1.55252335774210
  H   -0.75789630414717     -0.43900273772295      1.12768988501321
  H   0.83801235082898      1.52661071112388      0.55563721733522
  N   1.75845223060946     -0.31621320573442      0.94449632223413
  O   1.36845519033003     -0.40136589399930      2.10308820349242
  O   2.76501311330342     -0.79907493712890      0.46147587612000
  N   -0.67243955022290     -1.18840483811139     -0.83325477775192
  O   0.04209579119580     -2.13836942006736     -0.53757412330632
  O   -1.40490365508699     -1.06823046756569     -1.80193653680700
  N   -1.62462441401697      0.96254675028258     -0.15851589363410
  O   -2.75962693433991      0.57469250172997      0.09153784359083
  O   -1.29152008589635      2.05601714459447     -0.60174619997726
