14
Coordinates from ORCA-job run
  C   0.94036712035689      0.53959526894960     -0.27292241300919
  C   -0.51775688380530      0.20032846791025     -0.53565599619144
  Cl  1.94871932676025      0.20520974526480     -1.67240718877317
  H   -0.83368566443415      0.63105494193699     -1.48544433468232
  H   1.01774817600358      1.59988438402408     -0.03744480059714
  N   1.51855315404964     -0.17887977111096      0.92272524809795
  O   1.26727049541325     -1.37304521602473      1.01740645731152
  O   2.22036567782055      0.49905833101972      1.65921351496369
  N   -1.39218065404743      0.78228743503930      0.52955066028437
  O   -0.88020827856728      0.96871607312933      1.62965709971264
  O   -2.55146047176304      0.99960931947614      0.19943106064115
  N   -0.83634964782981     -1.27945931502533     -0.61908303170506
  O   -0.42303847373845     -1.82494786525109     -1.63051181463509
  O   -1.48034387621869     -1.76941179933810      0.29448553858208
