14
Coordinates from ORCA-job run
  C   1.00138560540528     -0.12592778819751     -0.03911694892980
  C   -0.47857460330459      0.09160414528937     -0.29519646115268
  Cl  1.34380228256165     -1.58197265841340      0.84739613986448
  H   -0.68115467693609      1.13433584580314     -0.53621165933532
  H   1.52671850585683     -0.15200650798504     -0.99358969205229
  N   1.53950203106066      1.12606415591360      0.66779900153953
  O   2.11421795385726      1.01019965102608      1.73357479333788
  O   1.34844633303011      2.15343002115556      0.02765825163972
  N   -1.27118288709203     -0.23670220395985      0.94184368773113
  O   -1.03950924332857      0.52552358646414      1.87232835318154
  O   -2.01223413459179     -1.20619477985210      0.92739695127480
  N   -0.99570561556732     -0.72430236954559     -1.44024763649307
  O   -2.12370859976389     -0.41862366681509     -1.80817875052523
  O   -0.27100295118750     -1.59642743088333     -1.90645603008068
