14
Coordinates from ORCA-job run
  C   0.98175254411384     -0.02760701411683     -0.20462666474129
  C   -0.46541550237507     -0.38917449610607      0.01937950023372
  Cl  1.87175453521760     -1.44996473271734     -0.72911270318542
  H   -0.60963192233056     -1.18124492466397      0.74850349552182
  H   1.09312841932439      0.76663816449336     -0.93790862272405
  N   1.57550009163495      0.47325881646048      1.08863581219180
  O   2.54090079176542      1.21412385734892      0.97781454228361
  O   1.05714240569212      0.07282104528419      2.12614524243909
  N   -1.07724415813493     -0.81954944482387     -1.28199154210701
  O   -0.97697170240829     -0.01563561544635     -2.20402324609353
  O   -1.61718293220478     -1.91837375356207     -1.30017622503380
  N   -1.25943341678836      0.80763491827993      0.46658847518231
  O   -2.39181872048366      0.56067056814734      0.86129539777125
  O   -0.72348043302267      1.90640261142227      0.36947653826149
