14
Coordinates from ORCA-job run
  C   0.98774269621930      0.44103090437443     -0.31551206350427
  C   -0.47908789398847      0.15601735148305     -0.56587387206442
  Cl  1.94339655931642     -0.15470729889153     -1.65166458957154
  H   -0.76788300726471      0.55328570100599     -1.53838356806390
  H   1.11443601857972      1.52114033713094     -0.23308154086555
  N   1.45631933293587     -0.11394937228019      1.02732930740675
  O   0.72460360815515      0.21377615392172      1.95329425030580
  O   2.48920189337870     -0.75155737997610      1.08208501388714
  N   -1.37346635496421      0.85090653820109      0.44047814262086
  O   -1.23278597412551      2.06512822530840      0.45989401989710
  O   -2.14910091162699      0.17006269560012      1.08932885033154
  N   -0.81273193552964     -1.30045127028605     -0.58091928694391
  O   -1.75833489196344     -1.61011284640482     -1.29688876181756
  O   -0.14030913912220     -2.03856973918705      0.12991409838196
