14
Coordinates from ORCA-job run
  C   0.99942291802071      0.40950620468208     -0.31941986586726
  C   -0.47660007745672      0.17076939033653     -0.56415018224835
  Cl  1.93032177191901     -0.21837645731815     -1.65859352228938
  H   -0.75604206907692      0.57681622698388     -1.53576234627582
  H   1.16135794633188      1.48510020113634     -0.23987252974271
  N   1.45559575673209     -0.15792209875587      1.02251459977032
  O   0.73709407100212      0.19147007338314      1.95070260636194
  O   2.47029325281615     -0.82434174683873      1.07422618858020
  N   -1.34529523518215      0.89254081541160      0.44520197839359
  O   -2.13965034470982      0.23591484467198      1.09627969475244
  O   -1.16654197310208      2.10169746109142      0.46469414095180
  N   -0.85476280670282     -1.27472242796340     -0.57757210051235
  O   -1.80986028832469     -1.55631840466866     -1.29251195388686
  O   -0.20533292226676     -2.03213408215216      0.13426329201242
