14
Coordinates from ORCA-job run
  C   1.00978093723325     -0.07746553583320     -0.18223952586493
  C   -0.48273619058774      0.15018254229876     -0.34068897326726
  Cl  1.44439840668963     -1.72623808756372      0.16540710180501
  H   -0.68478936121133      1.13970264009241     -0.74431017531548
  H   1.49170998215163      0.22135688129787     -1.11511261852314
  N   1.52777140219965      0.90690177795477      0.86525112579414
  O   2.38986382490521      0.54430585387926      1.64146435340311
  O   1.03608958130133      2.02657103008990      0.76298889813402
  N   -1.26199099018544      0.03956779986315      0.93167947878220
  O   -0.67692629321339     -0.36172217076893      1.93098811459738
  O   -2.43374423131207      0.38321952383143      0.83788859745666
  N   -1.01221075593615     -0.84765592837401     -1.33735110272120
  O   -0.60147942041114     -0.66107983583712     -2.47655588090840
  O   -1.74573689162341     -1.73864649093055     -0.93940939337210
