14
Coordinates from ORCA-job run
  C   -0.81843671515658     -0.05608994854954     -0.35448801840832
  C   0.67760816744071     -0.43198530727015     -0.31284880442790
  Br  -1.93284593763825     -1.59645005629736     -0.71798008416007
  H   0.92990835604486     -0.69033444110128     -1.34738920472609
  C   -1.04040222662933      0.96047125541176     -1.37074125029099
  N   -1.18848808499061      1.74485988408523     -2.23366936001640
  N   -1.26078148355292      0.51623070937668      0.99943756274046
  O   -2.25442311175702      1.22442803127214      0.98926838603635
  O   -0.59527677457808      0.17902204016631      1.96981576970269
  C   0.94369762544312     -1.62625083035037      0.50577309098286
  N   1.26001432405134     -2.56350040392716      1.13942917822597
  N   1.41589851154525      0.75348261468015      0.06477032801563
  H   2.31407465928675      0.78939407246250     -0.39693653120316
  H   1.54845269049077      0.79872238004109      1.06655893752897
