14
Coordinates from ORCA-job run
  C   -0.57339050252493      0.49037273780827     -0.32301267346135
  C   0.65604819737393     -0.20109485352821      0.30926495562003
  Br  -0.46165908929586      0.51015487070023     -2.24163419432518
  H   0.49591531467691     -0.13709643752501      1.39034978898299
  C   -0.74219134188808      1.84294037578801      0.18091279821830
  N   -0.85336945891542      2.93537700334558      0.60257372724101
  N   -1.78794499769354     -0.35054859668909      0.16003885984990
  O   -2.47475989503318     -0.92567667466558     -0.65827022756929
  O   -1.90449893899308     -0.34755711059122      1.37770851750333
  C   1.87620885159576      0.55212500091847     -0.02517514104411
  N   2.88534581055468      1.09169676942896     -0.29309960238238
  N   0.65305022612080     -1.59532500395310     -0.06689371315124
  H   1.02828833973989     -1.72637564684526     -0.99828751645290
  H   1.20195748428213     -2.13999243419205      0.58552442097089
