14
Coordinates from ORCA-job run
  C   -0.77465314203958      0.20057663752620     -0.26129813522229
  C   0.49973552016338     -0.64882217856321     -0.00388265396232
  Br  -1.86230545673516     -0.66210744011660     -1.60515702359882
  H   0.15208045574316     -1.63961567398645      0.30216053798172
  C   -0.42970650242602      1.54505028866566     -0.68388047791412
  N   -0.09589401484100      2.61866407774893     -1.02853260499538
  N   -1.60374420206261      0.25228568299596      1.02853699926411
  O   -2.09434797659617      1.32720714956130      1.34001102635042
  O   -1.70122087217960     -0.81325647159275      1.62257996212814
  C   1.21582090582641     -0.04919065325799      1.12940171502094
  N   1.79619305907705      0.43725002509510      2.02767129248644
  N   1.29856776731658     -0.68165502200105     -1.20872194879532
  H   2.21134885234728     -0.26918823148347     -1.08508279886738
  H   1.38712560640629     -1.61819819059161     -1.57280588987614
