11

C	0.0	0.0	0.0
C	-0.232029	-0.194675	-1.525073
Br	1.94985	0.0	0.0
H	0.485286	0.448168	-2.041361
H	-0.379668	0.938587	0.366617
H	0.063435	-1.220394	-1.760731
C	-0.403457	-1.114849	0.822616
N	-0.61125	-2.000996	1.562107
C	-1.485419	0.047251	-2.237768
N	-2.210088	0.08882	-3.163475
Cl	-3.008413	0.0	0.0
