11

C	0.0	0.0	0.0
C	-0.546309	0.157204	-1.418786
Br	1.947644	0.0	0.0
H	-1.646171	0.148762	-1.301774
H	-0.338703	0.821279	0.631386
H	-0.240571	-0.69186	-2.034904
C	-0.407674	-1.273446	0.58871
N	-0.636378	-2.303863	1.103395
C	-0.108381	1.399046	-2.042041
N	0.236069	2.399867	-2.550536
Cl	-3.435781	0.0	0.0
