11

C	0.0	0.0	0.0
C	-0.317242	-0.01145	-1.525999
Br	1.947493	0.0	0.0
H	-1.360738	-0.216664	-1.728686
H	-0.394506	0.890958	0.483553
H	0.30246	-0.78154	-1.998085
C	-0.421016	-1.199723	0.716352
N	-0.545354	-2.141532	1.430856
C	0.036913	1.276117	-2.155941
N	0.241186	2.286683	-2.69474
Cl	-3.191717	0.0	0.0
