11

C	0.0	0.0	0.0
C	-0.361228	-0.424279	-1.435874
Br	1.947596	0.0	0.0
H	0.228842	0.201056	-2.10779
H	-0.380819	0.997067	0.204164
H	-1.429201	-0.242449	-1.588601
C	-0.415118	-0.943015	1.040353
N	-0.498599	-1.719029	1.919874
C	-0.022021	-1.815782	-1.721277
N	0.26862	-2.90909	-2.04077
Cl	-3.085305	0.0	0.0
