11

C	0.0	0.0	0.0
C	-0.324818	-0.195106	-1.515029
Br	1.947608	0.0	0.0
H	0.221384	0.582048	-2.05267
H	-0.350881	0.967729	0.344429
H	-1.391271	-0.065086	-1.73313
C	-0.429451	-1.067437	0.891209
N	-0.538882	-1.944287	1.6659
C	0.102576	-1.497181	-2.013403
N	0.39993	-2.542379	-2.455643
Cl	-2.935177	0.0	0.0
