14

C	-0.483056	0.061807	-1.432699
C	0.0	0.0	0.0
F	-1.769979	0.521753	-1.557781
H	1.093253	0.0	0.0
H	0.175102	0.676415	-2.050952
N	-0.447635	-1.325271	-2.019906
O	0.658384	-1.726832	-2.357113
O	-1.504445	-1.937903	-2.102147
N	-0.379016	-1.230588	0.672784
H	0.389739	-1.484954	1.284846
H	-1.230662	-1.137155	1.208809
C	-0.426145	1.217681	0.687533
N	-0.782917	2.180253	1.261916
H	2.650203	0.0	0.0
