14

C	-0.521685	0.04224	-1.416012
C	0.0	0.0	0.0
F	-1.869597	0.295173	-1.477261
H	1.092969	0.0	0.0
H	0.008116	0.779584	-2.021516
N	-0.291805	-1.290946	-2.082965
O	0.834179	-1.466265	-2.533145
O	-1.226327	-2.080946	-2.123918
N	-0.366495	-1.228702	0.683019
H	-1.234046	-1.149747	1.194844
H	0.393567	-1.455681	1.316122
C	-0.43333	1.220967	0.680244
N	-0.791741	2.183188	1.254387
H	2.648427	0.0	0.0
