14

C	-0.544649	-0.09785	-1.411866
C	0.0	0.0	0.0
F	-0.037729	-1.19993	-2.019581
H	1.100244	0.0	0.0
H	-1.635182	-0.148178	-1.438466
N	-0.171783	1.106334	-2.24324
O	-0.855013	2.105984	-2.029062
O	0.736772	1.006989	-3.052111
N	-0.428317	-1.250375	0.675115
H	0.378671	-1.867635	0.586113
H	-0.503825	-1.052479	1.666129
C	-0.511183	1.16138	0.701083
N	-0.890115	2.069395	1.345275
H	2.670576	0.0	0.0
