14

C	-0.435711	0.059544	-1.452901
C	0.0	0.0	0.0
F	-1.646842	0.669414	-1.650055
H	1.097246	0.0	0.0
H	0.317515	0.560182	-2.066656
N	-0.548696	-1.346998	-1.979874
O	0.510855	-1.898295	-2.243312
O	-1.669959	-1.827762	-2.087409
N	-0.393921	-1.226971	0.672258
H	-1.237336	-1.115626	1.216732
H	0.372562	-1.488839	1.283027
C	-0.427733	1.21836	0.679703
N	-0.751861	2.17818	1.277606
H	2.637691	0.0	0.0
