14

C	-0.561213	-0.057814	-1.408012
C	0.0	0.0	0.0
F	0.067922	-1.019095	-2.123571
H	1.094243	0.0	0.0
H	-1.636157	-0.249524	-1.422962
N	-0.384502	1.2554	-2.137862
O	0.594323	1.400573	-2.856524
O	-1.271895	2.084841	-1.935387
N	-0.345379	-1.274623	0.649512
H	0.542957	-1.666293	0.95724
H	-0.919363	-1.117935	1.467452
C	-0.489696	1.148201	0.742558
N	-0.896911	2.042384	1.390509
H	2.638969	0.0	0.0
