14

C	-0.40493	-0.042077	-1.444425
C	0.0	0.0	0.0
F	-0.310494	1.182288	-2.040027
H	1.101928	0.0	0.0
H	0.194292	-0.772615	-1.986737
N	-1.840368	-0.485173	-1.616444
O	-2.704587	0.236774	-1.125709
O	-2.04556	-1.534169	-2.225886
N	-0.334982	-1.284904	0.613057
H	-1.122491	-1.204445	1.243458
H	0.480576	-1.568258	1.150584
C	-0.493042	1.163738	0.717562
N	-0.825227	2.096234	1.352767
H	2.616097	0.0	0.0
