14

C	-0.525273	-0.024684	-1.414021
C	0.0	0.0	0.0
F	0.063063	-1.023958	-2.138015
H	1.092189	0.0	0.0
H	-1.610043	-0.165251	-1.479453
N	-0.268613	1.254501	-2.182187
O	0.592582	2.025985	-1.775152
O	-0.942378	1.388501	-3.206597
N	-0.310664	-1.250946	0.696706
H	-1.06958	-1.757982	0.257857
H	0.53502	-1.812945	0.63898
C	-0.582639	1.136399	0.704147
N	-1.071109	2.048563	1.263905
H	2.642687	0.0	0.0
