16

C	-0.471808	0.000895	-1.436322
C	0.0	0.0	0.0
F	-0.007464	-1.096498	-2.089779
H	1.090634	0.0	0.0
N	-2.006465	-0.093764	-1.60052
O	-2.55008	0.645697	-2.409583
O	-2.535677	-0.975361	-0.935646
C	-0.007169	1.206452	-2.13115
N	0.414728	2.15468	-2.680671
N	-0.432409	-1.199874	0.765307
O	0.003167	-2.269001	0.358386
O	-1.136918	-1.039003	1.760184
N	-0.496944	1.197867	0.696349
O	-1.445549	1.808744	0.185408
O	0.062264	1.49921	1.743407
F	2.40868	0.0	0.0
