16

C	-0.635926	0.248603	-1.350656
C	0.0	0.0	0.0
F	-0.278552	1.50889	-1.748305
H	1.115588	0.0	0.0
N	-0.064762	-0.688189	-2.436003
O	-0.866517	-1.128961	-3.253146
O	1.144333	-0.832832	-2.431659
C	-2.101959	0.141862	-1.406193
N	-3.274455	0.106451	-1.473469
N	-0.465461	-1.26957	0.552693
O	-0.813823	-2.128054	-0.265051
O	-0.401305	-1.424743	1.768448
N	-0.460839	1.088886	0.924021
O	-1.671357	1.150039	1.153712
O	0.39116	1.841247	1.383069
F	2.416992	0.0	0.0
