16

C	-0.512441	0.009592	-1.426668
C	0.0	0.0	0.0
F	-0.007143	1.079945	-2.074764
H	1.090245	0.0	0.0
N	0.094337	-1.256684	-2.083521
O	1.200125	-1.109901	-2.586164
O	-0.610598	-2.25817	-2.065429
C	-1.961538	-0.058152	-1.608865
N	-3.119854	-0.119322	-1.798478
N	-0.508532	-1.21848	0.70788
O	0.251311	-2.179497	0.732598
O	-1.588554	-1.10769	1.300319
N	-0.505385	1.173311	0.770434
O	-1.259818	1.974871	0.187676
O	0.044593	1.342812	1.851851
F	2.474537	0.0	0.0
