17

C	0.0	0.0	0.0
C	-0.544023	0.30546	-1.407199
Br	1.955811	0.0	0.0
H	-1.619284	0.11118	-1.296676
C	-0.330368	1.108678	0.920257
N	-0.561278	1.978075	1.67782
N	-0.499475	-1.279163	0.425519
H	-1.524351	-1.210769	0.384872
H	-0.237965	-1.444688	1.391663
C	0.029621	-0.624289	-2.459975
H	0.049321	-1.64964	-2.090623
H	-0.601165	-0.589143	-3.353851
H	1.042854	-0.318121	-2.731563
N	-0.278518	1.701965	-1.749874
H	-0.416024	1.811927	-2.74823
H	-0.983386	2.277657	-1.298035
Br	-3.783553	0.0	0.0
