17

C	0.0	0.0	0.0
C	-0.512893	0.268607	-1.422193
Br	1.969988	0.0	0.0
H	-1.598696	0.338506	-1.274763
C	-0.310149	1.157673	0.866585
N	-0.511767	2.013895	1.646979
N	-0.510932	-1.246434	0.488621
H	-1.534074	-1.177579	0.395777
H	-0.303164	-1.334957	1.477743
C	-0.219996	-0.88255	-2.374858
H	0.85616	-0.975424	-2.553331
H	-0.589509	-1.828788	-1.979525
H	-0.715499	-0.682468	-3.32925
N	-0.035409	1.570122	-1.868335
H	-0.732933	1.998133	-2.463096
H	0.822962	1.46882	-2.397504
Br	-3.772773	0.0	0.0
