17

C	0.0	0.0	0.0
C	-0.485353	0.193152	-1.45171
Br	1.980497	0.0	0.0
H	-1.56799	0.329533	-1.324742
C	-0.334765	1.202694	0.778682
N	-0.56764	2.1575	1.422379
N	-0.493682	-1.151151	0.695706
H	-0.314976	-1.978524	0.137772
H	-1.512363	-1.023069	0.762139
C	-0.261741	-1.040946	-2.320049
H	-0.607919	-0.820615	-3.333546
H	-0.839276	-1.897256	-1.965903
H	0.798389	-1.311201	-2.368663
N	0.068155	1.42667	-1.9944
H	-0.579538	1.814317	-2.669623
H	0.949078	1.245045	-2.461458
Br	-3.74474	0.0	0.0
