17

C	0.0	0.0	0.0
C	-0.194702	-0.442341	-1.473364
Br	2.2531	0.0	0.0
H	0.421903	0.227043	-2.086481
N	-0.351616	1.32722	0.239804
H	-0.76279	1.500596	1.144308
H	0.373466	1.984126	0.002243
N	-0.510551	-0.901315	0.849686
H	-0.673638	-0.701465	1.819532
H	-0.513985	-1.856109	0.524626
N	-1.558972	-0.328183	-1.911581
H	-1.86069	0.637311	-1.844175
H	-2.198306	-0.8115	-1.280623
N	0.178897	-1.846734	-1.57268
H	-0.200132	-2.187017	-2.446382
H	1.188543	-1.92927	-1.58157
Br	-4.385263	0.0	0.0
