17

C	0.0	0.0	0.0
C	-0.497594	-0.532807	-1.379698
Br	2.111515	0.0	0.0
H	0.367181	-0.667955	-2.031258
N	-0.379313	1.326926	0.216268
H	0.130616	1.778887	0.959427
H	-0.380748	1.853881	-0.644825
N	-0.391718	-0.833143	1.048396
H	-0.112294	-1.790375	0.897177
H	-0.131408	-0.483051	1.958338
N	-1.342663	0.491807	-1.984045
H	-1.577608	0.193347	-2.92389
H	-2.219211	0.540958	-1.453992
N	-1.09287	-1.850015	-1.167644
H	-1.314498	-2.238075	-2.078027
H	-1.9783	-1.705285	-0.679425
Br	-4.284833	0.0	0.0
