17

C	0.0	0.0	0.0
C	-0.460638	0.067684	-1.466595
Br	1.964576	0.0	0.0
H	-1.552243	0.139401	-1.373079
N	-0.413137	1.144414	0.77065
H	-1.431382	1.072701	0.833699
H	-0.205079	1.969223	0.214384
N	-0.46281	-1.237583	0.568883
H	-1.482189	-1.225601	0.461625
H	-0.267987	-1.204104	1.564435
N	-0.038218	-1.121063	-2.207936
H	-0.775579	-1.367696	-2.860382
H	0.039083	-1.884783	-1.543093
N	0.002005	1.304462	-2.078686
H	0.903997	1.107916	-2.499353
H	-0.637105	1.55915	-2.821131
Br	-3.811784	0.0	0.0
