14
Coordinates from ORCA-job run
  C   -0.49598596224438      0.14351483273680     -0.35213306009967
  C   0.93904962264472     -0.31417113483557      0.03866854339004
  H   -0.40031831336938      1.00247751592154     -1.02548468592219
  H   0.85786656924027     -1.20615858435992      0.67285713096752
  C   -1.31770014718573      0.53279106316108      0.87916913122916
  H   -0.85439642097123      1.37485008836908      1.39571843033549
  H   -1.39783972604314     -0.30890132797605      1.57075206239917
  H   -2.32461088599055      0.82406052192485      0.57735545444547
  C   -1.14221378142647     -0.94551047533609     -1.08778241312583
  N   -1.67016907043886     -1.83439936704833     -1.64472239094522
  C   1.61517084232530      0.73741439177328      0.80637426441519
  N   2.12268800373485      1.59330560295323      1.42952185461328
  C   1.72739244552436     -0.66157269034745     -1.14870142782959
  N   2.34206682420025     -0.93670043693646     -2.11059289387284
