14
Coordinates from ORCA-job run
  C   -0.57444682795554      0.26952837911607     -0.42833077830029
  C   0.95603800677886      0.00856373560446     -0.54294652651614
  H   -0.76452590181688      1.23722298384948     -0.90667614950874
  H   1.22972517286967     -0.04741707550179     -1.60346786611522
  C   -1.05205240726951      0.30847696419232      1.02420306094211
  H   -2.12147818025007      0.52148421795783      1.05763262624358
  H   -0.87589508217586     -0.65033409628788      1.51523418756771
  H   -0.52587399500770      1.09273517796372      1.57238326875865
  C   -1.28014343560731     -0.75854861562893     -1.19625412241793
  N   -1.84409372906056     -1.58957100284662     -1.80494232258762
  C   1.32035212415441     -1.26222854592982      0.09367146954534
  N   1.58383503448812     -2.28439998748647      0.60771755353568
  C   1.69630853895733      1.11938183147142      0.06608530729545
  N   2.25125068189505      2.03510603352620      0.54769029155741
