14

C	-0.16152	-0.18109	-1.513941
C	0.0	0.0	0.0
F	-0.254276	-1.567792	-1.762887
H	1.09852	0.0	0.0
H	-0.34707	1.007779	0.255283
C	-1.407505	0.393811	-2.07212
N	-2.398307	0.870404	-2.485442
N	0.98771	0.32031	-2.195094
H	0.841338	1.244972	-2.570375
H	1.799737	0.294817	-1.538517
N	-0.732138	-0.992432	0.789833
H	-0.462832	-0.843435	1.755594
H	-0.344348	-1.893676	0.536383
F	2.760589	0.0	0.0
