14

C	-0.598224	0.131709	-1.389881
C	0.0	0.0	0.0
F	-0.037123	1.253082	-1.995294
H	1.09685	0.0	0.0
H	-0.384339	-0.936138	0.424766
C	-0.27171	-1.044624	-2.22718
N	-0.047059	-2.004414	-2.863447
N	-2.034456	0.330022	-1.420466
H	-2.215128	0.885712	-0.585586
H	-2.493793	-0.564475	-1.304676
N	-0.524287	1.143532	0.790114
H	-0.519704	0.865562	1.762627
H	0.191131	1.859899	0.714853
F	2.672956	0.0	0.0
