14

C	-0.577833	-0.083459	-1.394898
C	0.0	0.0	0.0
F	-0.039362	0.967287	-2.165897
H	1.091776	0.0	0.0
H	-0.349399	0.961353	0.417179
C	-0.202291	-1.338565	-2.080398
N	0.054218	-2.331827	-2.647226
N	-2.008451	0.010746	-1.392709
H	-2.255826	0.876352	-0.926337
H	-2.3505	0.052095	-2.347446
N	-0.423633	-1.174195	0.760978
H	0.349057	-1.432256	1.359893
H	-1.244686	-1.000611	1.323371
F	2.665055	0.0	0.0
