14

C	-0.120254	0.029306	-1.523294
C	0.0	0.0	0.0
F	-0.026871	-1.334031	-1.971849
H	1.102485	0.0	0.0
H	-0.38017	0.944443	0.397744
C	-1.42134	0.478858	-2.071518
N	-2.446449	0.864803	-2.495712
N	0.945323	0.818998	-1.990551
H	1.801911	0.585431	-1.439494
H	1.076489	0.725739	-2.988616
N	-0.718231	-1.128147	0.594214
H	-0.534182	-1.095752	1.59142
H	-0.256409	-1.965264	0.257439
F	2.76615	0.0	0.0
