14

C	-0.153759	0.109674	-1.521875
C	0.0	0.0	0.0
F	-0.166613	-1.231931	-2.034191
H	1.094703	0.0	0.0
H	-0.44488	-0.939078	0.336983
C	-1.448068	0.667662	-1.983766
N	-2.492994	1.061478	-2.347057
N	0.93732	0.855379	-2.000117
H	1.790684	0.591565	-1.465459
H	1.044807	0.780388	-3.002214
N	-0.501435	1.192893	0.676969
H	-1.232102	0.959291	1.334122
H	0.26797	1.603441	1.18891
F	2.739338	0.0	0.0
