14

C	-0.616323	0.027131	-1.378325
C	0.0	0.0	0.0
F	-2.04282	0.239744	-1.232193
H	1.091376	0.0	0.0
H	-0.364641	0.889655	0.528707
C	-0.185259	1.196936	-2.172093
N	0.096062	2.137981	-2.814244
N	-0.374531	-1.17019	-2.079769
H	-1.01981	-1.271059	-2.851687
H	-0.480508	-1.918801	-1.401519
N	-0.389868	-1.260839	0.653564
H	-1.141869	-1.1271	1.315483
H	0.433103	-1.578244	1.151403
F	2.647897	0.0	0.0
