14

C	-0.197365	-0.127783	-1.506991
C	0.0	0.0	0.0
F	-1.398758	-0.789407	-1.851421
H	1.101742	0.0	0.0
H	-0.37621	-0.92895	0.435318
C	-0.33759	1.212358	-2.148031
N	-0.359431	2.247594	-2.703481
N	0.915566	-0.866409	-1.998577
H	1.066386	-0.722039	-2.98683
H	1.761056	-0.628118	-1.440255
N	-0.663772	1.171096	0.579358
H	-0.934412	0.950522	1.529072
H	0.032721	1.904803	0.649156
F	2.747782	0.0	0.0
