10
Coordinates from ORCA-job run
  C   0.82309425313073     -0.64344239047502      0.03493695012396
  C   -0.30333355289462      0.09491345554245      0.01308991095495
  H   0.74517060453737     -1.71217963160959      0.21224384938120
  C   2.10462043975845     -0.06218231879356     -0.16511046381855
  N   3.17639176836110      0.39826794101811     -0.32869839920096
  C   -0.36687653576229      1.49914765657711     -0.20437113618792
  N   -0.38296225777422      2.66250713443235     -0.38577769422022
  N   -1.61056170379576     -0.58460100065395      0.22423343603469
  O   -1.58383164953922     -1.78270879482215      0.46581724310666
  O   -2.60271136602153      0.13027794878427      0.13363630382618
