10
Coordinates from ORCA-job run
  C   1.02213505493904      0.03668837748375     -0.33722465351672
  C   -0.28123199319741      0.33680571752094     -0.15851134728048
  H   1.59734229527226      0.70128495322062     -0.97760046526016
  C   1.72636706636372     -1.06188787545489      0.22989681926298
  N   2.41902235244054     -1.92309795159522      0.63581997670621
  C   -0.88309392425974      1.47241367848025     -0.77602942001528
  N   -1.33550216056367      2.41912749073505     -1.30908754431240
  N   -1.19503625113351     -0.46784258129236      0.69049370024291
  O   -2.33079202929628     -0.02147577028074      0.81747557100095
  O   -0.74121041056495     -1.49001603881742      1.18476736317199
