10
Coordinates from ORCA-job run
  C   0.83327504589861     -0.62294977143420      0.10974644006358
  C   -0.30505808906817      0.08816224851785     -0.00469280114588
  H   0.76862204465022     -1.67705890569502      0.36320756683708
  C   2.10929165227143     -0.02896400953508     -0.08875391913588
  N   3.17559497697253      0.44541513597636     -0.24795164768768
  C   -0.38654465199642      1.47128199979625     -0.32682660555398
  N   -0.41319556000427      2.61834827913542     -0.59120814039297
  N   -1.60660356417502     -0.60116366019513      0.21167840962509
  O   -1.56659449665102     -1.77448848924824      0.55247975034631
  O   -2.60778735789787      0.08141717268179      0.02332094704432
