10
Coordinates from ORCA-job run
  C   0.83300204935403     -0.63172346811652      0.03676153757481
  C   -0.30419181119556      0.09011026919890      0.01714307625933
  H   0.77751524016049     -1.69093954858536      0.27032180422615
  C   2.09716719443875     -0.04307993820098     -0.23872383009653
  N   3.15383765813791      0.42589752598769     -0.46421241979794
  C   -0.39539802545568      1.48000009864327     -0.27110838806832
  N   -0.43107276298146      2.63170490883220     -0.51326974529801
  N   -1.59310551711925     -0.59226742184552      0.31521028719906
  O   -2.59232298217146      0.11756873308066      0.27877994273597
  O   -1.54543104316776     -1.78727115899435      0.56909773526548
