10
Coordinates from ORCA-job run
  C   1.05492836858152      0.23630479115780     -0.10845447706207
  C   -0.28894577974109      0.33467723675030     -0.16895370557217
  H   1.63806444431604      1.02663730308745     -0.57448245993595
  C   1.77998106570606     -0.82835075376488      0.49580435193375
  N   2.47095961885969     -1.66622373257035      0.95071601268158
  C   -0.95047734633870      1.41732768686544     -0.81683199929859
  N   -1.46508586465835      2.33412282535434     -1.34585508107842
  N   -1.19065980332529     -0.69886795338854      0.39253675912583
  O   -2.28312603947456     -0.79809304155308     -0.15640420859399
  O   -0.76563866392532     -1.35753436193849      1.33192480780005
