10
Coordinates from ORCA-job run
  C   1.01680215558562      0.24979224014774      0.29108418239416
  C   -0.28783214688587      0.37509032582281     -0.02747213958585
  H   1.57943107561615      1.16169936795730      0.47493651411690
  C   1.73061806034746     -0.97736424821336      0.38560508780321
  N   2.41429254552240     -1.93231092263008      0.47043157119987
  C   -0.93445076194020      1.64002871962065     -0.13277969854854
  N   -1.44344105835981      2.69941097189688     -0.19470510920940
  N   -1.14807099410626     -0.79096473905321     -0.33937224649169
  O   -0.84586258452704     -1.85927698656243      0.17481867029335
  O   -2.08248629125245     -0.56610472898628     -1.10154683197200
