10
Coordinates from ORCA-job run
  C   1.04457904976564      0.29716826829815      0.10100601408910
  C   -0.29409625461168      0.36822983412645     -0.04816402350016
  H   1.60761036126043      1.22546568339012      0.04409237344394
  C   1.78891910631590     -0.89852907176120      0.30344644658520
  N   2.48569679118158     -1.83612017489063      0.44978383585325
  C   -0.97948970334137      1.59443771519581     -0.28358127370692
  N   -1.52321295465653      2.62236088619584     -0.46636764358614
  N   -1.16243172749849     -0.83334161827356     -0.03140871312140
  O   -2.19477560885684     -0.74558910533426     -0.68818216311788
  O   -0.77179905955863     -1.79308241694674      0.61937514706100
