10
Coordinates from ORCA-job run
  C   0.85936585954219     -0.43600626919579      0.40583364380559
  C   -0.30929411965593      0.05999022941166     -0.04469817181735
  H   0.84176508538067     -1.19661200687549      1.18089731405211
  C   2.10820281435621      0.01009901739734     -0.10578717326211
  N   3.15342438464315      0.36647002631145     -0.51553722774172
  C   -0.45073041792327      1.05538495001493     -1.05091735954438
  N   -0.52793951843996      1.88189512857720     -1.88592280729710
  N   -1.57935328302766     -0.45662797965717      0.53443365621479
  O   -1.48808408567496     -1.29079917870126      1.42352656017775
  O   -2.60935671920042      0.00720608271713      0.05717156541242
