10
Coordinates from ORCA-job run
  C   0.83513865440207     -0.62891906043566     -0.03505583062193
  C   -0.30524755706942      0.08596433041799      0.02240062655549
  H   0.78152873651700     -1.70895019554289      0.06515853135444
  C   2.09946997003718     -0.00658918115429     -0.22099045768113
  N   3.15634922790895      0.49098611266219     -0.37163249185983
  C   -0.39936051079139      1.50082878062585     -0.09101644098561
  N   -0.43700637836134      2.67346214201364     -0.19023809671669
  N   -1.59318990788188     -0.63218930369389      0.22398413476417
  O   -2.59459202533546      0.07392218256909      0.27215483544439
  O   -1.54309020942570     -1.84951580746204      0.32523518974669
