10
Coordinates from ORCA-job run
  C   1.04083927614819      0.18630527411919     -0.20630427106741
  C   -0.30507548904774      0.28434342406579     -0.20838400345805
  H   1.58851843759622      0.91059931145109     -0.80489541363678
  C   1.82190628527095     -0.76896908178740      0.50215577420171
  N   2.57576326520493     -1.49794127310618      1.03738793860204
  C   -0.98473707904963      1.28956980033924     -0.95735773978765
  N   -1.50057187964167      2.13599715765338     -1.59188258121669
  N   -1.19102583613161     -0.62741984469977      0.55748529517543
  O   -0.65534431531221     -1.53772686341871      1.17374162598585
  O   -2.39027266503744     -0.37475790461664      0.49805337520155
