10
Coordinates from ORCA-job run
  C   0.81506421608644     -0.65658161672684     -0.00166586386690
  C   -0.30180016067831      0.09648187975328      0.01538728956807
  H   0.72309706742605     -1.73228007969357      0.11592492638769
  C   2.10333012839794     -0.07907683700511     -0.16587365458358
  N   3.17875467265815      0.38201198074992     -0.30097731331474
  C   -0.34671169309384      1.51123182889805     -0.12440037954827
  N   -0.34530243043816      2.68284765477209     -0.24132153372996
  N   -1.61830857860843     -0.57578841778150      0.19230090394977
  O   -2.59913602856040      0.15974238877446      0.16620531253698
  O   -1.60898719318945     -1.78858878174078      0.34542031260093
