10
Coordinates from ORCA-job run
  C   1.05955478887163      0.16294499268293     -0.17871864165878
  C   -0.27237446007924      0.36773383938514     -0.12175008862751
  H   1.68218973660595      0.99244534146983     -0.50450006230895
  C   1.72670562297263     -1.04300498045788      0.17487267106725
  N   2.37635066756810     -1.98274101623130      0.46028943520748
  C   -0.87299166252699      1.61400792221453     -0.46135182049208
  N   -1.34118892493432      2.65064472646331     -0.76345717321329
  N   -1.21927631063596     -0.67191818526370      0.34610649324915
  O   -2.24960319052969     -0.25125974226106      0.86184660611212
  O   -0.88736626731211     -1.83885289800180      0.18766258066461
