10
Coordinates from ORCA-job run
  C   0.82545934633693     -0.63703580695296     -0.08526290925195
  C   -0.30252790815746      0.08897982325116      0.03846078990303
  H   0.76140220472670     -1.71944572862657     -0.02289012875365
  C   2.09049796279535     -0.02358433905972     -0.29441388757149
  N   3.14778270114509      0.46567652260492     -0.46815414206624
  C   -0.38194849478785      1.50791352478653     -0.02057477941804
  N   -0.40850625538297      2.68379984742972     -0.07505362366136
  N   -1.59280193778133     -0.62049425138302      0.25594751216171
  O   -2.58276498045945      0.09543704767265      0.36127198545164
  O   -1.55559263843502     -1.84124663972270      0.31066918320635
