10
Coordinates from ORCA-job run
  C   1.01693295503804     -0.03147916605802     -0.35558683481627
  C   -0.26863868800289      0.33771835908333     -0.17679839252097
  H   1.60820021713299      0.56204267165880     -1.04891882495413
  C   1.68335401950565     -1.11847996932468      0.27593879736446
  N   2.34510579142134     -1.97895850091481      0.73197669579418
  C   -0.83295863895623      1.45473006037419     -0.86014218410205
  N   -1.25501578695181      2.38166687195860     -1.44995318152265
  N   -1.20034110950017     -0.36771070376574      0.73839612584444
  O   -0.78536158194440     -1.37938282569701      1.28566586465913
  O   -2.31027717774253      0.14085320268533      0.85942193425385
