10
Coordinates from ORCA-job run
  C   0.98933144585885     -0.05446645516102     -0.42290073236380
  C   -0.27744319796588      0.33441806380317     -0.16870893945404
  H   1.53287386717287      0.50231730614570     -1.18266847169386
  C   1.69202109779949     -1.12270884298551      0.20122962504779
  N   2.37882787922481     -1.97325432215207      0.63814636564681
  C   -0.88337059719791      1.42438719759378     -0.86025770202100
  N   -1.34139715703191      2.32992246906292     -1.45623413925536
  N   -1.14662937192029     -0.32317699542012      0.83946072393930
  O   -0.66870381472704     -1.26252748484050      1.45940119008147
  O   -2.27451015121299      0.14608906395365      0.95353208007269
