10
Coordinates from ORCA-job run
  C   0.85653659018815     -0.56635294841868      0.19933976142148
  C   -0.30853981155373      0.06860362739184     -0.03348853309866
  H   0.83401236983625     -1.60976054418883      0.50050726988127
  C   2.10825134043273      0.09273239142380      0.06063960080411
  N   3.15545672595676      0.62089329614019     -0.04802661043396
  C   -0.44351071221783      1.42709718286566     -0.43284199657470
  N   -0.51614538652633      2.55544064906943     -0.76140342531286
  N   -1.58160354776060     -0.68436406120498      0.13228591073416
  O   -2.60772576038300     -0.05126404853433     -0.09134514069661
  O   -1.49673180797239     -1.85502554454412      0.47433316327577
