10
Coordinates from ORCA-job run
  C   0.82814905408356     -0.62557308467381     -0.13323172299119
  C   -0.30305323804262      0.08449297088850      0.04248805350194
  H   0.76498865450672     -1.70885299353083     -0.17863381842963
  C   2.09527485562797      0.00582018361117     -0.25978737328653
  N   3.15450057600263      0.50922502230312     -0.36914646804171
  C   -0.38430043832785      1.50239719721896      0.12264994442621
  N   -0.41509460117085      2.67794226422915      0.18310548101819
  N   -1.59576587710272     -0.64307654480539      0.16674670391221
  O   -2.58865458075435      0.05885714161610      0.32517760656140
  O   -1.55704440482249     -1.86323215685697      0.10063159332911
