10
Coordinates from ORCA-job run
  C   0.82456013649811     -0.64003252811776      0.06455804571579
  C   -0.30288682273460      0.09504323400097      0.01060079147579
  H   0.75371567301014     -1.68818163540965      0.34011490532524
  C   2.09810497661441     -0.08033817691369     -0.22678479635476
  N   3.16317726955296      0.36336520825159     -0.46396776697484
  C   -0.37542987848438      1.47372951066334     -0.33122212499309
  N   -0.39741139602660      2.61591457479148     -0.61646564935045
  N   -1.60174596916186     -0.55879327116433      0.33099428275952
  O   -1.57002741725637     -1.74216811554005      0.63622652913261
  O   -2.59205657201182      0.16046119943810      0.25594578326419
