10
Coordinates from ORCA-job run
  C   1.06923525650805      0.15318394941522     -0.11758610594495
  C   -0.25638295769957      0.39413272214150     -0.05412397184122
  H   1.72828415347871      1.00535215613219     -0.26345593498815
  C   1.68518380535331     -1.12277866538370      0.01268886516386
  N   2.29153032195203     -2.12585629283554      0.12493014730564
  C   -0.80390297877864      1.70469972230469     -0.16413594813904
  N   -1.22493152944923      2.79801489875050     -0.27642954676763
  N   -1.25142832538345     -0.67815651734917      0.18238088224751
  O   -2.28386212490201     -0.32357271507339      0.74183851471640
  O   -0.95272562107921     -1.80601925810230     -0.18610690175244
