10
Coordinates from ORCA-job run
  C   0.84761750872744     -0.53298837805601      0.30292850015908
  C   -0.30753455684816      0.06359457747886     -0.04991238443960
  H   0.81019014773754     -1.51556699778825      0.76394863117640
  C   2.10677484075483      0.09073162606875      0.08864780931834
  N   3.15922645107065      0.59233097667138     -0.07886633733848
  C   -0.42288188208010      1.34333875979724     -0.66005347983948
  N   -0.47551392440279      2.40559175690889     -1.16539776108924
  N   -1.59007456681995     -0.64683884631396      0.20571969411201
  O   -1.52207114531351     -1.74894741111711      0.73055833585051
  O   -2.60573287282595     -0.05224606364977     -0.13857300790955
