10
Coordinates from ORCA-job run
  C   1.05102605441631      0.19936761356551      0.18760960188409
  C   -0.27636204866672      0.38241448841811      0.03331507649865
  H   1.64284054918672      1.05562040146198      0.50143462935041
  C   1.74569484642309     -1.02691980870024     -0.00707211655077
  N   2.41037077820091     -1.99114740858567     -0.12939776485822
  C   -0.90987220642215      1.63612624466881      0.27101540902245
  N   -1.39804963501469      2.69009568976105      0.46063844576074
  N   -1.19431645884368     -0.71575667798370     -0.35142423276648
  O   -0.72217408010417     -1.62825477048206     -1.01575966618115
  O   -2.34815779917563     -0.60154577212379      0.04864061784027
