10
Coordinates from ORCA-job run
  C   1.04243517809855      0.20558892067301      0.22649346512101
  C   -0.27582861913572      0.38510886726888      0.00402394757274
  H   1.62187934054550      1.07090800069769      0.53804296734639
  C   1.73929061848055     -1.02960036709796      0.11242877611737
  N   2.40111684706212     -2.00247811663801      0.06907544198831
  C   -0.91690063725285      1.64648858176940      0.16947909443315
  N   -1.40966286540123      2.70754320884322      0.29858620383128
  N   -1.17760402536985     -0.72531827604158     -0.38381157911350
  O   -2.34749422844767     -0.59833281140283     -0.03781842332833
  O   -0.67823160857940     -1.65990800807184     -0.99549989396842
