10
Coordinates from ORCA-job run
  C   0.83943270620284     -0.61173840581671      0.12345967203863
  C   -0.30471696996770      0.08936754115477      0.00431093299655
  H   0.79014178887110     -1.63388344192221      0.48730271915428
  C   2.10025889591547     -0.05006764466934     -0.21568360914771
  N   3.15415147578868      0.39661331814733     -0.49370311548213
  C   -0.40814962988001      1.43140615464078     -0.45535142044353
  N   -0.45435579945075      2.54260143301064     -0.84197402978592
  N   -1.58939000661037     -0.56614270914590      0.37468117680723
  O   -1.53203494089912     -1.72108609114624      0.77126582545738
  O   -2.59533751997015      0.12292984574689      0.24469184840522
