10
Coordinates from ORCA-job run
  C   0.82394636887137     -0.61795816608708     -0.19274402069264
  C   -0.30121860655830      0.07870863149350      0.06030443474368
  H   0.75580432427604     -1.69139453955800     -0.34350462934804
  C   2.09167201927680      0.01937506349714     -0.27847138018011
  N   3.14808995384267      0.53416259112036     -0.35774968652678
  C   -0.37105113755209      1.48505871771001      0.26371111509963
  N   -0.39462436404580      2.65207967925930      0.41943772719272
  N   -1.59786767710845     -0.64743270905662      0.12632457120062
  O   -1.57135762937718     -1.85352576120430     -0.07105280046196
  O   -2.58239325162507      0.04092649282569      0.37274466897288
