10
Coordinates from ORCA-job run
  C   1.01766845094880     -0.01792624039852     -0.38061449235341
  C   -0.27214036337717      0.33241279702395     -0.19904888289067
  H   1.61016322538828      0.58357614515728     -1.06550702015415
  C   1.68025952058952     -1.09818130908051      0.26622258294227
  N   2.32384969325543     -1.95263044088733      0.75846258091077
  C   -0.86531574910041      1.44648944114650     -0.85954468348339
  N   -1.33111220733531      2.36265724076613     -1.43301761984376
  N   -1.16862329605876     -0.38414233417558      0.73877674724209
  O   -2.07131175397659      0.29064973660375      1.22296707776056
  O   -0.92343752033379     -1.56390503615567      0.95130370986968
