17

C	-0.411686	0.000991	-1.47614
C	0.0	0.0	0.0
Cl	0.328304	1.404435	-2.25616
H	1.101365	0.0	0.0
C	0.019346	-1.261123	-2.191475
H	-0.227585	-1.194626	-3.253068
H	-0.478753	-2.125668	-1.753091
H	1.101605	-1.356652	-2.072728
N	-1.936722	0.142253	-1.552101
O	-2.550398	-0.848522	-1.161327
O	-2.443334	1.17804	-1.95753
C	-0.440881	-1.217143	0.680596
N	-0.736412	-2.185526	1.276006
N	-0.564614	1.172437	0.683272
H	-0.399675	1.051541	1.676858
H	0.003454	1.966033	0.403308
Br	3.437136	0.0	0.0
