17

C	-0.367418	-0.208003	-1.473695
C	0.0	0.0	0.0
Cl	0.056294	1.236038	-2.410608
H	1.106623	0.0	0.0
C	0.332964	-1.419741	-2.048384
H	1.404373	-1.298393	-1.868931
H	0.131248	-1.502911	-3.115332
H	-0.014963	-2.326345	-1.544103
N	-1.881519	-0.371864	-1.639922
O	-2.60011	-0.01973	-0.706688
O	-2.281085	-0.832356	-2.70398
C	-0.429992	-1.184729	0.761056
N	-0.802836	-2.10232	1.392962
N	-0.438567	1.254001	0.570746
H	-1.350226	1.168019	0.995911
H	0.244418	1.550865	1.253943
Br	3.431945	0.0	0.0
