17

C	-0.413994	-0.033682	-1.457642
C	0.0	0.0	0.0
Cl	0.310748	1.373213	-2.289577
H	1.106663	0.0	0.0
C	-0.008491	-1.29183	-2.211903
H	-0.509489	-2.16027	-1.776885
H	-0.275771	-1.212318	-3.269322
H	1.071315	-1.39805	-2.110192
N	-1.939534	0.000737	-1.720062
O	-2.357526	0.417208	-2.824361
O	-2.60352	-0.790252	-1.003429
C	-0.322471	-1.177054	0.849351
N	-0.022285	-1.545241	1.935085
N	-0.4624	1.175728	0.72872
H	-1.473337	1.255208	0.692288
H	-0.052929	2.004591	0.313183
Br	2.86474	0.0	0.0
