17

C	-0.433615	0.056936	-1.471812
C	0.0	0.0	0.0
Cl	-2.207111	0.24069	-1.59359
H	1.096217	0.0	0.0
C	0.260222	1.187981	-2.186663
H	1.337499	1.082205	-2.049999
H	0.012522	1.174187	-3.248893
H	-0.073173	2.119709	-1.733905
N	-0.07486	-1.278823	-2.127131
O	-0.794887	-2.241804	-1.888142
O	0.944453	-1.292597	-2.808794
C	-0.508233	-1.178856	0.707979
N	-0.95123	-2.033237	1.380625
N	-0.377889	1.245883	0.658615
H	0.346422	1.47756	1.325399
H	-1.261798	1.15046	1.141015
Br	3.398617	0.0	0.0
