17

C	-0.622831	-0.070558	-1.403533
C	0.0	0.0	0.0
Cl	0.048896	-1.44823	-2.293365
H	1.106046	0.0	0.0
C	-2.130994	-0.152733	-1.385573
H	-2.431167	-1.090325	-0.916378
H	-2.523395	-0.120272	-2.401904
H	-2.536983	0.692104	-0.829692
N	-0.193414	1.208596	-2.130597
O	-1.074966	2.03502	-2.362787
O	0.992667	1.322874	-2.396749
C	-0.457863	-1.162144	0.770489
N	-0.91683	-2.02744	1.418882
N	-0.392015	1.265389	0.621273
H	0.422418	1.647362	1.089981
H	-1.132796	1.145972	1.298228
Br	3.410938	0.0	0.0
