17

C	-0.368272	-0.000568	-1.494462
C	0.0	0.0	0.0
Cl	-0.111024	1.627353	-2.180565
H	1.103311	0.0	0.0
C	0.485997	-0.999366	-2.240068
H	0.26605	-2.008231	-1.884364
H	1.532978	-0.768589	-2.029502
H	0.285874	-0.95107	-3.308685
N	-1.853069	-0.301441	-1.715937
O	-2.13877	-1.05831	-2.643169
O	-2.657041	0.240563	-0.969287
C	-0.456333	-1.268634	0.572868
N	-0.808279	-2.290048	1.033365
N	-0.527828	1.113909	0.795337
H	-0.111538	1.957132	0.411997
H	-0.114038	1.006713	1.718035
Br	3.468521	0.0	0.0
