17

C	-0.470785	0.095219	-1.470401
C	0.0	0.0	0.0
Cl	-2.233429	0.288038	-1.563555
H	1.110219	0.0	0.0
C	0.221609	1.20678	-2.242278
H	-0.074169	1.115634	-3.287663
H	1.299384	1.069899	-2.124548
H	-0.091815	2.177834	-1.869301
N	-0.095506	-1.171095	-2.251457
O	-0.811953	-1.545158	-3.169575
O	0.948262	-1.750256	-1.894149
C	-0.734876	-1.078098	0.652847
N	-1.676841	-1.604129	1.134585
N	-0.451164	1.23812	0.694938
H	-0.220717	1.085958	1.674206
H	0.184977	1.977431	0.39319
Br	3.162612	0.0	0.0
