16

C	-0.279953	-0.051848	-1.512925
C	0.0	0.0	0.0
Cl	-1.971791	-0.505186	-1.857698
H	1.092199	0.0	0.0
N	-0.070073	1.401909	-2.008463
O	-1.008576	2.183536	-1.930427
O	1.064065	1.659478	-2.392984
N	0.604049	-0.867175	-2.264492
H	0.412967	-1.821834	-1.98253
H	1.544432	-0.65074	-1.914104
N	-0.3439	-1.238347	0.681209
O	-0.768841	-1.174791	1.842543
O	-0.063233	-2.296703	0.099902
C	-0.543396	1.134804	0.702209
N	-0.931624	2.109377	1.235748
H	2.397229	0.0	0.0
