16

C	-0.267161	-0.096393	-1.491736
C	0.0	0.0	0.0
Cl	-2.021294	-0.288989	-1.907651
H	1.092116	0.0	0.0
N	0.091746	1.330074	-2.117812
O	-0.569121	2.299942	-1.778795
O	1.023181	1.331439	-2.915473
N	0.506786	-1.097221	-2.052117
H	1.432444	-1.085024	-1.606636
H	0.587443	-0.98299	-3.053451
N	-0.370154	-1.245262	0.714918
O	0.226634	-2.268589	0.381611
O	-1.172582	-1.165322	1.651146
C	-0.557604	1.145909	0.670134
N	-0.921681	2.09104	1.269411
H	2.461101	0.0	0.0
