16

C	-0.566284	0.074654	-1.415535
C	0.0	0.0	0.0
Cl	0.17187	1.5005	-2.198368
H	1.107254	0.0	0.0
N	-0.058739	-1.142104	-2.223279
O	0.943367	-1.698677	-1.802091
O	-0.668179	-1.409746	-3.250477
N	-1.980166	0.150709	-1.58086
H	-2.309249	0.991975	-1.121164
H	-2.373374	-0.663612	-1.117959
N	-0.463644	-1.149651	0.711284
O	-1.085908	-2.045301	0.085066
O	-0.121335	-1.235893	1.90668
C	-0.340296	1.188484	0.748365
N	-0.585251	2.178967	1.335812
H	2.291098	0.0	0.0
