16

C	-0.510313	0.139474	-1.42168
C	0.0	0.0	0.0
Cl	0.369331	1.603903	-2.122357
H	1.107538	0.0	0.0
N	-0.032625	-0.986319	-2.342693
O	0.994931	-1.568585	-2.045635
O	-0.696169	-1.14188	-3.365354
N	-1.903217	0.22822	-1.533232
H	-2.181707	0.336712	-2.500839
H	-2.253621	0.987685	-0.964019
N	-0.43199	-1.212797	0.656185
O	-0.283368	-1.241808	1.888399
O	-0.797253	-2.176787	-0.036229
C	-0.422524	1.145679	0.770604
N	-0.765348	2.117594	1.340793
H	2.329988	0.0	0.0
