16

C	-0.590181	-0.015085	-1.395098
C	0.0	0.0	0.0
Cl	0.247431	1.340891	-2.323813
H	1.106475	0.0	0.0
N	-0.18419	-1.251845	-2.202087
O	-0.995404	-1.625072	-3.04479
O	0.927021	-1.709075	-2.007422
N	-1.987245	0.080275	-1.409789
H	-2.290074	0.907535	-0.911928
H	-2.350679	0.062688	-2.354033
N	-0.394091	-1.143062	0.792113
O	-0.220312	-1.043553	2.017489
O	-0.726615	-2.187069	0.205799
C	-0.38976	1.217657	0.6725
N	-0.688525	2.24311	1.168644
H	2.32975	0.0	0.0
