16

C	0.0	0.0	0.0
C	-0.314599	-0.002077	-1.572579
F	1.401022	0.0	0.0
H	0.07455	-0.914633	-1.993037
H	-1.40928	-0.071051	-1.727066
C	-0.335797	1.338608	0.790342
H	0.057607	2.188263	0.260488
H	-0.010458	1.225223	1.812907
H	-1.41198	1.5174	0.854648
C	-0.33006	-1.373147	0.732815
H	0.028111	-1.32546	1.748081
H	-1.406253	-1.544567	0.815939
H	0.037895	-2.197254	0.141724
C	0.103958	1.189391	-2.221635
N	0.385834	2.196254	-2.755237
Cl	-2.159076	0.0	0.0
