16

C	0.0	0.0	0.0
C	-0.202045	0.032535	-1.53737
F	1.40349	0.0	0.0
H	0.387365	-0.809265	-1.917595
H	0.31144	0.936316	-1.882355
C	-0.510642	1.240163	0.687556
H	-1.6027	1.244527	0.6213
H	-0.1006	2.135953	0.212968
H	-0.21221	1.231751	1.739711
C	-0.508807	-1.271279	0.629838
H	-1.601115	-1.272705	0.569281
H	-0.204562	-1.313663	1.679412
H	-0.102154	-2.143778	0.110762
C	-1.488947	-0.019611	-2.230915
N	-2.329879	-0.057812	-3.049506
Cl	-3.872563	0.0	0.0
