15
Coordinates from ORCA-job run
  C   0.72647644088191     -0.01145692769127     -0.23698165394263
  C   -0.74031843034907      0.43021220880386     -0.26455717438091
  F   1.28531088961009      0.45250143742198     -1.42545617457483
  H   -0.74825071571153      1.49035251283803     -0.54242062524070
  N   1.47144586043588      0.81492976471523      0.82426472933405
  O   1.26688125038511      2.02259482939357      0.79201308169283
  O   2.22359559477976      0.22158364934149      1.58900919683435
  N   0.90438192045685     -1.36279294995017     -0.05482794256943
  H   1.61165438365771     -1.61767131368096      0.61524689296838
  H   0.05140402888663     -1.89873557875472     -0.03300762757516
  C   -1.31328790309296      0.29648196226428      1.07875395236465
  N   -1.78760081859348      0.18349450825054      2.14638481051015
  N   -1.44441211363159     -0.46183327500199     -1.18050333311422
  H   -1.07669218806093     -0.32380635179307     -2.11560653947587
  H   -2.43158819965439     -0.23585447615680     -1.19231159283066
