15
Coordinates from ORCA-job run
  C   0.71621655187656     -0.04262418524934     -0.20299485621984
  C   -0.69007826966525      0.51757386476981     -0.42022790509341
  F   1.48422310091638      0.17843487807170     -1.29782176741047
  H   -0.58633084520566      1.58422776438813     -0.62529085038838
  N   1.42355465066279      0.81577301810739      0.89445984448844
  O   2.23382341350262      0.22813663592438      1.60299830160758
  O   1.16153527817854      2.01346096005396      0.92111933351293
  N   0.70371283023338     -1.41123729134064      0.08961153891535
  H   1.64794041209468     -1.77104437263041      0.15459869597633
  H   0.21200208416996     -1.60475506691058      0.95354264543051
  C   -1.43716113775440      0.35466803055306      0.84644884406696
  N   -2.04755207651400      0.15112491766898      1.82992366773545
  N   -1.27306901908672     -0.13909421109479     -1.56849726149196
  H   -1.36745012789071     -1.13213009542256     -1.39753281102088
  H   -2.18036684551815      0.25548515311091     -1.77933742010860
