15
Coordinates from ORCA-job run
  C   0.65738440417415      0.07023340966741      0.05639399644924
  C   -0.83191646269436     -0.17109486169393     -0.17389514182523
  F   0.86142815087442      1.43192529588314      0.08871777600041
  H   -1.00468767157307     -1.23606837576012     -0.01135469012517
  N   0.99943938962541     -0.44071473286531      1.45748013347389
  O   0.53087506285981     -1.52913163316480      1.75914331540676
  O   1.74893803773699      0.25409133239822      2.12920912253272
  N   1.48733900662122     -0.61231209281707     -0.84151150348222
  H   2.46513454216944     -0.43091586201073     -0.64702804515692
  H   1.27889207565230     -0.36585245229339     -1.80157088382142
  C   -1.14425597847234      0.14946657662838     -1.58061242653284
  N   -1.39873695596314      0.43246179238846     -2.69228903390376
  N   -1.57269143647068      0.58591464377172      0.81204082893654
  H   -2.53737141372073      0.28563617458823      0.84383300214114
  H   -1.54177075081941      1.57536078527980      0.60244354990687
