15
Coordinates from ORCA-job run
  C   0.65326885093465      0.10296905153659      0.03995362398935
  C   -0.82708396653452     -0.21895398982504     -0.14641710938762
  F   0.79270133734390      1.47271671218029     -0.00853310350903
  H   -0.94867436190041     -1.27955032319556      0.07896914915502
  N   1.04700065599051     -0.31021992502980      1.45899994434194
  O   1.79800169483526      0.44419236242510      2.06174107948479
  O   0.61918680006109     -1.38945349841250      1.84241390852981
  N   1.49895049748721     -0.58970545676509     -0.83502958802142
  H   1.25951034865942     -0.41250474815109     -1.80294256317208
  H   2.46964156374121     -0.34830150808415     -0.67317275554354
  C   -1.17631114986343      0.00731541786228     -1.56295576942815
  N   -1.45744403114422      0.21692759675306     -2.68434801531955
  N   -1.58538351270801      0.55918442282980      0.80935176305366
  H   -2.53224513754158      0.21238324818105      0.88287166228473
  H   -1.61111958936106      1.53400063769505      0.53909777354210
