15
Coordinates from ORCA-job run
  C   0.67420265439606      0.14814726817773     -0.01774450102874
  C   -0.81138505979309     -0.10151411744024     -0.26978698819985
  F   0.90178968545208      1.47688003935380      0.09172281064798
  H   -0.95383824967403     -1.18505132961700     -0.31141281378538
  N   0.96147240046702     -0.45871479127507      1.37539560742706
  O   1.33019623156164      0.27261782479056      2.27860311944090
  O   0.81434749444296     -1.67726947391641      1.41642954462433
  N   1.50459949036500     -0.38607400312111     -1.01963539052420
  H   2.45973134860817     -0.06863577771400     -0.90641843227946
  H   1.46815462023768     -1.39693208933707     -1.02420205622422
  C   -1.17695392180603      0.47645134653970     -1.57585770692679
  N   -1.54894234488681      0.95747955676721     -2.58056114677350
  N   -1.55689889690431      0.41466331991947      0.86070171937759
  H   -1.54851289219167      1.42747375271866      0.85549967173944
  H   -2.51796256027462      0.10147847415367      0.82726656248485
