15
Coordinates from ORCA-job run
  C   0.69857277947732      0.04817094759721     -0.11379301524426
  C   -0.79257589825918      0.37196086784334     -0.20147321384543
  F   1.24470537672834      0.45389306111634     -1.34151222078591
  H   -0.88195924330792      1.43809433198091     -0.43604643532361
  N   1.41513954583423      0.94949851069226      0.87844829045697
  O   2.53973074182325      0.59283854843662      1.20755801256455
  O   0.84172056160795      1.97873578944807      1.22150933144155
  N   0.93123654029050     -1.26973548361107      0.22322526315362
  H   1.91142126135463     -1.51291084799031      0.23112192902770
  H   0.36023408674168     -1.88807086353495     -0.33789915407485
  C   -1.44635592701266      0.12764349368345      1.08523951592938
  N   -2.02297741307137     -0.05211445804518      2.09120235870192
  N   -1.34812601471236     -0.52358610698320     -1.21839649058923
  H   -2.35828334373087     -0.53866597420333     -1.15448444337060
  H   -1.09248305376350     -0.17475181643014     -2.13469972804184
