15
Coordinates from ORCA-job run
  C   0.62544246946955     -0.04783065307056     -0.20143671240425
  C   -0.81640248245020      0.47313574347457     -0.32826453971726
  F   1.24751125107048      0.10732205322404     -1.40522443524739
  H   -0.74692493002637      1.53624672246587     -0.57183271911255
  N   1.40581626987473      0.91519557474249      0.73903251227937
  O   1.35700075924021      2.10508306795492      0.44672739778955
  O   2.00578294418028      0.41418802828777      1.68441933471547
  N   0.68525768856317     -1.39110725250680      0.18040639787815
  H   0.28809002860074     -1.53520084927019      1.10055358998113
  H   1.64009595250549     -1.72839351292384      0.17539610192806
  C   -1.46125593344743      0.33287563207050      0.98333473466313
  N   -1.92923155741361      0.16843018958847      2.04749946357419
  N   -1.58633583649722     -0.19882866345666     -1.35141753773094
  H   -1.21757916123529      0.05033950501852     -2.26082500490551
  H   -1.49726746243449     -1.20245558559907     -1.23936858369112
