15
Coordinates from ORCA-job run
  C   0.64801468734672     -0.06412173400800     -0.10126993672094
  C   -0.73674461749569      0.51827600952713     -0.43246594363912
  F   1.45941733056471      0.11155767830620     -1.18353966799816
  H   -0.59390292665806      1.58641155455148     -0.61466530647527
  N   1.29909433300623      0.83105662962612      0.99195065428691
  O   1.34049408726889      2.03171965697298      0.74590176319178
  O   1.71894486603685      0.27209003622994      1.99991013394033
  N   0.60150132221922     -1.42210310566217      0.22616243451437
  H   1.53301649454753     -1.79709668676799      0.35697819285650
  H   0.05772070138837     -1.58548859527189      1.06445270063410
  C   -1.58781716033719      0.35387506141034      0.75274987566079
  N   -2.22752020095721      0.15897468520793      1.71779761998667
  N   -1.35513442363425     -0.08284432006596     -1.59302705793330
  H   -0.83432895159806      0.18137783840836     -2.42015565469359
  H   -1.32375554169798     -1.09268470846446     -1.50977980761106
