15
Coordinates from ORCA-job run
  C   0.70322784544840      0.23113787327905      0.19053924149417
  C   -0.69429697254640     -0.08554609269453     -0.38120636621591
  F   0.79174819804002      1.55116550573809      0.42922427890656
  H   -0.69305048707411     -1.14470498293203     -0.66043413330327
  N   0.77224090236319     -0.50235546863833      1.52562195937984
  O   1.07379491747201      0.12362747442448      2.52414942992633
  O   0.53374560431199     -1.70692638277385      1.44187176788655
  N   1.83896395463409     -0.17721573566071     -0.55344428233917
  H   1.96955799586201      0.41831894027521     -1.36111195193586
  H   1.78412714956630     -1.14937316752903     -0.82525415960447
  C   -0.85180721536162      0.70339189391554     -1.60548262105278
  N   -0.96850813473245      1.34347730602926     -2.58266634193446
  N   -1.70850351870174      0.22387457961054      0.61516515145103
  H   -2.45386860758381      0.79524100029413      0.24532404576000
  H   -2.09837163169789     -0.62611274333780      0.99770398158151
