15
Coordinates from ORCA-job run
  C   0.65958747222965      0.17804413280556      0.09932395212265
  C   -0.75598145988385     -0.10708080295113     -0.39867509471908
  F   0.78788786472259      1.49466804781725      0.38106584949213
  H   -0.82523650219592     -1.18417727037512     -0.57494709888146
  N   0.77826512241466     -0.56902698578241      1.44796986651826
  O   0.69957327391979     -1.78967329714892      1.33808453249594
  O   0.96749553662230      0.07103080107638      2.46834199255521
  N   1.65729884865105     -0.20209555358370     -0.81664529236655
  H   2.56504028542948      0.14180404710686     -0.52742562752659
  H   1.68273677033444     -1.20659117652123     -0.93326815601822
  C   -0.96256253992888      0.59945302245511     -1.67598745341632
  N   -1.21424119577633      1.18289165740922     -2.66364535706135
  N   -1.68717473010296      0.24471775763525      0.65471392470147
  H   -1.74040412545014      1.25107921451654      0.75615495317866
  H   -2.61228462098589     -0.10604359445964      0.44493900892518
