15
Coordinates from ORCA-job run
  C   0.64027894995011      0.09542115682018      0.13725840581250
  C   -0.79925212949401     -0.20117761047951     -0.27428305523555
  F   0.77862265033147      1.46380241334236      0.21805547056905
  H   -0.94622243643978     -1.27519184352598     -0.15098168931194
  N   0.84018270663852     -0.43209403359801      1.55910432920701
  O   0.35910949353780     -1.53018178934951      1.79889410572660
  O   1.51145537090721      0.26142101311158      2.31088219735609
  N   1.60101017211031     -0.53059553262983     -0.66625128482537
  H   1.49627959391583     -0.27471155831698     -1.64043140208568
  H   2.53907082451959     -0.30955710669727     -0.35342087648529
  C   -0.95124431664433      0.13541558538531     -1.70401550133554
  N   -1.07549927472965      0.43138772366814     -2.83428207772407
  N   -1.68457575677643      0.50605420250052      0.62511399683279
  H   -1.67727135341284      1.49890052213046      0.43024323979364
  H   -2.63094449441380      0.16010685763851      0.54311414170577
