15
Coordinates from ORCA-job run
  C   0.75066753860170      0.07096068373877     -0.08383639835731
  C   -0.68269398706338      0.31238848956578     -0.55848450930649
  F   1.54683473739347      1.12382299421907     -0.48562951386495
  H   -0.64757677403695      0.17577838098982     -1.65289270784731
  N   0.79885638788608      0.10669096742905      1.44217142062930
  O   1.35033657016610     -0.82411490470646      2.01893412579333
  O   0.31836297858763      1.10572070025712      1.95418680834670
  N   1.19527393671386     -1.18455079198549     -0.52497775669444
  H   1.95610586040422     -1.53195749329460      0.04448360871911
  H   1.45985401349134     -1.14311678798929     -1.50083691716815
  C   -1.14856729761934      1.68363076399753     -0.33458259508260
  N   -1.56980065848018      2.77609508144806     -0.25866754014206
  N   -1.52543254643077     -0.64161511935817      0.14282914457947
  H   -1.29799015333907     -1.57623163887488     -0.17319594669450
  H   -2.50423060627477     -0.45450132543629     -0.03050122291009
