15
Coordinates from ORCA-job run
  C   0.67352716346659      0.15851929130743     -0.13926285177768
  C   -0.80042042045907      0.24745227833769     -0.56590312535232
  F   1.30910338433484      1.32220304673847     -0.53408637065708
  H   -0.75734053018776      0.25456438342198     -1.66401599328776
  N   0.84618445588356      0.14034375587546      1.37510193389067
  O   1.99119077283999     -0.05299699245764      1.76762640611592
  O   -0.14141490813904      0.33871467445705      2.07455006480054
  N   1.27624369072495     -1.01032609020095     -0.62299832139183
  H   1.28254450358506     -1.02220883741917     -1.63522052997157
  H   2.22029540233161     -1.10149130435921     -0.26616071472083
  C   -1.37917910674189      1.53804567344860     -0.17501431868167
  N   -1.86328498857682      2.57202350633384      0.09391626617363
  N   -1.65526124201925     -0.84486538000788     -0.15602581208980
  H   -1.78705899968084     -0.81669206247348      0.84667791248770
  H   -1.21712917736199     -1.72428594300223     -0.40118454553788
