15
Coordinates from ORCA-job run
  C   0.79413390647929      0.22562710012213     -0.13999294846789
  C   -0.64130889477822      0.21844821381532     -0.66537916046196
  F   1.40676995523184      1.38327177310115     -0.51059273707120
  H   -0.50765667440335      0.24957522087988     -1.75163607111502
  N   0.81219800479885      0.29548258165255      1.40846537856924
  O   1.92573577441010      0.37538132981825      1.91166049208842
  O   -0.25664396986385      0.21898783201101      2.01133573619704
  N   1.50001161532043     -0.87880391934164     -0.61699239427240
  H   0.93595446069263     -1.71576512880740     -0.53526593662533
  H   2.40344124736068     -0.97298379324964     -0.17073111591706
  C   -1.36202336205275      1.44318538787334     -0.27894620181428
  N   -2.00006071584476      2.38680741712521      0.00556243001562
  N   -1.29368628495417     -1.03392141877029     -0.32376898301829
  H   -1.65954906846768     -0.98225715222897      0.61876695666887
  H   -2.05731599392907     -1.21703544400092     -0.96148544477573
