15
Coordinates from ORCA-job run
  C   0.67446321781104      0.18420907075692      0.22352357745785
  C   -0.71725934884339     -0.11980535952549     -0.35378352260548
  F   0.67457193621315      1.47586111641475      0.63127626408614
  H   -0.72807762153968     -1.18404470092731     -0.60409434120270
  N   0.81713194495402     -0.70657716482145      1.45179678412546
  O   0.89598172387842     -0.17805658656818      2.54543602846923
  O   0.84624358591631     -1.90693000019266      1.19465608537951
  N   1.81306205633898     -0.04739959668941     -0.58069218876959
  H   1.79681262677068      0.52974153117985     -1.41216496266371
  H   1.90185421204175     -1.02583070036897     -0.81914743873218
  C   -0.86290562297186      0.65649399195281     -1.60164507265847
  N   -0.98848308638331      1.29736170451628     -2.57840447149075
  N   -1.71400134189360      0.12672024333230      0.66456735803369
  H   -2.62008565658185     -0.22024480007956      0.37881249214749
  H   -1.78830862571062      1.11750125102009      0.85886340842354
