15
Coordinates from ORCA-job run
  C   0.63698715013731      0.20252903387608      0.15265810904859
  C   -0.77061516224146     -0.10394500883476     -0.41366822786115
  F   0.67789659012535      1.51934525782264      0.46161156274606
  H   -0.80936903433434     -1.18028920333029     -0.60779843286286
  N   0.73252152027816     -0.58934857343956      1.45057125870251
  O   0.73787966957486      0.02087289905746      2.50760067358893
  O   0.76013583355154     -1.80825762077587      1.29554686442655
  N   1.77724084826698     -0.13002293385758     -0.61380531887851
  H   1.79059262837660      0.39273283261199     -1.48102983557512
  H   1.82275952706658     -1.12412173443323     -0.79322160160656
  C   -0.86510611763861      0.59746429074957     -1.70240972073362
  N   -0.88334573345371      1.16785711831341     -2.72811196502812
  N   -1.87673779418455      0.25215111843590      0.44529974568738
  H   -1.75939243925829      1.18632852009026      0.81704613144465
  H   -1.97244748626643     -0.40429599628601      1.20871075690126
