15
Coordinates from ORCA-job run
  C   0.81315862035831      0.01289263646225     -0.07419090478212
  C   -0.58392316288595      0.33574988262182     -0.61786432903123
  F   1.68204949692989      0.94542781127033     -0.57704938109174
  H   -0.41055648836295      0.47152611322936     -1.69139114001541
  N   0.86131352366303      0.22603583716418      1.44948533269447
  O   1.93434880440190      0.54110061591514      1.93962103866652
  O   -0.17709874885254     -0.03403647462366      2.05150305439005
  N   1.19352672488987     -1.30049356463473     -0.32537647001637
  H   0.58754327403529     -1.79328635779900     -0.96216336838845
  H   2.18286628246573     -1.41852850296441     -0.47885084008819
  C   -1.04972867509556      1.63442153408340     -0.09475140490448
  N   -1.47558799586149      2.66042130781779      0.28619548184529
  N   -1.49207514318348     -0.78037197960786     -0.45419078689274
  H   -2.34257615178658     -0.61642604935562     -0.97797832405048
  H   -1.72426036071546     -0.88643280957900      0.52600204166488
