15
Coordinates from ORCA-job run
  C   0.85894483817690      0.14385530386246     -0.04015682743432
  C   -0.55788653571422      0.34006881652992     -0.61068959592869
  F   1.58824289632530      1.24218317614246     -0.39121522444624
  H   -0.42315277950469      0.33308581701143     -1.70490556618531
  N   0.76489623411148      0.14679423724413      1.48823018729457
  O   0.89266327439689     -0.92078717821321      2.07452699563436
  O   0.54650225038498      1.23987453215111      1.99222358400973
  N   1.51523282982789     -1.03164108989613     -0.42888940517020
  H   1.36278364357618     -1.28178615386366     -1.39425336026168
  H   1.35615850174108     -1.79363078303001      0.21326841266588
  C   -1.13121235065895      1.64483114493275     -0.27252157428521
  N   -1.66583926044406      2.66795118611643     -0.05972583950899
  N   -1.40543660791058     -0.73046140141258     -0.10288320237866
  H   -1.32625620113982     -1.55357571225053     -0.68452940641013
  H   -2.37564073316837     -0.44776189532458     -0.07747917759509
