15
Coordinates from ORCA-job run
  C   0.65252867057745      0.18606738047086      0.12708899677445
  C   -0.75634914683262     -0.06463001543607     -0.40712491968023
  F   0.72784275859082      1.43110267499094      0.64985629372910
  H   -0.78118971494493     -1.09174112070167     -0.78187327260898
  N   0.82255659335256     -0.79409509967866      1.31118151642033
  O   0.99807890459970     -0.34817251883547      2.43232069565439
  O   0.79542889340964     -1.97492056849847      0.97488784933086
  N   1.65268567916161      0.02918166404664     -0.84964098645239
  H   2.54825364449586      0.35545070722527     -0.50700669810068
  H   1.72119262111195     -0.93391011594135     -1.15130290428833
  C   -1.01134004245066      0.85820901865677     -1.52822824829719
  N   -1.30097836706092      1.60442690747336     -2.38757066118205
  N   -1.68680119252213      0.04133987199417      0.69889018324896
  H   -1.78222543406704      1.00738985376030      0.98785019152712
  H   -2.59868386742127     -0.30569863952664      0.43267196392461
