15
Coordinates from ORCA-job run
  C   0.59566940639606      0.24074691252454      0.09815709531560
  C   -0.80124666314329     -0.02836519993876     -0.48595148003588
  F   0.61387567973248      1.44637932358533      0.70914735325808
  H   -0.76982860366791     -1.00495607735669     -0.97806746445062
  N   0.76731886599513     -0.80326158313017      1.23159257787975
  O   0.75048619855069     -1.96756957420066      0.83505237688059
  O   0.91562451865406     -0.42317431465196      2.38351291607791
  N   1.62390784792855      0.17850474377338     -0.85229250890846
  H   1.68509466149328     -0.73248026613884     -1.28564888992429
  H   2.51706097819748      0.45538535598190     -0.46427210277900
  C   -1.06562182220818      0.99769921252140     -1.50405227651042
  N   -1.29367908225958      1.81335008779364     -2.31590772512989
  N   -1.86749684303823     -0.04638030607601      0.49011881656646
  H   -1.84564700202771     -0.89119155232732      1.04504623509075
  H   -1.82551814060284      0.76431323764023      1.09456507666947
