15
Coordinates from ORCA-job run
  C   0.79223941576212      0.21383191879094     -0.16461474335912
  C   -0.65973671415805      0.22764281483385     -0.64268094847043
  F   1.40876497824055      1.36336252939408     -0.55398211427933
  H   -0.56216865427991      0.25821872180835     -1.73277913503554
  N   0.86092051597208      0.28195998294192      1.38237462193270
  O   1.99128086832811      0.34083579380165      1.84992318941872
  O   -0.18937623969120      0.22537882912934      2.01901377804499
  N   1.46607621269822     -0.90005906942121     -0.66478484927465
  H   2.38089983865061     -1.00970721993918     -0.24622782342149
  H   0.89103121964651     -1.72793465705538     -0.56831820468489
  C   -1.34891991084120      1.46314564618733     -0.23345499161545
  N   -1.95644655903036      2.42525306403279      0.05594295058041
  N   -1.31836477178588     -1.01533260242115     -0.27993607603203
  H   -2.10396426798429     -1.18838604065013     -0.89322770457053
  H   -1.65323593152727     -0.95920971143326      0.67375205076663
