15
Coordinates from ORCA-job run
  C   0.62587857297428     -0.06976630862685     -0.20507325198940
  C   -0.79661733158251      0.50393343996984     -0.32126733434840
  F   1.24510315580682      0.06346158054843     -1.41280016693666
  H   -0.69019472903587      1.56433005438076     -0.56421937691312
  N   1.44470182189580      0.86348086362177      0.73201849283673
  O   1.45610111161105      2.05103102170354      0.42666129243268
  O   2.00929742360402      0.34433362280148      1.68939912614669
  N   0.63860051371670     -1.41494774824531      0.17487517082431
  H   0.24903469493538     -1.54584773351005      1.10013755313665
  H   1.57883270332539     -1.79040196481825      0.15432222163036
  C   -1.43974822398937      0.38717695606112      0.99373302734124
  N   -1.94518386384599      0.23551726407360      2.04250509846801
  N   -1.59894760671974     -0.13798672602472     -1.33845354939031
  H   -1.22246305830257      0.09065709250393     -2.25021822285597
  H   -1.55339518439337     -1.14397141443928     -1.22162008038281
