15
Coordinates from ORCA-job run
  C   0.75046806990601      0.03052189248616     -0.21024456344569
  C   -0.66436556410933      0.47598938589495     -0.64255964351731
  F   1.66092534985729      0.88224722298563     -0.72864103896754
  H   -0.55616464427418      0.63438742489117     -1.72122196972058
  N   0.85742456157672      0.16694527346091      1.32307224830235
  O   1.60741506611857      1.00191913606575      1.80195750810172
  O   0.13057065840293     -0.61535730018252      1.93787431939215
  N   1.03282550072423     -1.28284533838594     -0.64732710243701
  H   0.52390610169938     -1.95783890783556     -0.09185462068656
  H   2.02753401819960     -1.46550287872126     -0.57729658589666
  C   -0.97247889255281      1.77424841251270     -0.02688492358964
  N   -1.20808957955967      2.80368566935769      0.48517246522239
  N   -1.74695565221784     -0.45343752040621     -0.42912929855233
  H   -1.63434874304300     -1.26836610003184     -1.01671264241386
  H   -1.80866625072795     -0.72759637209162      0.54279584820856
