15
Coordinates from ORCA-job run
  C   0.62276244582310      0.01730542986520     -0.21239141398177
  C   -0.85087446404015      0.45562971522589     -0.25905814752767
  F   1.21043997901896      0.35464511359026     -1.39643921543870
  H   -0.85362934993308      1.54283649065198     -0.37037374966924
  N   1.36037756573526      0.90986839579508      0.82690005066687
  O   2.01012216001527      0.33964995575234      1.69721841590421
  O   1.23137972075845      2.12045416929453      0.68044943950381
  N   0.77429125307562     -1.35509288761838      0.00431754953460
  H   1.74814483509032     -1.62709821538785     -0.05158500298217
  H   0.40402678383242     -1.63359190858774      0.90461959317250
  C   -1.46128030969566      0.11555154968799      1.03232878044283
  N   -1.89746940097071     -0.20564823629550      2.07392853796615
  N   -1.59617512727422     -0.13504796689575     -1.34844493830985
  H   -1.25524006520533      0.24041765008301     -2.22483789077460
  H   -1.44787602623025     -1.13787925516111     -1.35663200850693
