15
Coordinates from ORCA-job run
  C   0.80050432127487      0.19908349239395     -0.14224416245487
  C   -0.63920681628959      0.25502174958514     -0.65351920605484
  F   1.45170341410257      1.34072638891159     -0.49640025120942
  H   -0.51500494576673      0.30663920274866     -1.74009341631057
  N   0.83455070724455      0.23773313005463      1.40682001719291
  O   1.95442707449173      0.27085312374920      1.90131616710120
  O   -0.23102117648288      0.18455581190717      2.01792158794795
  N   1.46045234167176     -0.92097060488297     -0.64708792006955
  H   2.36331093753478     -1.05851839026593     -0.21124037197878
  H   0.86524095745958     -1.73732484505740     -0.57989342449426
  C   -1.31060924942902      1.49662700255609     -0.23323006033378
  N   -1.90398065998929      2.46489844914655      0.06475284162721
  N   -1.33329997953336     -0.98041459264551     -0.33344974524234
  H   -1.68815641708055     -0.93731573201490      0.61368992253088
  H   -2.10891050920840     -1.12159418618625     -0.96734197825178
