14

C	-0.578028	0.102015	-1.403326
C	0.0	0.0	0.0
F	0.082409	-0.710092	-2.294932
H	1.097572	0.0	0.0
H	-1.631567	-0.190546	-1.385554
C	-0.491415	1.494698	-1.883297
N	-0.434109	2.591507	-2.296189
N	-0.436697	-1.294004	0.618221
O	-0.296338	-1.391881	1.836215
O	-0.882478	-2.181224	-0.111293
N	-0.556369	1.076604	0.815117
H	-0.399924	0.806113	1.782643
H	0.044631	1.8811	0.663151
Cl	3.255143	0.0	0.0
