14

C	-0.540454	0.036558	-1.421913
C	0.0	0.0	0.0
F	-0.127162	-1.072359	-2.130952
H	1.089871	0.0	0.0
H	-1.634837	0.01617	-1.393514
C	-0.109552	1.263816	-2.108547
N	0.148233	2.256865	-2.677406
N	-0.532943	-1.277203	0.608244
O	-1.750044	-1.457866	0.493496
O	0.237104	-2.011254	1.210789
N	-0.460763	1.08567	0.807966
H	-1.323602	1.506963	0.493048
H	0.270489	1.773311	0.915338
Cl	3.294134	0.0	0.0
