14

C	-0.561331	0.1408	-1.408555
C	0.0	0.0	0.0
F	-0.201336	-0.933211	-2.194231
H	1.087242	0.0	0.0
H	-1.655259	0.150462	-1.351887
C	-0.108026	1.392886	-2.028705
N	0.211305	2.394405	-2.55031
N	-0.542386	-1.316958	0.505316
O	-1.774053	-1.410145	0.518137
O	0.238523	-2.178874	0.883604
N	-0.448498	1.031155	0.882866
H	0.290366	1.701653	1.0342
H	-1.309485	1.480105	0.605032
Cl	3.296965	0.0	0.0
