14

C	-0.641798	0.001665	-1.380821
C	0.0	0.0	0.0
F	-0.386591	-1.167792	-2.068827
H	1.090023	0.0	0.0
H	-1.728398	0.075907	-1.253576
C	-0.187448	1.150877	-2.173736
N	0.12758	2.059824	-2.845781
N	-0.473725	-1.303088	0.633426
O	0.247729	-2.28637	0.556077
O	-1.599003	-1.279158	1.148524
N	-0.471573	1.150544	0.698665
H	-1.367512	0.973088	1.132564
H	0.210405	1.429141	1.391198
Cl	3.29225	0.0	0.0
