14

C	-0.526544	0.014588	-1.420709
C	0.0	0.0	0.0
F	-1.922716	0.081379	-1.385863
H	1.091411	0.0	0.0
H	-0.162545	0.941918	-1.867593
C	-0.154882	-1.106453	-2.293693
N	0.090906	-1.925432	-3.097251
N	-0.450041	-1.290796	0.679041
O	-1.09511	-1.19738	1.723329
O	-0.127215	-2.344031	0.140797
N	-0.452632	1.169227	0.67232
H	-1.402352	1.056398	1.000132
H	0.152302	1.351314	1.461546
Cl	3.239626	0.0	0.0
