14

C	-0.443662	0.04807	-1.459045
C	0.0	0.0	0.0
F	-1.80105	0.378103	-1.535223
H	1.090651	0.0	0.0
H	0.118054	0.859808	-1.92849
C	-0.246305	-1.180879	-2.237191
N	-0.153799	-2.120855	-2.934151
N	-0.543976	-1.271369	0.606786
O	-1.582839	-1.197791	1.259789
O	0.068503	-2.305785	0.351999
N	-0.432771	1.126914	0.750551
H	-1.30244	1.523399	0.429718
H	0.307404	1.808931	0.81784
Cl	3.25926	0.0	0.0
