14

C	-0.575253	0.070245	-1.407343
C	0.0	0.0	0.0
F	0.091209	-0.747862	-2.285889
H	1.097585	0.0	0.0
H	-1.627013	-0.231583	-1.384325
C	-0.501423	1.452915	-1.910123
N	-0.457798	2.542985	-2.342342
N	-0.427473	-1.286626	0.639494
O	-0.344603	-1.348851	1.864099
O	-0.80229	-2.204798	-0.083348
N	-0.559735	1.0904	0.79077
H	0.074371	1.87622	0.675985
H	-0.476638	0.80862	1.764326
Cl	3.254177	0.0	0.0
