19

C	-0.288075	0.017957	-1.506075
C	0.0	0.0	0.0
Cl	-2.099768	0.091643	-1.76262
H	1.09952	0.0	0.0
N	0.284553	1.160486	-2.190346
H	-0.025021	2.014776	-1.743039
H	1.293002	1.099691	-2.051044
C	0.222319	-1.245242	-2.169118
H	1.299094	-1.308792	-1.978683
H	0.038829	-1.184098	-3.243242
H	-0.257492	-2.121575	-1.740403
N	-0.463778	-1.24587	0.60418
H	-1.418253	-1.130631	0.926208
H	0.117263	-1.447157	1.408593
C	-0.462437	1.241924	0.756248
H	-0.019511	2.16105	0.365811
H	-1.552889	1.337214	0.734493
H	-0.139807	1.154492	1.79724
Br	3.602811	0.0	0.0
