19

C	-0.4825	0.024774	-1.450836
C	0.0	0.0	0.0
Cl	0.145475	-1.567429	-2.237531
H	1.099388	0.0	0.0
N	-1.900806	0.067468	-1.493082
H	-2.242412	-0.101769	-2.430764
H	-2.250103	-0.648469	-0.863232
C	0.164818	1.124056	-2.266932
H	1.248577	1.08232	-2.140106
H	-0.078229	1.005945	-3.326105
H	-0.21215	2.09237	-1.931401
N	-0.579542	-1.177082	0.669223
H	-0.045285	-1.987383	0.372073
H	-0.403544	-1.076297	1.663158
C	-0.451685	1.248427	0.750048
H	-0.045402	1.211328	1.765772
H	-1.540836	1.310583	0.79746
H	-0.057275	2.153387	0.2873
Br	3.691	0.0	0.0
