19

C	-0.315313	-0.053392	-1.517845
C	0.0	0.0	0.0
Cl	-0.037046	1.663914	-2.239397
H	1.098849	0.0	0.0
N	0.581898	-0.990129	-2.089959
H	0.524456	-0.997195	-3.10066
H	1.541263	-0.789772	-1.801829
C	-1.751705	-0.381123	-1.889166
H	-1.990723	-1.395852	-1.563392
H	-1.880059	-0.331639	-2.973236
H	-2.445938	0.329429	-1.435068
N	-0.409733	-1.23607	0.66946
H	0.05725	-2.013242	0.217581
H	-1.410788	-1.373146	0.574284
C	-0.560556	1.184306	0.760492
H	-0.141252	2.125657	0.411161
H	-0.304445	1.050654	1.812918
H	-1.654057	1.236006	0.677712
Br	3.655914	0.0	0.0
