19

C	-0.497623	0.020881	-1.45266
C	0.0	0.0	0.0
Cl	0.101429	-1.521838	-2.230929
H	1.099552	0.0	0.0
N	-1.938346	0.012845	-1.581924
H	-2.293322	-0.577825	-0.833737
H	-2.276856	0.955717	-1.42755
C	0.11995	1.154123	-2.2475
H	1.204224	1.140937	-2.119559
H	-0.268048	2.116869	-1.900351
H	-0.131672	1.039676	-3.303027
N	-0.581973	-1.166836	0.682532
H	-0.338271	-1.09298	1.664902
H	-0.098701	-1.991578	0.341036
C	-0.442173	1.248941	0.75433
H	-0.03917	2.156663	0.304031
H	-1.532657	1.316726	0.816422
H	-0.04468	1.202958	1.772403
Br	3.689431	0.0	0.0
