14

C	0.0	0.0	0.0
C	-0.322089	0.088619	-1.565206
Cl	1.760317	0.0	0.0
H	0.540157	0.608399	-1.994879
H	-0.425114	-0.858174	0.501534
N	-0.440233	1.21127	0.749381
O	-0.66705	1.070687	1.942936
O	-0.433769	2.279533	0.141176
N	-1.508367	0.700632	-2.094102
H	-2.242214	0.421683	-1.384925
H	-1.374048	1.698881	-1.993766
C	-0.22498	-1.308667	-2.031115
N	-0.125568	-2.415602	-2.409972
F	-2.54667	0.0	0.0
