14

C	0.0	0.0	0.0
C	-0.374643	-0.026391	-1.529331
Cl	1.757225	0.0	0.0
H	0.533462	0.242163	-2.076451
H	-0.406611	-0.835419	0.552698
N	-0.41302	1.229904	0.744835
O	-0.309764	2.304458	0.168183
O	-0.697132	1.069854	1.925508
N	-1.430513	0.852079	-1.983693
H	-2.213065	0.6003	-1.3227
H	-1.653632	0.587031	-2.937796
C	-0.593841	-1.463373	-1.830109
N	-0.729245	-2.582746	-2.160677
F	-2.539274	0.0	0.0
