14

C	0.0	0.0	0.0
C	-0.417147	0.072203	-1.53377
Cl	1.756554	0.0	0.0
H	0.507078	0.27991	-2.083986
H	-0.39585	-0.86251	0.517675
N	-0.410712	1.188695	0.811674
O	-0.659196	0.989846	1.992748
O	-0.347086	2.291622	0.27272
N	-1.423443	0.988092	-2.011911
H	-2.191974	0.805473	-1.332895
H	-1.069012	1.922997	-1.854645
C	-0.798796	-1.304537	-1.886615
N	-1.048635	-2.398257	-2.23303
F	-2.453804	0.0	0.0
