14

C	0.0	0.0	0.0
C	-0.366815	0.031564	-1.517939
Cl	1.756918	0.0	0.0
H	0.151823	-0.856269	-1.90407
H	-0.368923	-0.887739	0.492778
N	-0.451458	1.156051	0.834672
O	-0.560328	0.936093	2.034569
O	-0.56662	2.254779	0.302666
N	0.14353	1.163006	-2.286247
H	1.13902	1.253332	-2.127199
H	-0.296993	2.000157	-1.927599
C	-1.793367	-0.16356	-1.872106
N	-2.596413	-0.395302	-2.70993
F	-2.353661	0.0	0.0
