14

C	0.0	0.0	0.0
C	-0.459496	0.014323	-1.495353
Cl	1.757111	0.0	0.0
H	0.448218	0.079421	-2.105475
H	-0.375757	-0.863822	0.530632
N	-0.400198	1.171712	0.854618
O	-0.281384	2.297142	0.389168
O	-0.69337	0.902045	2.014761
N	-1.333141	1.104	-1.88759
H	-1.580141	0.945588	-2.858531
H	-2.151167	0.916454	-1.272525
C	-1.020588	-1.332081	-1.76208
N	-1.387911	-2.393175	-2.109166
F	-2.478526	0.0	0.0
