14

C	0.0	0.0	0.0
C	-0.569261	0.40678	-1.388306
Cl	1.74748	0.0	0.0
H	-1.381237	1.093903	-1.150812
H	-0.39353	-0.959777	0.309043
N	-0.417423	0.965642	1.076261
O	-0.497798	2.148598	0.77007
O	-0.54697	0.502747	2.202248
N	-1.211957	-0.697644	-2.081335
H	-0.605176	-1.511259	-2.07119
H	-2.009198	-0.830339	-1.434944
C	0.406501	1.079623	-2.257772
N	1.135414	1.635765	-2.992576
F	-2.571867	0.0	0.0
