14

C	0.0	0.0	0.0
C	-0.437702	0.187713	-1.514854
Cl	1.756884	0.0	0.0
H	0.486039	0.375718	-2.074199
H	-0.391236	-0.901523	0.45039
N	-0.40483	1.113758	0.917408
O	-0.33284	2.262112	0.485948
O	-0.657392	0.805333	2.073539
N	-1.406776	1.18156	-1.907288
H	-1.026331	2.085797	-1.659725
H	-2.181729	0.959579	-1.249336
C	-0.894131	-1.144918	-1.940103
N	-1.143662	-2.225581	-2.323119
F	-2.452179	0.0	0.0
