14

C	0.0	0.0	0.0
C	-0.291324	0.134552	-1.552926
Cl	1.757106	0.0	0.0
H	0.56616	0.688019	-1.948584
H	-0.42937	-0.877374	0.46358
N	-0.439701	1.180383	0.809183
O	-0.418504	2.275991	0.263722
O	-0.668211	0.962059	1.992159
N	-1.498131	0.785321	-2.019695
H	-2.215924	0.514824	-1.281535
H	-1.737066	0.367635	-2.910946
C	-0.140326	-1.254253	-2.055016
N	-0.0601	-2.328994	-2.525492
F	-2.565417	0.0	0.0
