14

C	0.0	0.0	0.0
C	-0.403276	0.062946	-1.482055
Cl	1.75604	0.0	0.0
H	0.115692	-0.815834	-1.901942
H	-0.382323	-0.890948	0.479125
N	-0.46058	1.142369	0.855452
O	-0.622456	2.237336	0.333479
O	-0.535533	0.909155	2.054836
N	0.17311	1.220199	-2.172643
H	-0.074159	1.09888	-3.149427
H	-0.337467	2.034081	-1.850974
C	-1.847309	-0.105019	-1.807872
N	-2.625737	-0.022605	-2.695627
F	-2.419505	0.0	0.0
