14

C	0.0	0.0	0.0
C	-0.419306	0.079504	-1.531174
Cl	1.756624	0.0	0.0
H	0.503855	0.290799	-2.082874
H	-0.3986	-0.862382	0.515864
N	-0.404924	1.188168	0.816865
O	-0.6545	0.985481	1.996974
O	-0.340287	2.293242	0.282423
N	-1.428457	0.996063	-2.00159
H	-1.086272	1.932463	-1.823634
H	-2.198967	0.798294	-1.326777
C	-0.805995	-1.294782	-1.88651
N	-1.046496	-2.396102	-2.213044
F	-2.466592	0.0	0.0
