15
Coordinates from ORCA-job run
  C   0.63069954746256      0.31333038212494      0.70741239834027
  C   -0.77008855680591     -0.05793178447069      0.13864883931640
  Cl  0.81605514068779     -0.17628939030453      2.38360727997176
  H   -1.47424761708858      0.55821838224211      0.71670929548990
  N   1.69020246641772     -0.39155772789686     -0.15071325713345
  O   1.70197381684608     -1.61070358479036     -0.08374242349816
  O   2.39656999527819      0.31801266745726     -0.85125351984576
  C   0.82911033184749      1.75365943637311      0.59080529653895
  N   0.87098723147186      2.92560675816831      0.50940359818162
  N   -1.09175565123949     -1.42570958485943      0.39874928249527
  H   -0.60464850117375     -2.04653124043547     -0.23370019414819
  H   -2.08860279321242     -1.57939056663445      0.34922844235549
  N   -0.70688041537908      0.26172079604354     -1.28203922405487
  H   -1.52925034028644     -0.10508855404660     -1.74362198547932
  H   -0.66812465482601      1.26165401102910     -1.44949382852991
