15
Coordinates from ORCA-job run
  C   0.68466541732634      0.07514936963181      0.62783929901052
  C   -0.51201670847580     -0.49179343783950     -0.16223592148713
  Cl  0.89654414135613     -0.76920038170945      2.17233216292739
  H   -0.28410778200123     -1.55347615858143     -0.31769623618739
  N   1.93518770748628     -0.18444906781909     -0.22096363941157
  O   2.12545315119657     -1.35329169018708     -0.52049815494841
  O   2.61364945406110      0.78197653722152     -0.53212424680720
  C   0.53745435164611      1.50472662031178      0.85071970894166
  N   0.36912791620487      2.65365745105125      1.02958382299235
  N   -0.49495968172663      0.17072170083354     -1.43898227496333
  H   -0.86574698954069     -0.41247719613238     -2.17541558127686
  H   -1.00899203846344      1.04295961519681     -1.39347994654985
  N   -1.72259035885464     -0.22129318327327      0.59194314645375
  H   -1.74952403129588     -0.75259578669326      1.45436916485237
  H   -2.52314454891909     -0.48961439201124      0.03260869645371
