15
Coordinates from ORCA-job run
  C   0.69963042010944      0.05122127634169      0.64721656883268
  C   -0.47577221396251     -0.58100532361681     -0.12908110185049
  Cl  1.17241574674313     -0.94371330802699      2.02692993062968
  H   -0.21889451521898     -1.63671767209161     -0.26510143065631
  N   1.91506175451242      0.12017838821215     -0.27963982915498
  O   2.63616883855593      1.10311996488454     -0.19605727699912
  O   2.07901157932605     -0.85575315591760     -1.00252596169429
  C   0.35819335394276      1.39914278033725      1.07723680840231
  N   -0.01404091920381      2.45432967782259      1.43531675306356
  N   -0.58326210268952      0.16592644046668     -1.37601693232154
  H   -1.54687420485577      0.18771080338769     -1.68113989705757
  H   -0.01814561973935     -0.24816866749036     -2.10684268206359
  N   -1.63564932428834     -0.49624520436336      0.71148597551065
  H   -2.34423723270947     -1.15966999222270      0.43203227743115
  H   -2.02260556052197      0.44064399227688      0.70718679792787
