15
Coordinates from ORCA-job run
  C   0.54935207655649      0.30620982819251      0.65417899546713
  C   -0.44898117606365     -0.12606259817774     -0.45311569074517
  Cl  -0.10453942006564      0.07225988359514      2.26086204390337
  H   0.10663174410809      0.00506239905891     -1.39069023259697
  N   1.80126813229006     -0.57260794735684      0.44340276204726
  O   2.36940530623109     -0.35235982493567     -0.61946461067772
  O   2.09431411078094     -1.39630337947458      1.28653812978960
  C   0.95031706738881      1.69466076906329      0.46699641542073
  N   1.20975165040394      2.82573256099042      0.27920992310095
  N   -1.63936793349031      0.69666933627261     -0.33830805200161
  H   -2.33992237064131      0.34795430747334     -0.98097469942102
  H   -1.44801063730642      1.66342764230036     -0.58049946130179
  N   -0.70050466085679     -1.52882301555440     -0.28928849619672
  H   -1.40752969427507     -1.68035457047080      0.41992788355698
  H   -0.99118419506023     -1.95546539097653     -1.15777491034502
