15
Coordinates from ORCA-job run
  C   0.63260081710741      0.28674771400074      0.71592312655669
  C   -0.77145237332472     -0.05270241443354      0.13741569411985
  Cl  0.81206222104201     -0.25003138229519      2.37809158588472
  H   -1.46963773679765      0.55435216570175      0.73219124593637
  N   1.68466435340452     -0.40746756789794     -0.16096548116317
  O   2.39977099213630      0.31244290081137     -0.84190453415038
  O   1.68296226276326     -1.62802565167366     -0.12619834103178
  C   0.85015192822907      1.72694817075053      0.63726642708921
  N   0.91029413828558      2.89971976185573      0.58549471066077
  N   -1.10898696873753     -1.42342678944606      0.35918021322705
  H   -0.62794409672504     -2.03218980440868     -0.28937310148799
  H   -2.10749311673579     -1.56380723004447      0.30469898721927
  N   -0.70456994069739      0.30467284125929     -1.27442606519236
  H   -0.64983891952902      1.30811401596385     -1.41436014110092
  H   -1.53458356042101     -0.03534673014372     -1.74303432656733
