15
Coordinates from ORCA-job run
  C   0.54085604841016      0.30881844665207      0.60216588030406
  C   -0.52420937261861     -0.10182710001399     -0.48572982756342
  Cl  -0.07768958932830      0.13147216912915      2.22886031090171
  H   0.02805551285799     -0.04214792861466     -1.43574299872512
  N   1.72439361055372     -0.63744205358287      0.36645917111735
  O   1.82359120794711     -1.62913107771136      1.07115222732236
  O   2.41391810673469     -0.34499043575389     -0.60439840379661
  C   0.99881258573588      1.67052413457314      0.37581490686428
  N   1.28777153718475      2.78849528870001      0.15409189669129
  N   -1.63202834397437      0.81121022655780     -0.36059653802527
  H   -1.39297765759367      1.73872112721739     -0.68960042906158
  H   -2.39471200741559      0.45012619491911     -0.91948486028274
  N   -1.02930737518874     -1.43179484932022     -0.34627572821816
  H   -0.33332694434155     -2.14132079869828     -0.52910399697070
  H   -1.43214731896348     -1.57071334405341      0.57238838944254
