15
Coordinates from ORCA-job run
  C   0.61043235666399      0.30919093066874      0.59476769782883
  C   -0.49117928767063     -0.12847858770570     -0.40701348610907
  Cl  0.10897380379397      0.10418990577560      2.25929746310950
  H   -0.02576451388073     -0.01458973517694     -1.39471612720894
  N   1.82956733986662     -0.58472595487226      0.28023768115253
  O   2.29783300570850     -0.38354281023320     -0.83385369648505
  O   2.19270260442255     -1.40044616685178      1.10358677814906
  C   1.00446687145915      1.69076434168708      0.35020274451118
  N   1.25497566748634      2.81680495691982      0.12378680334307
  N   -1.65981179910137      0.70507212158338     -0.19152931936746
  H   -2.41483506145461      0.36469889765366     -0.77431966115069
  H   -1.48074023646569      1.67058073936250     -0.44747240258760
  N   -0.73709884927076     -1.52691134810703     -0.20094313883874
  H   -1.11136588638032     -1.96176433492926     -1.03281376860815
  H   -1.37815601517702     -1.66084295577461      0.57178243226154
