15
Coordinates from ORCA-job run
  C   0.67862089513810     -0.01026290231404      0.58549107358155
  C   -0.55239461104323     -0.53698540385327     -0.20829772213374
  Cl  0.86902023034456     -0.87994147796379      2.11281784358992
  H   -0.35236200805166     -1.60102784970837     -0.35896178932754
  N   1.91889514768483     -0.26898858662655     -0.27043320601905
  O   2.11720225252120     -1.44006686466687     -0.55254717372510
  O   2.57573337448512      0.70310388102197     -0.61205903958220
  C   0.53974552534686      1.41655038139324      0.83333079525952
  N   0.28251223414605      2.54847300390449      1.02005500922916
  N   -0.48736122276545      0.12973844711314     -1.48559895576805
  H   -0.82708441756703      1.08325940987486     -1.41131542715003
  H   -1.08209233588226     -0.35615792487640     -2.14524468576822
  N   -1.81388254630524     -0.39910904750892      0.47217595143835
  H   -1.85823692672980     -0.95714833593483      1.31532775210203
  H   -2.00931559132205      0.56856327014534      0.70425957427341
