15
Coordinates from ORCA-job run
  C   0.67648791800805      0.00585291717737      0.64616485982929
  C   -0.55808492619170     -0.60226287298880     -0.08416726973508
  Cl  1.09796596561637     -0.89777322672945      2.09591219763035
  H   -0.33768587247465     -1.66913032390477     -0.17225969226866
  N   1.84769734096970     -0.08980553923120     -0.33347738137218
  O   2.13508504142804     -1.22268334339521     -0.69310024922686
  O   2.35169054046321      0.95719008559340     -0.71996576806093
  C   0.43280116597465      1.40608114099226      0.96025439567754
  N   0.11074610679391      2.51282896182268      1.19176475862980
  N   -0.74948769783205     -0.07403409171768     -1.41417392121354
  H   -0.83370887670276      0.93564663275712     -1.42688475119771
  H   -0.03802154450600     -0.37048859153839     -2.06929972954248
  N   -1.68646288902238     -0.42753316530728      0.79186857809441
  H   -2.44899142302705     -1.00181199993065      0.45468456067046
  H   -2.00203084949734      0.53692341640061      0.77167941208558
