15
Coordinates from ORCA-job run
  C   0.64647502149517      0.30817015445302      0.67332988448596
  C   -0.77972013001650     -0.00263864119653      0.15688271136996
  Cl  0.93836470325139     -0.28424358010733      2.31118964650415
  H   -1.42098123157449      0.67242771161045      0.73261414251554
  N   1.69631503364560     -0.35230308984629     -0.23078040655179
  O   1.35689912603068     -1.38890540341472     -0.79232796068172
  O   2.79401782307530      0.17874946409228     -0.28422329546001
  C   0.87725490554987      1.74817404837233      0.63011028975834
  N   1.00827965944137      2.91535763139212      0.64893310044514
  N   -1.19156489046124     -1.34490847775682      0.47221011542799
  H   -2.19285215841422     -1.43434007835709      0.36670547445125
  H   -0.72524598926774     -2.01761976491836     -0.12026450587733
  N   -0.78188100097955      0.46172488740792     -1.22404161263699
  H   -0.54218604574421     -0.29197205435239     -1.85541986842802
  H   -1.68517482603142      0.83332719262140     -1.48391771532245
