15
Coordinates from ORCA-job run
  C   0.54861706739221      0.33312342314741      0.74103256513698
  C   -0.78864356891616      0.03391575704461      0.01289955755027
  Cl  0.41891063037952     -0.10038474978101      2.44751359534934
  H   -1.55615523308547      0.50741159478900      0.64160808839278
  N   1.63643202492419     -0.52956563499843      0.06496075184895
  O   2.05335992072885     -1.51239206658206      0.64571764128832
  O   1.93799778514976     -0.13937036687368     -1.05571665768734
  C   0.93555200286898      1.72974923558270      0.61517020290174
  N   1.24305658919616      2.86301394542307      0.57861817022208
  N   -0.89998909084588     -1.41209237551602     -0.09728826691711
  H   -0.96807447364958     -1.85516424134368      0.81241998985071
  H   -1.73446517201689     -1.63961807234565     -0.62313691176335
  N   -0.80790277140762      0.70197313501284     -1.25578729777277
  H   -1.75432077020775      0.82783109812947     -1.58708471535083
  H   -0.26337494051034      0.19356931831143     -1.94092671304977
