15
Coordinates from ORCA-job run
  C   0.65406270910405      0.07009359207699      0.60928114759104
  C   -0.52035133603963     -0.57738369750763     -0.18040789234254
  Cl  0.82191560931478     -0.65938427060497      2.21082297111336
  H   -0.26936118191797     -1.63998713781370     -0.23253154484199
  N   1.93767293437535     -0.20161123452891     -0.17711597047149
  O   2.19592339587647     -1.38166708138627     -0.35313987974306
  O   2.56603958099312      0.76799146822154     -0.57469263517754
  C   0.44455897211147      1.50481445343252      0.72823018122331
  N   0.13435733483533      2.63624152217657      0.80569047328523
  N   -0.43311857979551     -0.01753615157579     -1.50676519509166
  H   -0.97352964622292     -0.58752006719643     -2.14529358503568
  H   -0.82163779063322      0.91980298947408     -1.52830130017229
  N   -1.81280208609550     -0.44080748324959      0.43990112252867
  H   -2.05836006960856      0.53313633798879      0.57993226632179
  H   -1.86636984629728     -0.92618323950721      1.32638984081286
