13
Coordinates from ORCA-job run
  C   1.10840140433313      0.22241337778432     -0.14272891379941
  C   -0.40535962548850     -0.01190752293618     -0.18120847279715
  H   1.37239209550236      0.61347789501794      0.84421766932809
  H   -0.65590648474458     -0.50385826379948     -1.13212999536539
  H   1.40274057383931      0.97537877465214     -0.88073422120969
  C   1.85028976053421     -1.00798942694897     -0.40382759506879
  N   2.45083367610721     -1.98658933489624     -0.64271044982348
  N   -1.04806743642734      1.29382992720725     -0.01340291541204
  H   -2.05465468568792      1.17227682360616     -0.02217780760289
  H   -0.81368069280506      1.91127320829093     -0.78399978933325
  N   -0.76134700309255     -0.93083045723851      0.87376286343411
  H   -1.68598198312923     -1.31521473861208      0.72779590508962
  H   -0.75865959894103     -0.43226026212729      1.75714372256027
