13
Coordinates from ORCA-job run
  C   0.93394671102369     -0.13595629044067     -0.63824366279238
  C   -0.26005905597485      0.27908694987543      0.22775614838187
  H   0.60614036397808     -0.92229847517059     -1.32445958944209
  H   0.09362073806946      0.99084764922879      0.98759014753709
  H   1.28102825199639      0.70435569210908     -1.24787900533776
  C   2.04657150517632     -0.61886789557948      0.17497498040470
  N   2.95408429990368     -0.97915977545906      0.82457771120495
  N   -0.74870298404959     -0.88122854310331      0.93415643755969
  H   -1.35167808111504     -0.61519339765822      1.70204773926330
  H   -1.28448819853023     -1.45447644752042      0.29129984119008
  N   -1.27039492685260      0.84117075218954     -0.67195090714172
  H   -0.91901204135992      1.67587724295924     -1.12998002736538
  H   -2.08205658226538      1.11584253856966     -0.12988981346235
