13
Coordinates from ORCA-job run
  C   1.12258812125670      0.18945043885772     -0.25290961838518
  C   -0.40836442822696      0.11179608071023     -0.24938771662587
  H   1.44579838680747      0.73112795939316      0.64100409203614
  H   -0.72503130737620     -0.37698556296455     -1.18273369598632
  H   1.44639477718401      0.75072905675389     -1.13126777684104
  C   1.73232146269351     -1.13818004501145     -0.25558240181093
  N   2.17070638873517     -2.22689086383784     -0.25527033704618
  N   -0.91821362284075      1.46708041404980     -0.28786714929348
  H   -0.85970031222524      1.85208094692078      0.64942625572743
  H   -1.89333997294305      1.46967568566725     -0.56061297925390
  N   -0.83322765670894     -0.59798782546350      0.95475497499314
  H   -0.43694581583762     -1.53208406680060      0.98426779320781
  H   -1.84198602051809     -0.69881221827489      0.94717855927837
