13
Coordinates from ORCA-job run
  C   0.93444549630385     -0.10055202557304     -0.66617739219007
  C   -0.24640154960734      0.38270824330101      0.18738313477068
  H   1.44947664689860      0.77011155220349     -1.07499485106729
  H   0.15306804613285      1.02646160220347      0.97879582399623
  H   0.53379226127308     -0.65428627196923     -1.52469761818934
  C   1.89295838916592     -0.95074079426366      0.04676629788843
  N   2.61312497935858     -1.61096050392731      0.70061117602418
  N   -0.94456442750446     -0.79689265836223      0.71548622030237
  H   -0.31968843020878     -1.38599477125232      1.24159299488380
  H   -1.66808759098564     -0.48695882348007      1.34542742254164
  N   -1.10424438687811      1.19511338200047     -0.64281184463793
  H   -1.77913923532368      0.63225053654610     -1.14242942230142
  H   -1.51474019862487      1.97974053257332     -0.16295194202127
