13
Coordinates from ORCA-job run
  C   1.00477444567098     -0.54199215687920      0.14238169431112
  C   -0.39287452445009     -0.09289028782464     -0.29390736271881
  H   1.13284364367566     -0.34871562729280      1.21468252777049
  H   -0.49157102499582     -0.27460204441387     -1.36829697166264
  H   1.09379167770525     -1.62025987578519     -0.00360990214757
  C   2.06642264068362      0.14379802574694     -0.58915529329615
  N   2.93123777197036      0.66433883372283     -1.18646998307312
  N   -0.50065906591909      1.34357211400758     -0.09781950807505
  H   -0.47783060350074      1.56810624235073      0.89112529545639
  H   -1.37155945202626      1.69335546175102     -0.47864558822753
  N   -1.35376325515788     -0.96931899753218      0.37049147880096
  H   -1.35186091266602     -0.78665679766247      1.36895197422197
  H   -2.28895134098998     -0.77773489018876      0.03027163863993
