13
Coordinates from ORCA-job run
  C   0.91642288960813     -0.50392765757673      0.19138010556047
  C   -0.44421153921843      0.00389807021134     -0.32115014863174
  H   0.95437703486556     -1.59451959004714      0.11883190564919
  H   -0.51066269332922     -0.21995270160746     -1.39063433936718
  H   1.01729793851187     -0.24937065433315      1.25343756620521
  C   2.04559318836854      0.05946799579287     -0.54537270409682
  N   2.95565828342047      0.48570794190264     -1.15054066139845
  N   -0.47442338556547      1.44019472890494     -0.17229967083692
  H   -1.37459291733661      1.78153111431770     -0.48818171355097
  H   -0.38053667249322      1.69157868563488      0.80630815321028
  N   -1.58161682657078     -0.65778251231540      0.31358280707274
  H   -1.50391961031710     -0.59734101066014      1.32373838917655
  H   -1.61938568994374     -1.63948441022433      0.06190031100764
