13

C	-0.432073	0.040094	-1.432986
C	0.0	0.0	0.0
Br	-2.385831	0.077337	-1.675314
H	1.095524	0.0	0.0
H	-0.05	0.916042	-1.948733
H	-0.360734	-0.915954	0.476725
N	0.059911	-1.152816	-2.196878
O	-0.098077	-2.258063	-1.688482
O	0.584245	-0.933613	-3.28635
N	-0.41232	1.242144	0.649404
H	0.379479	1.564096	1.196854
H	-1.195179	1.085773	1.27093
H	2.848626	0.0	0.0
