13

C	-0.450495	0.038671	-1.426775
C	0.0	0.0	0.0
Br	-2.406965	0.064673	-1.654061
H	1.097566	0.0	0.0
H	-0.082325	0.917294	-1.949764
H	-0.355985	-0.913757	0.48359
N	0.040684	-1.151142	-2.192448
O	-0.096041	-2.254768	-1.673819
O	0.537773	-0.933614	-3.295402
N	-0.407648	1.243353	0.655157
H	-1.116669	1.066675	1.354315
H	0.415235	1.603315	1.126176
H	2.833341	0.0	0.0
