13

C	-0.477172	-0.027188	-1.43215
C	0.0	0.0	0.0
Br	-0.022169	1.574421	-2.410393
H	1.098512	0.0	0.0
H	-0.030424	-0.86562	-1.965034
H	-0.333645	-0.944663	0.443035
N	-1.969547	-0.262418	-1.475985
O	-2.749173	0.656068	-1.682951
O	-2.291231	-1.426175	-1.225103
N	-0.603318	1.118887	0.73312
H	0.007931	1.918816	0.600127
H	-0.540711	0.896108	1.719854
H	2.932566	0.0	0.0
