13

C	-0.444837	0.041127	-1.429234
C	0.0	0.0	0.0
Br	-2.401442	0.100948	-1.646892
H	1.095496	0.0	0.0
H	-0.059739	0.911831	-1.952181
H	-0.360805	-0.914126	0.480058
N	0.022869	-1.160106	-2.195965
O	0.53371	-0.951007	-3.294795
O	-0.14196	-2.261654	-1.681408
N	-0.404538	1.243852	0.653342
H	-1.168305	1.084783	1.295514
H	0.398521	1.572164	1.178941
H	2.847825	0.0	0.0
