19

C	0.0	0.0	0.0
C	-0.31958	0.207943	-1.507003
Br	1.991662	0.0	0.0
H	0.117536	1.194622	-1.749586
N	-0.456256	1.062337	0.844743
H	-0.370959	1.954931	0.370141
H	-1.440498	0.902886	1.050216
C	-0.492395	-1.328583	0.530211
H	-0.150938	-1.469163	1.556996
H	-0.138893	-2.140578	-0.101709
H	-1.587883	-1.317223	0.518279
C	-1.81044	0.260347	-1.799775
H	-2.265959	-0.7254	-1.736312
H	-2.378215	0.898195	-1.127454
H	-1.949654	0.647155	-2.815144
N	0.254428	-0.864052	-2.323487
H	-0.134041	-0.80004	-3.255446
H	1.256599	-0.751761	-2.391452
Br	-4.745473	0.0	0.0
