19

C	0.0	0.0	0.0
C	-0.318787	-0.138003	-1.512615
Br	2.006223	0.0	0.0
H	0.138393	0.752098	-1.981949
N	-0.432443	1.235954	0.581159
H	-0.33505	1.995642	-0.083558
H	-1.41468	1.151812	0.832765
C	-0.500473	-1.162445	0.823816
H	-0.145317	-1.07074	1.851759
H	-0.166395	-2.102564	0.38949
H	-1.596127	-1.135212	0.822141
C	-1.809571	-0.117653	-1.794218
H	-2.303253	-1.015733	-1.428892
H	-2.330906	0.717723	-1.335175
H	-1.965162	-0.056291	-2.876961
N	0.229101	-1.385039	-2.04788
H	1.222123	-1.289346	-2.215297
H	-0.224151	-1.585605	-2.930776
Br	-4.750458	0.0	0.0
