19

C	0.0	0.0	0.0
C	-0.358099	-0.152734	-1.500935
Br	2.071127	0.0	0.0
H	0.174931	0.656603	-2.018219
N	-0.473626	1.216938	0.494217
H	-0.275976	1.373959	1.471971
H	-0.208163	2.014938	-0.066076
C	-0.437332	-1.147332	0.882337
H	-1.530924	-1.181139	0.878061
H	-0.096303	-0.991215	1.90856
H	-0.02948	-2.093697	0.530335
C	-1.854297	0.018146	-1.729842
H	-2.459351	-0.710762	-1.188481
H	-2.050358	-0.10024	-2.797987
H	-2.222877	0.986565	-1.400194
N	0.07015	-1.40337	-2.112109
H	-0.543363	-2.148852	-1.805311
H	1.018399	-1.62747	-1.834467
Br	-5.053103	0.0	0.0
