19

C	0.0	0.0	0.0
C	-0.475692	-0.139509	-1.44474
Br	2.088009	0.0	0.0
H	-1.567652	-0.090581	-1.319219
N	-0.442414	1.215423	0.492124
H	-0.293771	1.974747	-0.156066
H	-0.18329	1.417272	1.444035
C	-0.410649	-1.144669	0.897222
H	-1.503788	-1.206776	0.842159
H	-0.116714	-0.937698	1.92975
H	0.050618	-2.084368	0.59536
C	-0.107203	-1.4543	-2.119069
H	0.978172	-1.578726	-2.175054
H	-0.512078	-1.455198	-3.135133
H	-0.536659	-2.310796	-1.595729
N	-0.06779	1.051884	-2.193048
H	0.86693	0.912545	-2.563308
H	-0.704888	1.187937	-2.96849
Br	-4.066105	0.0	0.0
