19

C	0.0	0.0	0.0
C	-0.46224	-0.1385	-1.474303
Br	1.982976	0.0	0.0
H	-1.556293	-0.1363	-1.38375
N	-0.454003	1.212094	0.63312
H	-0.316063	1.988834	-0.003461
H	-1.463557	1.095009	0.754675
C	-0.447508	-1.170484	0.858176
H	-1.536461	-1.245803	0.775614
H	-0.181529	-0.968521	1.897264
H	0.015935	-2.106321	0.547029
C	-0.039552	-1.428726	-2.164806
H	-0.372059	-2.313207	-1.618638
H	-0.497685	-1.443147	-3.155997
H	1.046098	-1.475954	-2.287256
N	-0.106699	0.990279	-2.334369
H	0.867044	1.240657	-2.191845
H	-0.681462	1.793647	-2.110969
Br	-3.895845	0.0	0.0
