17

C	-0.485734	0.038677	-1.438388
C	0.0	0.0	0.0
Br	0.245617	-1.554288	-2.471141
H	1.094563	0.0	0.0
H	-0.014176	0.867357	-1.967169
N	-1.901234	0.127411	-1.559447
H	-2.173442	0.174279	-2.533125
H	-2.337472	-0.690546	-1.151726
C	-0.493508	-1.20723	0.788348
H	-1.58002	-1.18625	0.941571
H	-0.022409	-1.204015	1.774225
H	-0.220241	-2.142555	0.297128
C	-0.422745	1.304515	0.684057
H	-0.066551	2.170778	0.119072
H	-1.50886	1.379319	0.783049
H	0.03625	1.352564	1.675225
Br	3.698019	0.0	0.0
