15

C	0.0	0.0	0.0
C	-0.560556	-0.043277	-1.421245
Cl	1.7839	0.0	0.0
H	-1.614901	0.262067	-1.32159
H	-0.345554	-0.898809	0.511053
C	-0.406946	1.162464	0.795256
N	-0.625442	2.07986	1.494193
C	-0.479018	-1.427034	-2.021921
H	-1.126265	-2.076701	-1.429703
H	-0.8488	-1.418623	-3.045431
H	0.543489	-1.81113	-2.02488
N	0.116295	0.983701	-2.272394
O	0.206316	2.117102	-1.805507
O	0.509337	0.655082	-3.391513
Cl	-3.389765	0.0	0.0
