18
Coordinates from ORCA-job run
  C   -0.80579487982822      0.30736920149965     -0.06845958333733
  C   0.67698052176963      0.27974071769221     -0.46036483075681
  H   -1.13978674230837      1.33902629738484     -0.20031458053842
  H   0.72218135799262      0.56456624064141     -1.51397090793133
  N   -0.93599059520054      0.07209134851260      1.41185938941093
  O   -1.03683253520627     -1.08998154066688      1.79654151960972
  O   -0.90654908078280      1.06971964603811      2.13139373018500
  C   -1.68545719078518     -0.65954172749466     -0.83429471256448
  H   -2.73002802180425     -0.51525852159824     -0.55246227403212
  H   -1.41240485187511     -1.69245152681751     -0.62793123263208
  H   -1.58284104699990     -0.47989158892950     -1.90599155048645
  N   1.17063776526122     -1.14147368025760     -0.44904481103349
  O   1.62285222773395     -1.57833626524503      0.60604236201138
  O   1.05968107421358     -1.76996252898521     -1.50097068540408
  C   1.57645659038152      1.15599065874329      0.38719110370317
  H   2.59280835546898      1.14051302077728     -0.01050409890830
  H   1.20891484351491      2.18361655699110      0.37173209306205
  H   1.60517220845423      0.81326369171413      1.41954906964263
