18
Coordinates from ORCA-job run
  C   -0.85318973107634      0.14956455818277     -0.28123690987848
  C   0.63923618444639      0.48872825020808     -0.42665920043166
  H   -1.35074268329288      0.42123752412804     -1.21438211913186
  H   0.71533286058005      1.47478106424090     -0.88924739377021
  N   -1.37807492800954      1.12857002324272      0.73290093693886
  O   -1.40962876053525      2.30406971010759      0.37379004952253
  O   -1.68926520009190      0.70954691621800      1.84449523033807
  C   -1.15658177664250     -1.27969648659171      0.10788071062930
  H   -2.22881949576278     -1.40349106547969      0.26309279298963
  H   -0.64739811104306     -1.57297999050553      1.02410102398495
  H   -0.85257143471044     -1.94834948470315     -0.69980064059081
  N   1.15566876413187     -0.46491084484929     -1.46918949507575
  O   0.73480369647049     -0.28732318265678     -2.61069956577649
  O   1.90874359671332     -1.36783105507093     -1.11468155743809
  C   1.44642206363671      0.41640924356870      0.84984828652284
  H   2.50033525749552      0.59500307810899      0.63428778808474
  H   1.10634168675061      1.19172792719124      1.53915490211831
  H   1.36138801093971     -0.55405618533995      1.33534516096412
