14

C	-0.48339	-0.088725	-1.427756
C	0.0	0.0	0.0
F	-0.224083	-1.389186	-1.904473
H	1.093926	0.0	0.0
H	-1.574134	0.02051	-1.469423
H	-0.333432	0.964752	0.400635
C	0.227129	0.889172	-2.335965
H	-0.079886	0.738374	-3.373697
H	1.30573	0.745679	-2.247459
H	-0.01005	1.916733	-2.046866
N	-0.605477	-1.073165	0.801526
H	-0.282407	-1.944429	0.393104
H	-0.184845	-1.035459	1.724782
Br	3.790611	0.0	0.0
