14

C	-0.471449	-0.081974	-1.447156
C	0.0	0.0	0.0
F	-0.211751	1.144875	-2.07824
H	1.09404	0.0	0.0
H	0.125867	-0.833996	-1.973419
H	-0.317853	-0.916963	0.511457
C	-1.94998	-0.365734	-1.624062
H	-2.551006	0.394043	-1.118748
H	-2.20203	-1.345113	-1.21007
H	-2.21687	-0.354074	-2.683288
N	-0.474115	1.1597	0.749498
H	-1.469573	1.292892	0.612998
H	-0.004891	1.977842	0.3817
Br	3.793264	0.0	0.0
