16

C	0.0	0.0	0.0
C	-0.461977	-0.251086	-1.428908
F	1.389117	0.0	0.0
H	-1.545729	-0.40297	-1.389581
H	0.012976	-1.182843	-1.756799
N	-0.448945	1.308644	0.416197
H	-1.46776	1.300047	0.330675
H	-0.239573	1.42909	1.401505
C	-0.431099	-1.125582	0.922556
H	-0.051827	-2.08579	0.561597
H	-1.520927	-1.151968	0.973447
H	-0.019931	-0.948435	1.922263
N	-0.065179	0.849685	-2.321313
H	-0.835813	1.027679	-2.955641
H	0.014052	1.676457	-1.735947
Br	-3.921363	0.0	0.0
