16

C	0.0	0.0	0.0
C	-0.44651	0.28001	-1.420578
F	1.432648	0.0	0.0
H	-0.196687	1.328928	-1.65264
H	-1.535806	0.186914	-1.424893
N	-0.45081	1.04831	0.842318
H	-0.005835	1.922794	0.598164
H	-0.288225	0.837458	1.816884
C	-0.469438	-1.339871	0.505985
H	-0.137142	-2.120887	-0.176371
H	-1.560772	-1.322364	0.554815
H	-0.053988	-1.527158	1.500956
N	0.152067	-0.680235	-2.347794
H	1.13118	-0.454232	-2.466008
H	-0.301954	-0.600415	-3.24836
Br	-4.290194	0.0	0.0
