16

C	0.0	0.0	0.0
C	-0.406605	-0.171489	-1.455933
F	1.418292	0.0	0.0
H	-1.49916	-0.183201	-1.473645
H	-0.031231	-1.14133	-1.820368
N	-0.441099	1.239149	0.568687
H	-0.425206	1.92499	-0.181423
H	-1.42032	1.115024	0.824409
C	-0.439931	-1.166922	0.853702
H	-0.122758	-0.985977	1.882833
H	0.029837	-2.086543	0.495203
H	-1.527072	-1.265421	0.817354
N	0.084637	0.9712	-2.23201
H	-0.358795	0.981989	-3.141171
H	1.083035	0.870041	-2.367316
Br	-3.961805	0.0	0.0
