16

C	0.0	0.0	0.0
C	-0.404668	-0.238983	-1.447142
F	1.412494	0.0	0.0
H	-0.111294	0.661118	-2.016879
H	-1.495297	-0.309215	-1.46206
N	-0.452933	1.263444	0.511682
H	-1.451858	1.164444	0.69583
H	-0.363598	1.967758	-0.215138
C	-0.438408	-1.116029	0.919691
H	-1.528836	-1.165814	0.932368
H	-0.034094	-2.060562	0.557724
H	-0.06418	-0.90559	1.923849
N	0.1851	-1.470619	-1.973005
H	-0.213408	-1.671417	-2.881415
H	1.179988	-1.325914	-2.09065
Br	-3.946714	0.0	0.0
