16

C	0.0	0.0	0.0
C	-0.351489	-0.05428	-1.490207
F	1.429457	0.0	0.0
H	0.19008	-0.905605	-1.916802
H	0.091993	0.845558	-1.940099
N	-0.485948	1.205325	0.562552
H	-0.348963	1.247133	1.563025
H	-0.063073	2.00895	0.117715
C	-0.489305	-1.188817	0.787693
H	-0.102614	-1.146007	1.810278
H	-1.580605	-1.173723	0.813787
H	-0.139432	-2.115095	0.326909
N	-1.746533	-0.137218	-1.855141
H	-2.124794	-1.050902	-1.641353
H	-2.318184	0.495158	-1.301781
Br	-4.693733	0.0	0.0
