16

C	0.0	0.0	0.0
C	-0.446285	0.280429	-1.420558
F	1.432958	0.0	0.0
H	-1.535579	0.187308	-1.42507
H	-0.196446	1.329421	-1.652247
N	-0.450727	1.048056	0.842587
H	-0.005534	1.922551	0.598899
H	-0.288581	0.836796	1.817131
C	-0.469356	-1.340043	0.505541
H	-0.053955	-1.527628	1.500474
H	-1.5607	-1.322611	0.554301
H	-0.136986	-2.120825	-0.177048
N	0.152444	-0.679538	-2.347957
H	1.131623	-0.453624	-2.465732
H	-0.301259	-0.5993	-3.248643
Br	-4.289844	0.0	0.0
