16

C	0.0	0.0	0.0
C	-0.454574	-0.091882	-1.45563
F	1.404025	0.0	0.0
H	-1.496095	-0.422388	-1.434033
H	0.151093	-0.854445	-1.959491
N	-0.439193	1.191797	0.664151
H	-0.328159	1.948117	-0.006621
H	-1.440353	1.087449	0.828952
C	-0.428998	-1.225449	0.780336
H	-0.031139	-1.145876	1.793982
H	-1.518325	-1.287454	0.815312
H	-0.025016	-2.126826	0.310429
N	-0.335245	1.209623	-2.130378
H	0.19814	1.120242	-2.984035
H	-1.262252	1.533739	-2.373218
Br	-3.933157	0.0	0.0
