16

C	0.0	0.0	0.0
C	-0.429843	0.061049	-1.455561
F	1.416357	0.0	0.0
H	-1.51661	-0.052376	-1.481668
H	-0.17442	1.06832	-1.815757
N	-0.447676	1.197047	0.660104
H	-0.337266	1.071865	1.661618
H	-1.454234	1.254952	0.495232
C	-0.41034	-1.292032	0.67667
H	0.008283	-1.315539	1.688568
H	-1.500102	-1.3289	0.729981
H	-0.03835	-2.147158	0.111521
N	0.199295	-1.018261	-2.219412
H	-0.200045	-1.03722	-3.149101
H	1.185998	-0.810884	-2.309341
Br	-3.944595	0.0	0.0
