16

C	0.0	0.0	0.0
C	-0.303016	0.240765	-1.494855
F	1.402932	0.0	0.0
H	0.369468	1.056824	-1.773772
H	0.044692	-0.653508	-2.026542
N	-0.464763	1.118332	0.7778
H	-0.324178	0.912312	1.762157
H	-1.473352	1.1679	0.642131
C	-0.460395	-1.349175	0.513421
H	-0.047494	-2.16149	-0.091487
H	-0.129898	-1.48302	1.548784
H	-1.552788	-1.386774	0.486712
N	-1.637975	0.572513	-1.935873
H	-2.343494	-0.063879	-1.578518
H	-1.91201	1.478774	-1.57925
Br	-4.321649	0.0	0.0
