17

C	-0.500423	-0.005861	-1.432425
C	0.0	0.0	0.0
F	0.238137	0.698182	-2.275896
H	1.093935	0.0	0.0
N	-0.519673	-1.45185	-1.942239
O	-1.591681	-2.041925	-1.917386
O	0.557945	-1.871587	-2.327612
N	-1.94618	0.460149	-1.559042
O	-2.651821	0.313495	-0.567758
O	-2.286179	0.902737	-2.646494
N	-0.441447	-1.123937	0.731538
H	0.2045	-1.315568	1.483519
H	-1.382915	-1.013006	1.080419
N	-0.377532	1.341329	0.61573
O	-0.524373	1.369388	1.831736
O	-0.461136	2.305623	-0.141021
Cl	3.17257	0.0	0.0
