17

C	-0.432662	0.004027	-1.462946
C	0.0	0.0	0.0
F	0.266706	0.823972	-2.227164
H	1.091908	0.0	0.0
N	-0.270127	-1.405796	-2.059638
O	0.699414	-1.583543	-2.777486
O	-1.134586	-2.22328	-1.759171
N	-1.915106	0.302552	-1.668142
O	-2.233171	0.745159	-2.76227
O	-2.661311	0.029961	-0.736677
N	-0.422178	-1.068638	0.80917
H	0.322539	-1.722445	0.987856
H	-1.294011	-1.499389	0.556197
N	-0.419284	1.342732	0.597844
O	-0.325489	1.459278	1.808297
O	-0.777199	2.225759	-0.184832
Cl	3.171884	0.0	0.0
