17

C	-0.61069	0.182174	-1.37791
C	0.0	0.0	0.0
F	-1.948859	0.322725	-1.341937
H	1.099291	0.0	0.0
N	-0.107815	1.358816	-2.184496
O	-0.244239	1.268797	-3.399536
O	0.282228	2.32969	-1.548994
N	-0.293447	-1.057386	-2.203182
O	0.886957	-1.197899	-2.475366
O	-1.23447	-1.776505	-2.498198
N	-0.445763	-1.268134	0.48012
H	-1.387204	-1.215167	0.847828
H	0.202234	-1.608495	1.178905
N	-0.470344	1.132456	0.917115
O	0.336206	1.986623	1.260992
O	-1.643083	1.057447	1.300283
Cl	3.239486	0.0	0.0
