17

C	-0.509577	-0.007509	-1.429341
C	0.0	0.0	0.0
F	0.228349	0.692597	-2.278835
H	1.093913	0.0	0.0
N	-0.544276	-1.451725	-1.938205
O	-1.613237	-2.045336	-1.871417
O	0.518873	-1.873203	-2.364625
N	-1.954216	0.46816	-1.547751
O	-2.652688	0.333453	-0.550421
O	-2.29918	0.902896	-2.636336
N	-0.436704	-1.122596	0.737202
H	-1.373934	-1.009625	1.095696
H	0.21708	-1.311204	1.484599
N	-0.3734	1.342846	0.614752
O	-0.454522	2.305912	-0.14352
O	-0.518309	1.372722	1.83039
Cl	3.168484	0.0	0.0
