17

C	-0.516029	0.0058	-1.427017
C	0.0	0.0	0.0
F	0.219957	0.705604	-2.275866
H	1.093942	0.0	0.0
N	-0.562401	-1.436753	-1.945807
O	-1.636177	-2.020255	-1.884533
O	0.497218	-1.861405	-2.37308
N	-1.958275	0.491078	-1.532496
O	-2.306025	0.942025	-2.614085
O	-2.653138	0.34938	-0.533127
N	-0.435945	-1.12789	0.729454
H	-1.36994	-1.014819	1.09606
H	0.221942	-1.327144	1.468941
N	-0.367933	1.338323	0.628164
O	-0.514947	1.357203	1.84426
O	-0.441889	2.309825	-0.120245
Cl	3.16842	0.0	0.0
