17

C	-0.518922	-0.003282	-1.425964
C	0.0	0.0	0.0
F	0.212427	0.694306	-2.281158
H	1.093929	0.0	0.0
N	-0.560507	-1.448792	-1.935277
O	-1.633552	-2.034165	-1.875368
O	0.502533	-1.873646	-2.354255
N	-1.963664	0.473571	-1.531702
O	-2.655381	0.333012	-0.530086
O	-2.316716	0.916009	-2.61545
N	-0.434234	-1.123739	0.736823
H	0.226377	-1.320545	1.474163
H	-1.366554	-1.008292	1.106847
N	-0.370265	1.341117	0.619628
O	-0.447765	2.307118	-0.135392
O	-0.516121	1.367951	1.835748
Cl	3.168236	0.0	0.0
