17

C	-0.516176	0.003492	-1.426884
C	0.0	0.0	0.0
F	0.219802	0.702165	-2.276178
H	1.093929	0.0	0.0
N	-0.562928	-1.440039	-1.944007
O	-1.63589	-2.023865	-1.876135
O	0.495033	-1.865309	-2.375875
N	-1.959098	0.487304	-1.534574
O	-2.307003	0.934716	-2.617597
O	-2.65441	0.347243	-0.535709
N	-0.436342	-1.125411	0.733076
H	-1.371648	-1.01039	1.097107
H	0.219978	-1.320214	1.475795
N	-0.367478	1.340727	0.622833
O	-0.442654	2.309185	-0.129567
O	-0.512955	1.364375	1.839116
Cl	3.168431	0.0	0.0
