15

C	0.0	0.0	0.0
C	-0.497377	0.023754	-1.496379
Cl	1.748014	0.0	0.0
H	-1.602842	0.068606	-1.4255
H	-0.384795	0.868867	0.553466
N	-0.477176	-1.19923	0.830169
O	0.264405	-2.223466	0.920282
O	-1.818698	-1.313551	0.957674
C	-0.219321	-1.262576	-2.246006
H	-0.695042	-1.201575	-3.227055
H	-0.631104	-2.117177	-1.697242
H	0.854702	-1.386321	-2.353071
C	-0.114119	1.240563	-2.190968
N	0.151525	2.263738	-2.711141
H	-1.638504	0.0	0.0
