15

C	0.0	0.0	0.0
C	-0.49735	0.116131	-1.44441
Cl	1.747813	0.0	0.0
H	-1.592859	0.207695	-1.336309
H	-0.363861	0.860127	0.583548
N	-0.611389	-1.164079	0.673748
O	-0.357485	-1.251625	1.899641
O	-1.777677	-1.420973	0.13895
C	-0.145602	-1.090593	-2.314801
H	-0.556211	-0.954867	-3.31841
H	0.9353	-1.220303	-2.398949
H	-0.590583	-1.975352	-1.863386
C	0.004995	1.347657	-2.050855
N	0.397757	2.317702	-2.585792
H	-2.831844	0.0	0.0
