15

C	0.0	0.0	0.0
C	-0.49703	0.024014	-1.496274
Cl	1.74791	0.0	0.0
H	-1.602119	0.077796	-1.424839
H	-0.384862	0.868709	0.553765
N	-0.476294	-1.199732	0.829151
O	-1.819278	-1.315087	0.95287
O	0.264356	-2.225891	0.912689
C	-0.229151	-1.267685	-2.241206
H	-0.697776	-1.203487	-3.225478
H	-0.653693	-2.116674	-1.693573
H	0.844155	-1.404075	-2.341479
C	-0.104137	1.234379	-2.19669
N	0.173736	2.250847	-2.723371
H	-1.63949	0.0	0.0
