15

C	0.0	0.0	0.0
C	-0.497365	0.023656	-1.49605
Cl	1.748204	0.0	0.0
H	-1.602766	0.065123	-1.426124
H	-0.383429	0.870057	0.552471
N	-0.474026	-1.196584	0.834147
O	0.2639	-2.226462	0.912174
O	-1.820557	-1.313588	0.949633
C	-0.214633	-1.260285	-2.248567
H	0.859428	-1.376709	-2.36375
H	-0.698007	-1.20238	-3.22616
H	-0.616474	-2.117504	-1.696819
C	-0.117809	1.243085	-2.188905
N	0.1498	2.266095	-2.708072
H	-1.639059	0.0	0.0
