15

C	0.0	0.0	0.0
C	-0.497512	0.023766	-1.496113
Cl	1.747949	0.0	0.0
H	-1.602781	0.073001	-1.425108
H	-0.384796	0.86906	0.553407
N	-0.475374	-1.198661	0.832555
O	-1.81983	-1.31657	0.949241
O	0.265486	-2.224844	0.918791
C	-0.22454	-1.264906	-2.243916
H	0.849093	-1.394653	-2.348578
H	-0.642038	-2.116995	-1.69559
H	-0.697585	-1.202036	-3.226168
C	-0.109366	1.237788	-2.192952
N	0.164924	2.257537	-2.715158
H	-1.64019	0.0	0.0
