10
Coordinates from ORCA-job run
  C   0.69308243328576     -0.08052240411996     -0.15657843508207
  C   -0.63921232376102     -0.28423052078912     -0.39460038755434
  H   -0.93144081170219     -0.91630729715181     -1.22822698898342
  C   1.67982585092533     -0.68693614048822     -0.98667968121577
  N   2.48471823594482     -1.19601127022537     -1.67653759554050
  C   1.08564320332401      0.73961682342940      0.94159851157316
  N   1.30881769558015      1.42742640412478      1.87039607603761
  N   -1.64581145778581      0.27280751785486      0.30462399502907
  H   -2.58534752713606     -0.05455182910719      0.17101916484263
  H   -1.45027529867498      0.77870871647263      1.15498534089362
