10
Coordinates from ORCA-job run
  C   0.64995254026936      0.29160715050325      0.06101556224469
  C   -0.71449174636325      0.36669407802537     -0.01594804352100
  H   -1.19189799074649      1.33704475872112      0.08534872780182
  C   1.28410962729782     -0.97947513012194     -0.06079949312355
  N   1.71268951805580     -2.07043891423872     -0.16890297921469
  C   1.43073615629035      1.46484490749500      0.27144748662457
  N   2.06383022073692      2.43968938470891      0.44980993816309
  N   -1.53621714965503     -0.67361923020345     -0.25022161593115
  H   -1.17318527271120     -1.61463393592967     -0.24402773343164
  H   -2.52652590317429     -0.56271306895987     -0.12972184961215
