10
Coordinates from ORCA-job run
  C   0.64538869218310      0.29494336195224      0.08211514022180
  C   -0.72066679776682      0.35603366325675      0.02546428573284
  H   -1.21120356973580      1.30725141505646      0.21034508598038
  C   1.29617079253330     -0.95196611094361     -0.15201210806803
  N   1.74125621106086     -2.02278736631033     -0.35399790757859
  C   1.41407865699532      1.45885643111496      0.37395620101926
  N   2.04118136002666      2.42372049964649      0.61577893125172
  N   -1.53033865477338     -0.67269887350220     -0.28902153244799
  H   -2.52012955583327     -0.58827525243958     -0.14493529283950
  H   -1.15473713468997     -1.60507776783118     -0.36969280327189
