10
Coordinates from ORCA-job run
  C   0.69094825533188     -0.07048961559850     -0.16546246508755
  C   -0.64131756368851     -0.28597095681178     -0.39282190635195
  H   -0.93642243249112     -0.89953296173570     -1.23901740588036
  C   1.67666768128328     -0.63638105519928     -1.02516632581817
  N   2.48394279420882     -1.10733907210228     -1.73875498718868
  C   1.08677204303794      0.72780295761024      0.94777995695191
  N   1.31583944964441      1.39383859960446      1.89091410283344
  N   -1.64656147897900      0.24262599310066      0.33030759323000
  H   -1.44756164179689      0.73331633788010      1.18853957247326
  H   -2.58230710655082     -0.09787022674792      0.20368186483809
