10
Coordinates from ORCA-job run
  C   0.68616120189585     -0.04025148381635     -0.19850383441461
  C   -0.64421073070851     -0.31855946340128     -0.36025637782873
  H   -0.95029231989819     -0.95448563413944     -1.18585907295867
  C   1.65500542618218     -0.57202769036565     -1.09783760368785
  N   2.44703228670913     -1.01761139790383     -1.84421100881568
  C   1.09431455855477      0.78687809706205      0.88887180640669
  N   1.32838912937929      1.47372639187084      1.81578932317444
  N   -1.63622147559068      0.16967774737752      0.40756031206479
  H   -2.56324764956073     -0.20577721446015      0.32373345309852
  H   -1.41793042696310      0.67843064777628      1.25071300296111
