10
Coordinates from ORCA-job run
  C   0.64151511221352      0.29945577823167      0.09988912141920
  C   -0.68252529330048      0.34793422338731     -0.24317951688118
  H   -1.12223706405149      1.30665316558594     -0.50312361635298
  C   1.22274132154906     -0.95452364002409      0.44992571510013
  N   1.60898738916296     -2.03183702310434      0.72511860962760
  C   1.43302816353465      1.48425799675617      0.11386988228419
  N   2.07723129470440      2.46795221560226      0.12396312475669
  N   -1.49990118840789     -0.71812592650789     -0.32960086039625
  H   -2.48897118454819     -0.58136782700332     -0.43128505419500
  H   -1.18886855085654     -1.62139896292372     -0.00657740536239
