10
Coordinates from ORCA-job run
  C   0.64274894271283      0.30022639927485      0.09143827686247
  C   -0.68355962256416      0.34380393509735     -0.24342115274629
  H   -1.12384556185362      1.29874909602833     -0.51595302514658
  C   1.22601505285614     -0.94813012223484      0.45790628627289
  N   1.61042999192143     -2.02160073167805      0.75030760625096
  C   1.43456696885905      1.48499627767596      0.07558938597777
  N   2.07692006385589      2.46961372781597      0.05727750062044
  N   -1.50184145955845     -0.72331991300917     -0.31002880511892
  H   -2.49239443439302     -0.58576178362966     -0.39594701318465
  H   -1.18903994183609     -1.61957688534075      0.03083094021190
