10
Coordinates from ORCA-job run
  C   0.70827607182615     -0.02277840085776     -0.09206370373823
  C   -0.56912750735776     -0.41039276599047     -0.39406127623259
  H   -0.72707756364410     -1.11013360319197     -1.20957184692343
  C   1.81657510735654     -0.52717464073474     -0.83220979442955
  N   2.72531053794897     -0.94727390241907     -1.44911208967564
  C   0.91929267184045      0.90122058876031      0.97318133142226
  N   0.99058002469603      1.66626703982400      1.86483964095310
  N   -1.67267790396088     -0.02997134544891      0.27798351858376
  H   -1.61202682330048      0.69804660208331      0.97330229295340
  H   -2.57912461540492     -0.21680957202470     -0.11128807291307
