10
Coordinates from ORCA-job run
  C   0.65367718737458      0.27489487937621      0.08407051800149
  C   -0.70299553299241      0.38682549589213     -0.05704991508950
  H   -1.14569933274022      1.37774908964274     -0.09785515550674
  C   1.24331383370511     -1.02231357338748      0.13388077000443
  N   1.63653214309207     -2.13142838862450      0.16274055402084
  C   1.47304200612369      1.43670531524253      0.18122868691525
  N   2.14051625632121      2.40183441239832      0.25792109187849
  N   -1.56423389681494     -0.64655737512601     -0.10866074656665
  H   -1.21555597111167     -1.59027761100416     -0.18052364097990
  H   -2.51859669295742     -0.48743224440977     -0.37575216267771
