10
Coordinates from ORCA-job run
  C   0.70705549474007     -0.04349701402972     -0.09044671886889
  C   -0.58209575762447     -0.37050593321998     -0.41328009819534
  H   -0.75989460192951     -1.02787826762870     -1.25947261136950
  C   1.79908386246352     -0.55898310778561     -0.84689405926330
  N   2.69257197837591     -0.98751164680981     -1.47997248238682
  C   0.94857039373830      0.82310744952579      1.01566857879753
  N   1.04729203598385      1.54383651602597      1.94108249636516
  N   -1.67494205069577      0.02481251806726      0.26631866200488
  H   -2.58663486941591     -0.12113577601646     -0.12737682251863
  H   -1.59200648563599      0.71675526187126      0.99537305543491
