10
Coordinates from ORCA-job run
  C   0.64715388095575      0.30291264316208      0.00088728513892
  C   -0.71658571492381      0.35017682575925      0.10616674372893
  H   -1.19836097390707      1.31369998689393      0.24466275427064
  C   1.28599322566932     -0.95767719005053     -0.18784471794686
  N   1.71694678862252     -2.04202439172519     -0.34310247160669
  C   1.42464541761037      1.49495356209880      0.07386678742917
  N   2.05863043863933      2.48368583072144      0.13054220829010
  N   -1.53141012338020     -0.72166338420899      0.09708472254978
  H   -1.16301711823144     -1.63229524769811     -0.13121131041545
  H   -2.52299582105477     -0.59276863495267      0.00994799856147
