10
Coordinates from ORCA-job run
  C   0.70628164270046      0.00024427409894     -0.11238702025460
  C   -0.56775680159769     -0.41817516218473     -0.38680181688678
  H   -0.72783661913033     -1.10653296338072     -1.21153527587614
  C   1.80705146233925     -0.45892422481885     -0.89195542386091
  N   2.70905785558902     -0.84202449413584     -1.54181731994625
  C   0.92110036375586      0.90911987794068      0.96505559900229
  N   0.99408110951977      1.65925275733987      1.86925597752456
  N   -1.66294469235028     -0.07745811143036      0.31753064195798
  H   -2.57504362900354     -0.29806374373733     -0.03848178595376
  H   -1.60399069182251      0.63256179030834      1.03113642429361
