10
Coordinates from ORCA-job run
  C   0.66504143739873      0.26091473202771      0.03833654055188
  C   -0.69431013244636      0.40431080760475     -0.03356927807738
  H   -1.11434749079059      1.40447878992633     -0.08827943688603
  C   1.22165858784263     -1.05021106054308      0.10442748318482
  N   1.58199606254951     -2.16981957447414      0.15223977637954
  C   1.51833540667743      1.40203789827326      0.04302992102424
  N   2.21472206673877      2.34959107637883      0.04451477697732
  N   -1.58208532615267     -0.60685831377537      0.00087478563673
  H   -2.54689104798425     -0.43259358549620     -0.21350292323010
  H   -1.26211956383320     -1.56185076992210     -0.04907164556102
