10
Coordinates from ORCA-job run
  C   0.69921914043983     -0.03670866638110     -0.14249400301174
  C   -0.59942695249137     -0.43242196150680     -0.31534009854582
  H   -0.82070325713763     -1.19398962382983     -1.05750737347509
  C   0.99742982552637      0.96607557161392      0.82624767561143
  N   1.14285911275040      1.79865320638098      1.64545670022889
  C   1.74437752363020     -0.61635125525275     -0.91870202607571
  N   2.59802600396653     -1.10084056374049     -1.56636938439094
  N   -1.64839568249572      0.01764504226980      0.39862711613270
  H   -1.53180882340905      0.79653806947291      1.02868750781778
  H   -2.58257689077955     -0.19659981902663      0.10039388570850
