10
Coordinates from ORCA-job run
  C   0.61789907317069      0.35810822729568      0.00811274210849
  C   -0.74450782722713      0.28671199800409     -0.10085259343623
  H   -1.31021432580502      1.20692086960141     -0.21461626073008
  C   1.28450585264416      1.61722982813215     -0.02775314991759
  N   1.82432770212222      2.66158361708230     -0.05601252399784
  C   1.36728452257135     -0.84429917560008      0.16744400779459
  N   1.89732254740250     -1.88666093174169      0.30139857222354
  N   -1.46146132231645     -0.85266591686919     -0.12224136051778
  H   -2.46086401925783     -0.81461911754727     -0.03735321092685
  H   -1.01429220330448     -1.73330939835740      0.08187377739976
