10
Coordinates from ORCA-job run
  C   0.64377725463065      0.30598239905268      0.05798874004763
  C   -0.72421099414711      0.34599551472083      0.04321574339714
  H   -1.22153212706011      1.30646038518486      0.14290721804498
  C   1.40530716215007      1.50127006638342      0.20529653164217
  N   2.02383620668740      2.49432204082350      0.32398459570154
  C   1.30247755472316     -0.95140493468479     -0.07738439107491
  N   1.75197035288484     -2.03244862824193     -0.19908308278384
  N   -1.52956161104985     -0.72873647557943     -0.04579987891894
  H   -2.51205064853980     -0.60460566654874     -0.20898847315599
  H   -1.13901315027927     -1.63783470111041     -0.24113700289977
