10
Coordinates from ORCA-job run
  C   0.62026970060212      0.35126332380170      0.05343805170532
  C   -0.73497063324960      0.29772894750582     -0.13024675211755
  H   -1.28457461051373      1.22719075662544     -0.24804109443136
  C   1.29961190370035      1.60339983914853      0.08927424787717
  N   1.85040587852591      2.64194796494007      0.12001418987084
  C   1.34870488489250     -0.86361613661309      0.21561912881393
  N   1.86080851762265     -1.91580762298173      0.34285299610285
  N   -1.46089216082805     -0.83206486909339     -0.22146898840655
  H   -1.03523330335666     -1.72444806138293     -0.02252726204425
  H   -2.46313017739550     -0.78459414195041     -0.19791451737041
