10
Coordinates from ORCA-job run
  C   0.69031590513512     -0.08400630927458     -0.16533552542023
  C   -0.64645341968462     -0.26246315163147     -0.39873349663310
  H   -0.95392853300666     -0.85324517342564     -1.25679125426985
  C   1.10287964038394      0.68425049972592      0.96266613292174
  N   1.34428234746773      1.32900960780730      1.91742059587515
  C   1.66247037970279     -0.66214465280473     -1.03212852249832
  N   2.45655135981794     -1.14606388388053     -1.75202159262303
  N   -1.63978760454333      0.27536286124558      0.33320171118162
  H   -2.58527489051115     -0.03035991427510      0.19231134350201
  H   -1.43105518476176      0.74966011651326      1.19841060796402
