10
Coordinates from ORCA-job run
  C   0.65289177271113      0.28932998932343      0.02654326392578
  C   -0.71116608345916      0.37319551536108     -0.04843146969080
  H   -1.17687162528801      1.35442941459109     -0.05390125491090
  C   1.27017014245225     -0.99585771223447      0.04172002808044
  N   1.68550663571347     -2.09718589234531      0.05472220769173
  C   1.45204556485434      1.46716135280924      0.09468745109055
  N   2.10328183496063      2.44437923996531      0.15523819667215
  N   -1.54638033943743     -0.67648951720978     -0.15905641702725
  H   -2.53513105174384     -0.54195979133058     -0.05095559767206
  H   -1.19334685076340     -1.61600259893000     -0.06056640815963
