10
Coordinates from ORCA-job run
  C   0.64414390158268      0.30059579583833      0.07318149950766
  C   -0.69010471264930      0.34278358926419     -0.22890974492337
  H   -1.13564238759363      1.29512433588304     -0.50140629708065
  C   1.23545393594006     -0.94442899039625      0.43822362136439
  N   1.63059853154802     -2.01475493765943      0.72783103688473
  C   1.43774371967663      1.48313245550951      0.02462689344816
  N   2.08259268021255      2.46542217533511     -0.01972114851869
  N   -1.51155564228694     -0.72310365785611     -0.25984584650693
  H   -1.19083949168275     -1.61762388209892      0.07782081707036
  H   -2.50339053474731     -0.58714688381946     -0.33180083124566
