10
Coordinates from ORCA-job run
  C   0.70161676879073     -0.03856137430222     -0.13265081724411
  C   -0.60941612510223     -0.27533779135762     -0.44629551983147
  H   -0.83987577703977     -0.83869972768768     -1.34593563018247
  C   1.74837565511013     -0.51933839537603     -0.97145307675798
  N   2.60546575895144     -0.92342685352444     -1.66781785092081
  C   1.01064976883299      0.69298668452918      1.05152472589136
  N   1.16279471180108      1.29842965270053      2.04939507710075
  N   -1.66700386311151      0.17354691632438      0.25563435130966
  H   -2.58450567102415     -0.18056862360654      0.05501804803029
  H   -1.52710122720870      0.61096951230043      1.15358069260476
