10
Coordinates from ORCA-job run
  C   0.69665825315377     -0.01001130289497     -0.15938746947162
  C   -0.58799808237148     -0.46229034062381     -0.29498582176234
  H   -0.79624278651823     -1.23979292330220     -1.02436642933326
  C   0.97571261621666      1.01668483140288      0.78966883874094
  N   1.10598627017681      1.86653450834097      1.59363362585642
  C   1.74532351609130     -0.54861484029623     -0.96000296033725
  N   2.60294746575797     -0.99731952528047     -1.62770720540248
  N   -1.63680577559523     -0.04661631964102      0.43881967934772
  H   -2.56805421073989     -0.31497264683959      0.17791894692906
  H   -1.53852726617170      0.73739855913443      1.06540879543282
