10
Coordinates from ORCA-job run
  C   0.65865047735182      0.27293501325796      0.05840346781351
  C   -0.70114479471138      0.39025685494224     -0.04414693395379
  H   -1.13957970880678      1.38281664814443     -0.09290182771680
  C   1.24110779579919     -1.02717934587007      0.11556239024431
  N   1.62552737844310     -2.13918634456391      0.15279822097420
  C   1.48643919695816      1.43162493652866      0.10594985948055
  N   2.15989213204978      2.39498105051575      0.14183268273206
  N   -1.56929567583591     -0.63851821558416     -0.04671877996609
  H   -2.53111859151433     -0.47937269247892     -0.28533891891589
  H   -1.22947820973365     -1.58635790489198     -0.10344016069205
