10
Coordinates from ORCA-job run
  C   0.66681585128454      0.25467040252917      0.03838527022955
  C   -0.69325741816253      0.40653862546327      0.02165525114490
  H   -1.10931603763044      1.40934207085442      0.05419206538863
  C   1.21923744948695     -1.05877309338776     -0.01246831913278
  N   1.57792249797960     -2.17876561954590     -0.06269054558339
  C   1.52442842494276      1.39100890376550      0.09876957035293
  N   2.22270567878292      2.33596508626519      0.14512323177630
  N   -1.58539863272441     -0.60190899876277      0.01312024615396
  H   -1.27110326391269     -1.55032502925006     -0.12489149900612
  H   -2.55303455004671     -0.40775234793105     -0.17019527132398
