10
Coordinates from ORCA-job run
  C   0.64637115952030      0.30532347632253      0.01028175270933
  C   -0.71659510826376      0.34041915470787      0.13024113048960
  H   -1.20120429893577      1.29277773933420      0.32503277742671
  C   1.28888317949014     -0.94031824110579     -0.25135870275070
  N   1.72481511847307     -2.01167585404423     -0.46968691151922
  C   1.41849817079259      1.49574657883600      0.14139040637218
  N   2.04629184124050      2.48421299583505      0.24927609172350
  N   -1.52749548992909     -0.73216135921333      0.06840080627021
  H   -2.52108914496798     -0.60444592285900      0.00711016124764
  H   -1.15847542742002     -1.62887856781329     -0.20868751196926
