10
Coordinates from ORCA-job run
  C   0.65611433844119      0.27563801838166      0.07079362645249
  C   -0.70590743316464      0.38470440461099     -0.01040195841928
  H   -1.15482085418775      1.37359539507390      0.01082790062494
  C   1.47328100713101      1.43740444399946      0.18321591380323
  N   2.13873721858069      2.40262944364326      0.27457700835109
  C   1.25197822669675     -1.01912666234026      0.03543205341141
  N   1.64775080662498     -2.12697308121954     -0.00510383090060
  N   -1.56308840155802     -0.65101430901373     -0.07465941927845
  H   -1.21452139674821     -1.58923477299079     -0.19757208087164
  H   -2.53052351181600     -0.48762288014493     -0.28610921317320
