10
Coordinates from ORCA-job run
  C   0.70894821002399     -0.05604016797208     -0.07617943372378
  C   -0.57836955764291     -0.39650103582130     -0.39322214340711
  H   -0.74969603490895     -1.11370837444519     -1.19081079236225
  C   0.94013430936736      0.89088429532667      0.96430595950278
  N   1.02742019392663      1.68067901089975      1.83277024937499
  C   1.80726550063764     -0.63197308890688     -0.77764389343024
  N   2.70673486171056     -1.11242412878634     -1.36329103338611
  N   -1.67702380805194      0.05803201605180      0.23765929282711
  H   -2.58588329344313     -0.11783186402619     -0.15007411998041
  H   -1.59953038161926      0.79788333767977      0.91848591458503
