10
Coordinates from ORCA-job run
  C   0.63583571480626      0.31925479397367      0.06888450091286
  C   -0.70939326894002      0.33109958484492     -0.18336669607375
  H   -1.19713491993004      1.28186400394006     -0.37855264938278
  C   1.38550154035816      1.53102294527164      0.07377038663943
  N   1.99554280174696      2.53634022952109      0.07633341289151
  C   1.28202355906853     -0.92410950152762      0.33243426460610
  N   1.72266470042296     -1.99544970335682      0.54118085785000
  N   -1.49362530343795     -0.76038605799173     -0.25506103213896
  H   -1.12998031046289     -1.66237069536639      0.01185213869468
  H   -2.49143451363196     -0.65726559930881     -0.28747518399909
