10
Coordinates from ORCA-job run
  C   0.65349813228541      0.28408351299557      0.05822990266438
  C   -0.69987240607472      0.37587345457744     -0.12437778178122
  H   -1.14956560650611      1.35911897516714     -0.22796385831815
  C   1.24907152116534     -1.00350248193619      0.20087598198388
  N   1.64498789296464     -2.10648239892325      0.31138607403544
  C   1.46177411098076      1.45644620701233      0.10929142565813
  N   2.11967444821435      2.43018008592349      0.15201732763232
  N   -1.53954332175345     -0.67081551680199     -0.23120031921867
  H   -1.20859473908340     -1.60498148220892     -0.04462118336457
  H   -2.53143003219281     -0.51992035580562     -0.20363756929155
