10
Coordinates from ORCA-job run
  C   0.64808259828347      0.29904630906084      0.03787625126891
  C   -0.71937527767890      0.35562278593498      0.05467817087785
  H   -1.20281709868387      1.32315160807412      0.15354847607669
  C   1.42695911160949      1.48689191753425      0.15074480527794
  N   2.06088616944329      2.47308017481094      0.24269143221933
  C   1.28907255090716     -0.96755089173079     -0.09586955851000
  N   1.72342993354980     -2.05531327933284     -0.21286490547888
  N   -1.53905336378803     -0.71070694132987      0.00067891164136
  H   -2.52365053540573     -0.57744031814370     -0.14118661265194
  H   -1.16353408823668     -1.62678136487794     -0.19129697072126
