10
Coordinates from ORCA-job run
  C   0.70120715415720     -0.01369273835244     -0.13618507234483
  C   -0.60001245346902     -0.31969987986973     -0.43047762254056
  H   -0.81105411540718     -0.92254984222639     -1.30894205570779
  C   1.76291262767302     -0.47455131829238     -0.96737318513916
  N   2.63255478272681     -0.86134872890020     -1.65797711714458
  C   0.98567044031241      0.77254585500268      1.01871371937238
  N   1.11856295985887      1.42178009513610      1.99152690537532
  N   -1.67129257067357      0.10539328771725      0.26484925429132
  H   -2.57556405773984     -0.28961248800860      0.08165494754798
  H   -1.54498476743870      0.58273575779373      1.14421022628991
