10
Coordinates from ORCA-job run
  C   0.70251592195913     -0.00541770757657     -0.13098653947246
  C   -0.58938161444236     -0.35574597094912     -0.41680342390314
  H   -0.78061000664907     -1.01069187670658     -1.26203981320126
  C   1.78128877989058     -0.48880368269654     -0.92667311032023
  N   2.66595007045627     -0.89508839129541     -1.58641462739269
  C   0.96015906747429      0.84935027219726      0.98069120898189
  N   1.07062411304896      1.55320103806988      1.91765974915848
  N   -1.67502541065931      0.08367223443835      0.24648464101600
  H   -2.56901219390302     -0.34073849175265      0.07902929563287
  H   -1.56650872717547      0.61126257627138      1.09905261950054
