10
Coordinates from ORCA-job run
  C   0.69567254077692     -0.08890440220525     -0.13454391223430
  C   -0.62967450330016     -0.30969613104126     -0.39483538417126
  H   -0.90245279756663     -0.90175835175484     -1.26362164437671
  C   1.70459128479561     -0.62155416684184     -0.98846161557947
  N   2.53115388107448     -1.06094155408038     -1.70017823637232
  C   1.05976044072521      0.69404646776747      1.00018697835518
  N   1.25963365754621      1.35491172889925      1.95355835931987
  N   -1.65078431318811      0.11710772254149      0.37179788704650
  H   -1.47663936837382      0.75921824041094      1.12969174196574
  H   -2.59126082248972      0.05757044630442      0.02640582604678
