10
Coordinates from ORCA-job run
  C   0.64565473174104      0.28435543261203      0.11258334710332
  C   -0.67116895495907      0.36620616425142     -0.25133668323502
  H   -1.06310132316369      1.32062306152489     -0.59086836105908
  C   1.16762363691738     -0.96687570375274      0.55417412618584
  N   1.50401784924105     -2.03998063934431      0.90180303546206
  C   1.49020258935943      1.43055012583701      0.05390045421009
  N   2.18048301099632      2.38117271015245      0.00176365192563
  N   -1.55672272850670     -0.64545803040553     -0.18558416489992
  H   -1.24034782434878     -1.57997428308561      0.02332942090445
  H   -2.45664098727698     -0.55061883778961     -0.61976482659737
