10
Coordinates from ORCA-job run
  C   0.70450765782222     -0.08240650222640     -0.08570674171753
  C   -0.59345110018463     -0.21608260527018     -0.49879376041124
  H   -0.79104863676116     -0.64754146273395     -1.47583197948168
  C   1.78083801113176     -0.50558660942152     -0.91813849245008
  N   2.66297024647687     -0.85660583835292     -1.61204362971280
  C   0.97086198181833      0.48841020353336      1.19344998288492
  N   1.08768726623488      0.97096509999693      2.26070341764642
  N   -1.67585470301033      0.10986722121004      0.23199642216644
  H   -2.58173144317302      0.13272680588209     -0.19960729926192
  H   -1.56577928035492      0.60625368738257      1.10297208033746
