10
Coordinates from ORCA-job run
  C   0.65157857829891      0.29287612735116      0.02420933645182
  C   -0.71310023197019      0.36780034836899     -0.04712827750918
  H   -1.18486027040812      1.34605883132838     -0.05417467896748
  C   1.44246751169347      1.47694495531343      0.08091213765240
  N   2.08433753300453      2.46098286351946      0.12942794015920
  C   1.27725517346730     -0.98827401194131      0.04085207066090
  N   1.69920235753352     -2.08719261580632      0.05158887345383
  N   -1.54237847829856     -0.68761254207754     -0.15518514452151
  H   -1.18281117668425     -1.62309318603416     -0.04152555321242
  H   -2.52969099663661     -0.55749077002210     -0.02897670416756
