10
Coordinates from ORCA-job run
  C   0.70218530428876     -0.04549516630523     -0.12412978242071
  C   -0.59665611981923     -0.41959745969859     -0.33945898615783
  H   -0.80860608595781     -1.16384004195520     -1.10173098896307
  C   0.98598428719358      0.93898010661150      0.86736028578655
  N   1.11852013792644      1.75798332231386      1.70232098956022
  C   1.76118992663982     -0.62453374558431     -0.88148062739980
  N   2.62805370752374     -1.10787043962613     -1.51217215174790
  N   -1.65773928528172      0.03281847689284      0.35441905955850
  H   -2.58672879894418     -0.16274287435640      0.02862718493816
  H   -1.54720307356938      0.79529782170764      1.00524501684587
