15
Coordinates from ORCA-job run
  C   -0.15139801717475     -0.15362491220945     -0.18383478635286
  C   1.22813743563692     -0.07125116372602      0.48438203752621
  Br  0.12673623613052     -0.08021432091472     -2.13177950676195
  H   1.86636541181317     -0.88284003992788      0.12425535893464
  H   1.09382943796026     -0.21113839255350      1.56398781330947
  C   -0.79571278310535     -1.49149237384260      0.14686630359874
  H   -0.96782227643423     -1.55598298935185      1.22666265844461
  H   -1.75622041295616     -1.59084484521131     -0.36122204427100
  H   -0.15876806372234     -2.32449291558427     -0.15746272935665
  C   -1.03834486388566      1.01428137928662      0.21471985690057
  H   -0.59318673477725      1.96921676443707     -0.06816838903807
  H   -2.01530860252970      0.93193690750468     -0.26459940978297
  H   -1.18292133401512      1.00423318047700      1.30078048062701
  C   1.90657032400206      1.20402333799023      0.26593810774780
  N   2.43804424305764      2.23819038362600      0.10747424847444
