15
Coordinates from ORCA-job run
  C   -0.14961135301212     -0.17898075661029     -0.17133430802404
  C   1.22119236853285     -0.06778609849204      0.51039449061126
  Br  0.15988375564266     -0.28305058821835     -2.11317828152389
  H   1.84579803555917     -0.92141544959493      0.23358971053904
  H   1.06809724276659     -0.10917745439421      1.59571772961473
  C   -0.82912834387531     -1.46861609253422      0.26422099015201
  H   -0.20757754346280     -2.33877992934183      0.04343753059596
  H   -1.01747159982571     -1.43501629623600      1.34271598447810
  H   -1.78456613734559     -1.59090232175946     -0.24836899042256
  C   -1.01597229039126      1.03795100095656      0.10802506651210
  H   -1.98569747284077      0.93562194503241     -0.38211072552810
  H   -1.18073192853480      1.12437714857959      1.18789752274409
  H   -0.54362415824654      1.95526516085006     -0.24649542716577
  C   1.93131436113004      1.16870384888940      0.19288137878152
  N   2.48909506390361      2.17280588287330     -0.04739267136446
