16

C	0.0	0.0	0.0
C	-0.540386	0.18664	-1.439454
Cl	1.848831	0.0	0.0
H	0.304635	0.444754	-2.08518
H	-0.201193	-1.008711	0.359445
N	-0.54233	0.935237	0.879168
H	-0.172169	0.912681	1.814785
H	-0.626661	1.855042	0.474116
N	-1.465679	1.31829	-1.469501
H	-2.336197	1.04096	-1.002728
H	-1.698595	1.511938	-2.43664
C	-1.1534	-1.132574	-1.909673
H	-0.430241	-1.954082	-1.848146
H	-2.029616	-1.357275	-1.296038
H	-1.484729	-1.044368	-2.9489
Cl	-4.29143	0.0	0.0
