16

C	0.0	0.0	0.0
C	-0.383164	1.102995	-1.008355
Cl	1.78355	0.0	0.0
H	0.277625	0.938902	-1.868345
H	-0.272092	-0.972326	-0.426316
N	-0.555361	0.25361	1.303545
H	-1.569162	0.29954	1.190297
H	-0.358168	-0.526987	1.918836
N	-0.063688	2.417533	-0.430678
H	-0.801778	3.062913	-0.6831
H	-0.090606	2.321935	0.579565
C	-1.815936	1.000887	-1.502512
H	-1.965426	1.74595	-2.292728
H	-2.030915	0.018496	-1.92996
H	-2.566753	1.163835	-0.730563
Cl	-4.646239	0.0	0.0
