16

C	0.0	0.0	0.0
C	-0.392998	-0.329544	-1.483388
Cl	1.802318	0.0	0.0
H	0.468792	-0.0206	-2.084515
H	-0.276934	-0.818319	0.673595
N	-0.500867	1.289226	0.395052
H	-0.256109	1.463666	1.362911
H	-1.519341	1.222468	0.349963
N	-1.538381	0.356873	-2.035474
H	-2.393399	0.11626	-1.5327
H	-1.406904	1.356304	-1.932773
C	-0.582791	-1.834127	-1.622473
H	-1.493056	-2.129567	-1.093263
H	-0.697323	-2.097675	-2.674991
H	0.268087	-2.383057	-1.208519
Cl	-4.006402	0.0	0.0
