16

C	0.0	0.0	0.0
C	-0.441574	-0.104378	-1.479645
Cl	1.840298	0.0	0.0
H	0.203954	0.590233	-2.034896
H	-0.289703	-0.887217	0.564245
N	-0.517825	1.15104	0.626686
H	-0.379357	1.158102	1.626903
H	-0.159226	2.002801	0.21443
N	-1.815085	0.262199	-1.736516
H	-2.481703	-0.34606	-1.261433
H	-2.023141	1.170468	-1.340077
C	-0.201599	-1.513655	-2.004966
H	0.831094	-1.837788	-1.868244
H	-0.455031	-1.54716	-3.065474
H	-0.863631	-2.211431	-1.482679
Cl	-4.667573	0.0	0.0
