16

C	0.0	0.0	0.0
C	-0.441747	0.376777	-1.422869
Cl	1.855096	0.0	0.0
H	0.232213	-0.143577	-2.111111
H	-0.243209	-1.041851	0.207759
N	-0.568093	0.824184	0.979388
H	-0.433294	0.494288	1.922325
H	-0.291735	1.790042	0.890568
N	-0.33644	1.801298	-1.712857
H	-1.073879	2.30038	-1.229297
H	0.565724	2.166809	-1.429902
C	-1.866263	-0.098404	-1.666684
H	-2.18221	0.217948	-2.663107
H	-1.922936	-1.188915	-1.622607
H	-2.587031	0.282741	-0.939447
Cl	-5.157463	0.0	0.0
