16

C	0.0	0.0	0.0
C	-0.352675	0.007115	-1.536424
Cl	1.803465	0.0	0.0
H	0.468666	0.536706	-2.033696
H	-0.312617	-0.942025	0.453543
N	-0.514093	1.065529	0.804205
H	-1.514376	0.893608	0.913238
H	-0.405372	1.947993	0.316725
N	-1.571112	0.672014	-1.940601
H	-1.523124	1.658667	-1.717932
H	-2.386985	0.308358	-1.445389
C	-0.386737	-1.430945	-2.039412
H	-0.473896	-1.440379	-3.127179
H	-1.265698	-1.933093	-1.624375
H	0.5089	-1.984076	-1.745484
Cl	-4.018636	0.0	0.0
