17

C	-0.4848	-0.065587	-1.441916
C	0.0	0.0	0.0
F	-0.401467	1.20924	-2.034293
H	1.096853	0.0	0.0
H	-1.553849	-0.326146	-1.449032
C	0.321818	-1.032907	-2.274388
H	-0.031644	-1.037977	-3.309364
H	1.373522	-0.740712	-2.242189
H	0.228368	-2.033594	-1.851392
N	-0.42405	-1.257016	0.639381
H	-1.304196	-1.10952	1.124221
H	0.269691	-1.513242	1.33229
C	-0.502953	1.243697	0.719239
H	-1.601279	1.270424	0.730487
H	-0.143769	1.240251	1.751919
H	-0.142207	2.1509	0.233933
Cl	3.607764	0.0	0.0
