17

C	-0.48989	-0.049674	-1.436299
C	0.0	0.0	0.0
F	-0.117082	1.13566	-2.091999
H	1.102732	0.0	0.0
H	-1.588529	-0.071925	-1.441712
C	0.085031	-1.213482	-2.213366
H	-0.319339	-2.153184	-1.828927
H	-0.182653	-1.127498	-3.269672
H	1.173908	-1.214357	-2.114629
N	-0.517784	-1.217014	0.667252
H	0.170768	-1.949639	0.523834
H	-0.507024	-1.041848	1.666819
C	-0.515406	1.234983	0.713923
H	-0.216811	2.134948	0.176963
H	-0.093382	1.290317	1.72181
H	-1.609068	1.206099	0.790084
Cl	3.588025	0.0	0.0
