17

C	-0.400049	0.011469	-1.458125
C	0.0	0.0	0.0
F	-1.818519	0.036684	-1.557372
H	1.097414	0.0	0.0
H	-0.090799	-0.943615	-1.890495
C	0.160477	1.171811	-2.249915
H	-0.271457	2.114962	-1.906964
H	1.246874	1.203977	-2.116575
H	-0.071291	1.057021	-3.312423
N	-0.46467	-1.259913	0.588631
H	-1.460254	-1.185738	0.774017
H	0.007602	-1.393788	1.47537
C	-0.482313	1.244603	0.746126
H	-0.207052	1.159645	1.80056
H	-1.570569	1.34429	0.675041
H	-0.017959	2.156756	0.363095
Cl	3.554942	0.0	0.0
