17

C	-0.482056	-0.140078	-1.432095
C	0.0	0.0	0.0
F	-0.091291	-1.406425	-1.905954
H	1.095547	0.0	0.0
H	0.04418	0.591725	-2.055474
C	-1.982605	-0.044199	-1.61696
H	-2.476962	-0.72898	-0.926815
H	-2.336987	0.971289	-1.425548
H	-2.242974	-0.31122	-2.644299
N	-0.543237	-1.120344	0.792
H	-0.109371	-1.059146	1.708024
H	-0.163328	-1.966475	0.378187
C	-0.459519	1.317826	0.607615
H	-0.185513	2.161992	-0.032362
H	0.040268	1.470195	1.56766
H	-1.539442	1.32173	0.774936
Cl	3.612058	0.0	0.0
