15

C	-0.52901	-0.013912	-1.441692
C	0.0	0.0	0.0
Cl	0.313413	1.306321	-2.345567
H	1.093576	0.0	0.0
N	-0.108405	-1.306054	-2.146305
O	0.753009	-1.991838	-1.618257
O	-0.682115	-1.52824	-3.208982
N	-1.934242	0.027408	-1.506746
H	-2.29167	0.86795	-1.070207
H	-2.244161	-0.034065	-2.468814
C	-0.49809	-1.161289	0.738217
N	-0.903326	-2.084777	1.340031
C	-0.477091	1.224262	0.642569
N	-0.90906	2.200841	1.132525
Cl	3.16114	0.0	0.0
