15

C	-0.532508	0.003232	-1.44008
C	0.0	0.0	0.0
Cl	0.33552	1.307794	-2.337665
H	1.093435	0.0	0.0
N	-0.153758	-1.295017	-2.154096
O	-0.689206	-1.46025	-3.246261
O	0.631366	-2.047836	-1.599232
N	-1.938966	0.079544	-1.500077
H	-2.248853	0.070596	-2.464791
H	-2.2732	0.9124	-1.030079
C	-0.518806	-1.14263	0.752449
N	-0.949645	-2.033933	1.383923
C	-0.457161	1.23598	0.63823
N	-0.863843	2.229241	1.116128
Cl	3.149313	0.0	0.0
