15

C	-0.528821	-0.085634	-1.438875
C	0.0	0.0	0.0
Cl	0.201791	1.192571	-2.414646
H	1.093734	0.0	0.0
N	-0.037514	-1.421752	-2.075885
O	-0.540689	-1.681905	-3.166007
O	0.758463	-2.110251	-1.454988
N	-1.938047	0.007182	-1.504168
H	-2.24656	-0.112933	-2.461528
H	-2.365411	-0.698856	-0.913306
C	-0.528321	-1.112993	0.788326
N	-1.007285	-2.003937	1.386373
C	-0.447984	1.262374	0.591854
N	-0.787493	2.273245	1.083309
Cl	3.151146	0.0	0.0
