14

C	-0.363657	-0.271036	-1.433324
C	0.0	0.0	0.0
Br	-2.307156	-0.630126	-1.704398
H	1.111529	0.0	0.0
H	0.111165	-1.224553	-1.678008
C	0.056285	0.697179	-2.437647
N	0.408342	1.371312	-3.333466
N	-0.323112	-1.042761	0.911333
H	0.515778	-1.58081	1.101884
H	-1.08338	-1.630992	0.599755
N	-0.474724	1.311163	0.468143
O	-0.769275	2.156687	-0.390644
O	-0.448692	1.534613	1.678072
H	2.4815	0.0	0.0
