14

C	-0.378689	0.09326	-1.454028
C	0.0	0.0	0.0
Br	-2.32368	-0.175509	-1.780275
H	1.092699	0.0	0.0
H	0.090062	-0.769797	-1.933475
C	0.042065	1.281416	-2.185409
N	0.416904	2.137599	-2.898331
N	-0.335298	-1.228895	0.632397
H	0.502248	-1.796806	0.704718
H	-1.091466	-1.725605	0.184393
N	-0.460998	1.163935	0.782338
O	-0.38451	1.091412	2.007546
O	-0.786468	2.186545	0.161373
H	2.511688	0.0	0.0
