14

C	-0.347851	-0.082805	-1.465307
C	0.0	0.0	0.0
Br	-2.298769	-0.338493	-1.776503
H	1.108062	0.0	0.0
H	0.100345	-1.014453	-1.816322
C	0.107558	0.979536	-2.352787
N	0.473751	1.728165	-3.180244
N	-0.347282	-1.143398	0.76137
H	0.478492	-1.717117	0.891642
H	-1.122928	-1.673661	0.39274
N	-0.478159	1.255615	0.611338
O	-0.469505	2.258244	-0.118088
O	-0.747418	1.27781	1.811104
H	2.496986	0.0	0.0
