14

C	-0.395518	0.218882	-1.46418
C	0.0	0.0	0.0
Br	0.07458	-1.362747	-2.524857
H	1.10889	0.0	0.0
H	0.199263	1.033121	-1.87689
C	-1.820045	0.470813	-1.649877
N	-2.977852	0.630996	-1.777558
N	-0.45095	-1.165441	0.657685
H	0.29312	-1.852041	0.66795
H	-1.302929	-1.555385	0.283158
N	-0.361672	1.237612	0.725977
O	-0.516114	1.200192	1.94502
O	-0.342159	2.28763	0.057171
H	2.525686	0.0	0.0
