14

C	-0.447214	-0.087675	-1.430863
C	0.0	0.0	0.0
Br	-2.429645	-0.127336	-1.602208
H	1.107426	0.0	0.0
H	-0.138339	-1.075847	-1.773462
C	0.065077	0.908714	-2.361878
N	0.460232	1.621887	-3.2077
N	-0.346906	-1.174873	0.733853
H	0.428553	-1.36725	1.363252
H	-1.173452	-1.012977	1.295532
N	-0.406154	1.251381	0.633133
O	-0.641057	1.237807	1.851284
O	-0.382998	2.278517	-0.058559
H	2.466242	0.0	0.0
