14

C	-0.561775	0.026578	-1.395225
C	0.0	0.0	0.0
Br	0.768795	0.632629	-2.784408
H	1.091327	0.0	0.0
H	-1.338648	0.782952	-1.502214
C	-1.050561	-1.268824	-1.840573
N	-1.490446	-2.277202	-2.254827
N	-0.238697	-1.201377	0.740044
H	0.607231	-1.380941	1.280115
H	-1.003584	-1.074415	1.391046
N	-0.351003	1.21648	0.691528
O	-0.495106	2.258151	0.020352
O	-0.337391	1.194659	1.93832
H	2.31584	0.0	0.0
