15
Coordinates from ORCA-job run
  C   0.64757266532216      0.37055274806365      0.45261940865741
  C   -0.42652454634224     -0.12174299062561     -0.53188853567037
  F   0.02336167130877      0.96637377302523      1.53104255007900
  H   0.09068380201735     -0.65290795933055     -1.34098475204018
  N   1.48569910159034      1.34739407507436     -0.15451370512063
  H   2.27446739479119      1.58208276938400      0.43474575298743
  H   1.81041720889197      1.06243749213299     -1.06875013989308
  C   1.37969887926587     -0.80621446281477      0.99496043182662
  N   2.00185125160734     -1.73114776016663      1.36667494997246
  C   -1.11490364643724      1.03282185046673     -1.11446389633525
  N   -1.71473806924731      1.91740963085922     -1.59959813328831
  C   -1.42839203310207     -1.06736483057349      0.13748543087504
  H   -1.92724293313117     -0.56193434502448      0.96392688296692
  H   -0.92098109748966     -1.95652502432314      0.51580786134092
  H   -2.18196964904532     -1.38023496614752     -0.58606410635799
