15
Coordinates from ORCA-job run
  C   0.84998229598131      0.34682767043301      0.03760507450707
  C   -0.63549895018491      0.30580032707274     -0.37220433002100
  F   1.60052926565748      0.37651325543852     -1.12298981601523
  H   -0.83448538328742      1.23964876704034     -0.90937969533923
  N   1.21600249921067     -0.82999404012047      0.75656156931407
  H   2.18258081913295     -0.77712954026862      1.05596254536523
  H   0.62569406452841     -0.96295355715546      1.56960873617327
  C   1.14517953683320      1.61781451548607      0.74994197042315
  N   1.37726273267965      2.59775507465315      1.35544358345324
  C   -1.45610844591290      0.28621023683135      0.83894286607547
  N   -2.08922388082612      0.22259518845740      1.82615475744349
  C   -0.94016766770098     -0.89079204705052     -1.27754278822129
  H   -0.75468806087473     -1.82767633960074     -0.75503755032592
  H   -1.98406150180487     -0.85560827388494     -1.59278026101196
  H   -0.30299732343176     -0.84901123733183     -2.16028666182038
