15
Coordinates from ORCA-job run
  C   0.72105301146799      0.56775817346736     -0.05025867322877
  C   -0.76735321365873      0.17220431950046     -0.12561508027261
  F   1.08437714181977      1.05913154472546     -1.28953674932980
  H   -1.32478688291731      1.09522428204489     -0.31984667971613
  N   1.53998200041379     -0.56911374675309      0.21887995987803
  H   2.51151260212013     -0.29505446543270      0.30581373568560
  H   1.25169698641935     -1.03725952515378      1.07017614799082
  C   0.89705188612222      1.69218414368173      0.90629609975794
  N   1.04660471257145      2.55025064856336      1.69509752339128
  C   -1.17957860489836     -0.34933455772767      1.17784737452410
  N   -1.46863341271948     -0.80807785176035      2.21967534040374
  C   -1.02870160292637     -0.83899826436429     -1.24513110704457
  H   -0.70984132781357     -0.41631538907250     -2.19756964222110
  H   -2.09570054671458     -1.06129269395347     -1.29654323083946
  H   -0.47768274928633     -1.76130661776541     -1.06828501897906
