15
Coordinates from ORCA-job run
  C   0.74773336319934      0.52566181777703      0.24189397643908
  C   -0.53741924547540      0.23418235601597     -0.55100707191418
  F   0.98555769610914      1.90367707125925      0.13697312116756
  H   -0.30292875268856      0.47284825239624     -1.59655099328814
  N   1.82159442878535     -0.24654973287683     -0.25908749241116
  H   2.66162826379218     -0.11352969128102      0.29019314998389
  H   2.00822378132461     -0.00979878617527     -1.22650965685430
  C   0.56041014049807      0.23486261646235      1.67655862389030
  N   0.41005172338068     -0.00595406595860      2.81558212734175
  C   -1.60239542486077      1.14272337968889     -0.12162675624863
  N   -2.48739900679027      1.83224482087836      0.22338279354309
  C   -0.98163453991406     -1.22511483957043     -0.43015843825001
  H   -1.24306184221725     -1.46020564446405      0.60310423217602
  H   -1.86049688469043     -1.39823083437966     -1.05300108393226
  H   -0.17686370045262     -1.88581671977224     -0.74974653164301
