11
Coordinates from ORCA-job run
  C   -0.69086803047942     -0.17801704699531     -0.16927052238008
  C   0.74885568785244     -0.72636100589651     -0.06172547029493
  Cl  -1.74563035088299     -1.52143037141946     -0.71014310845830
  H   1.04681748705928     -1.10765019109399     -1.04196163567938
  H   0.74784542727638     -1.55898109795806      0.64666965145875
  C   -1.15707048638677      0.29850869074471      1.13447281891361
  N   -1.50637114698135      0.66958257683581      2.19353679640712
  C   -0.75687316150044      0.90431229533264     -1.15330420793640
  N   -0.78400710144903      1.76400397933483     -1.95433946494835
  C   1.67694570877778      0.31021644345938      0.37989279299962
  N   2.41935596671412      1.14681572765595      0.73617234991834
