11
Coordinates from ORCA-job run
  C   -0.69215237649335     -0.15618956163874     -0.18352362636172
  C   0.72800959774529     -0.74962899800694     -0.05452031305519
  Cl  -1.77714993624089     -1.45942213350119     -0.76057057917192
  H   1.03198777696568     -1.13155295506421     -1.03268021269212
  H   0.68926747166888     -1.58753390549892      0.64651220777021
  C   -1.16978665740102      0.32043459078995      1.11617214258564
  N   -1.53367687262252      0.68658708840744      2.17208091614073
  C   -0.70347988631285      0.93896750137966     -1.15566290164384
  N   -0.68290260765043      1.80834498996967     -1.94631203176510
  C   1.67720849031077      0.25648597369567      0.41207311550269
  N   2.43167500003045      1.07350740946761      0.78743128269063
