11
Coordinates from ORCA-job run
  C   -0.68057818165718     -0.18218139626119     -0.20653111566663
  C   0.75014674833598     -0.72631383597557     -0.00009402146230
  Cl  -1.70171671878137     -1.53730048232738     -0.78004893679945
  H   1.10621492718558     -1.12987989259630     -0.95170864099305
  H   0.70733585040782     -1.54194704560420      0.72658808009754
  C   -1.22400358025065      0.32225155848882      1.05622835039934
  N   -1.63724083403666      0.70890940404326      2.08624684729837
  C   -0.68443317455513      0.87826425116610     -1.21642053980731
  N   -0.65697699751844      1.72030116067076     -2.03581250184710
  C   1.64985314445480      0.32243313209550      0.47107122363680
  N   2.37139881641524      1.16746314630019      0.84948125514379
