11
Coordinates from ORCA-job run
  C   -0.69484577564408     -0.16987887122029     -0.16549528606627
  C   0.73536845021608     -0.74047670468484     -0.04500505765315
  Cl  -1.77279052285169     -1.50545144802281     -0.67867788741680
  H   1.02593406915601     -1.15013900621850     -1.01592389410509
  H   0.72094675094652     -1.55560350647679      0.68328707714981
  C   -1.15287811138584      0.34201104318901      1.12790628730655
  N   -1.49511503696829      0.73511045722051      2.18126381219006
  C   -0.73968385923119      0.89248032299278     -1.17237080354926
  N   -0.74617926245440      1.73533953845624     -1.99139542891098
  C   1.68070711126259      0.29111264277772      0.37089732650579
  N   2.43653618695429      1.12449553198697      0.70551385454935
