11
Coordinates from ORCA-job run
  C   -0.61293549027542     -0.05455096155103     -0.19494381237236
  C   0.72679839405555     -0.42418718739568      0.48044280751778
  Cl  -0.88970173271335     -1.12973061820627     -1.59673390195336
  H   0.67869443430569     -1.47283680416305      0.78526635993061
  H   0.84847851925017      0.19239757019587      1.37648479189351
  C   -1.69577442967383     -0.24333712562068      0.77431500801735
  N   -2.53352089946193     -0.40801720454091      1.58184708795733
  C   -0.59115479710589      1.33722657432916     -0.65072228256946
  N   -0.54914664564877      2.45966125914423     -0.99646910083598
  C   1.85487787991705     -0.21442508094659     -0.42071101430103
  N   2.76538476735074     -0.04320042124506     -1.14077594328437
