11
Coordinates from ORCA-job run
  C   -0.60880376893914     -0.16304444673422     -0.14016946569843
  C   0.76264979026801     -0.16490380743917      0.57185421878443
  Cl  -0.81194721658211     -1.69141585913313     -1.04591086448167
  H   0.84449547281407      0.74474585120458      1.17494408898048
  H   0.79954544618919     -1.02865618173949      1.24077723005085
  C   -1.66217881899234     -0.06489660767463      0.87407842242932
  N   -2.46925806591065      0.00645446770433      1.72541009191008
  C   -0.70420249529146      0.96547899631902     -1.06876544835974
  N   -0.75947666112325      1.88823676887087     -1.79440054292477
  C   1.86193755297038     -0.22413890480468     -0.38558200449642
  N   2.74823876459729     -0.26786027657349     -1.15323572619413
