11
Coordinates from ORCA-job run
  C   -0.62789899694944     -0.00725739826151     -0.15342908147263
  C   0.71341764957883     -0.44649762997202      0.47523829701348
  Cl  -1.09885484824163     -1.17126424305696     -1.42658182908036
  H   0.95554320708074      0.23661320098281      1.29559178345840
  H   0.58491880657908     -1.45103775159610      0.88721951457398
  C   -1.65478525308797     -0.00023677609149      0.89199374476741
  N   -2.44517235406636     -0.01003072240295      1.76154902790287
  C   -0.50664752046321      1.32840000090205     -0.74174557018360
  N   -0.38295967012549      2.40546576821466     -1.19552306945226
  C   1.79315692086621     -0.44276267789823     -0.50634744268142
  N   2.66828205882922     -0.44139177082026     -1.28796537484588
