11
Coordinates from ORCA-job run
  C   -0.61792102170008     -0.00824202843268     -0.19014076916193
  C   0.70503226308077     -0.49617744567209      0.44145477450883
  Cl  -0.97111126430406     -0.97475021043702     -1.65277129239243
  H   0.60102717515177     -1.55873767812412      0.67596220764258
  H   0.86916933322110      0.05075892738358      1.37516845029279
  C   -1.69940379867778     -0.19608296770402      0.78083369681342
  N   -2.53637655147708     -0.36256367834139      1.58879614818582
  C   -0.52061780623458      1.40597837024916     -0.55836640846375
  N   -0.41742402176845      2.54390280698385     -0.83359975600999
  C   1.83586190504718     -0.28810504111413     -0.45668994569927
  N   2.75176378766122     -0.11598105479114     -1.16964710571607
