11
Coordinates from ORCA-job run
  C   -0.62373316435817     -0.11427294948445     -0.12840463154089
  C   0.76059919131400     -0.24823029964689      0.54483230599759
  Cl  -0.96742369978526     -1.58727841291517     -1.08217344568580
  H   0.74923109120794     -1.13993976544685      1.17702934754408
  H   0.92550178955819      0.62654761578445      1.18167545066364
  C   -1.64178827527341      0.02885858017523      0.91600068761211
  N   -2.42358050602540      0.14309604501398      1.78587299762658
  C   -0.65294109500366      1.05251146181453     -1.01316821069980
  N   -0.65069253146771      2.00394238036003     -1.70319135684760
  C   1.82903542845466     -0.34680213609683     -0.44379799516951
  N   2.69479177137884     -0.41843251955806     -1.23267514950041
