11
Coordinates from ORCA-job run
  C   -0.69090073367097     -0.17881883201841     -0.17303579673718
  C   0.73628376959706     -0.74120277286153      0.00848948917280
  Cl  -1.75672717576805     -1.53874616270163     -0.64444532696442
  H   0.70452959567811     -1.52081543938243      0.77419107545195
  H   1.05038646857447     -1.19583039636245     -0.93478428469455
  C   -1.17824527210580      0.39564168170745      1.08274453896864
  N   -1.54578502524701      0.83978673254021      2.10689475550106
  C   -0.71160207409536      0.83290986260039     -1.23155911190802
  N   -0.69696197254228      1.63436741852849     -2.09106405622073
  C   1.67075476467518      0.31105662922419      0.39686725001721
  N   2.41726765490464      1.16265127872574      0.70570146741324
