11
Coordinates from ORCA-job run
  C   -0.68785139114156     -0.16760021148454     -0.19294459612070
  C   0.72881421406338     -0.74912188051033      0.00868961305119
  Cl  -1.75728209261267     -1.50638164979167     -0.71493272364587
  H   1.05971628211870     -1.18680198794121     -0.93683890439796
  H   0.67155388126572     -1.54479787744536      0.75623101586153
  C   -1.19750002573321      0.38779435467054      1.06252669123995
  N   -1.58360831551832      0.81871107482394      2.08556829857759
  C   -0.67498084081151      0.86458842295277     -1.23160055034386
  N   -0.63619236298977      1.68246607185848     -2.07475348974919
  C   1.66472505826091      0.28371144745863      0.44298212278425
  N   2.41160559309834      1.11743223540873      0.79607252274306
