11
Coordinates from ORCA-job run
  C   -0.49958127246255      0.31579734982441      0.25677755408404
  C   0.60517909740588     -0.75212168406775      0.09758658901343
  Cl  -0.12310599492347      1.35610686975038      1.66219152967856
  H   0.65693896734158     -1.33147580060342      1.02310096402222
  H   0.32600352734263     -1.42588165013678     -0.71852887685330
  C   -0.59058023423903      1.14593138420144     -0.94639367193133
  N   -0.65065075998218      1.78971262482652     -1.92791499484750
  C   -1.77927718341929     -0.35871028953451      0.49123325303987
  N   -2.78718373794245     -0.93409355751977      0.67639798998821
  C   1.90015748247504     -0.14344528367104     -0.18715618421007
  N   2.94310010840384      0.33718003693052     -0.42829415198412
