11
Coordinates from ORCA-job run
  C   -0.61258710543018     -0.00228808715422     -0.20757254430688
  C   0.69837708275426     -0.51518502475452      0.42956606344300
  Cl  -0.91501810811221     -0.88022145205375     -1.73572481439999
  H   0.60014235740289     -1.59097159472123      0.59673190946065
  H   0.83129671259962     -0.02416538574902      1.39869473445680
  C   -1.71764498207680     -0.25995546093582      0.71983462862332
  N   -2.57418366656060     -0.48422266634383      1.49249671546965
  C   -0.52057366401975      1.43282908165202     -0.48511888309989
  N   -0.42228662797697      2.58641942921817     -0.68712202291594
  C   1.85039171444685     -0.24233310914165     -0.42322302135759
  N   2.78308628697290     -0.01990573001613     -1.09956276537315
