11
Coordinates from ORCA-job run
  C   -0.61501957172234      0.00008271605195     -0.19592750971958
  C   0.70815254297955     -0.51461277897930      0.41359861743553
  Cl  -0.94432548751037     -0.86749610926485     -1.72439159657340
  H   0.86095251580026     -0.02561227793671      1.38077618830865
  H   0.61232386414879     -1.59065986638576      0.58067146395138
  C   -1.70243857526840     -0.26642199523995      0.74980911139706
  N   -2.54339471254643     -0.49843322161431      1.53712325181745
  C   -0.53249266829155      1.43767440797548     -0.46385248443737
  N   -0.44578625657487      2.59431913378123     -0.65307353630124
  C   1.84270439761785     -0.24272156706841     -0.46252797886352
  N   2.76032395136751     -0.02611844131936     -1.16120552701496
