11
Coordinates from ORCA-job run
  C   -0.53635249127641      0.28820153188491      0.21445274262029
  C   0.63983073986663     -0.71144716766871      0.14723195175755
  Cl  -0.33088220607875      1.35565403753586      1.63418677412532
  H   0.46505307342469     -1.40137273857929     -0.68424734016446
  H   0.65426855764662     -1.28604282638654      1.07707284882270
  C   -0.58742970755226      1.10413630795077     -1.00082830513334
  N   -0.61598175405800      1.73337428674034     -1.99299215320433
  C   -1.78508200269208     -0.46533445333461      0.35862950802877
  N   -2.76173436436951     -1.10875978945870      0.47286378416992
  C   1.91467305711176     -0.02655673852253     -0.03832245373028
  N   2.94363709797730      0.51714754983849     -0.18904735729214
