11
Coordinates from ORCA-job run
  C   -0.59253343495668     -0.03666438147295     -0.25940371335906
  C   0.94765704667406      0.06439376382653     -0.18512927432539
  Cl  -1.05362030585393     -1.62367992609266     -0.94162254714700
  H   1.21555736170937      1.06676640185200      0.16330698783873
  H   1.34865990548714     -0.07077829179558     -1.19299065215528
  C   -1.18059960527050      0.10609338068437      1.07436003661637
  N   -1.62426920796875      0.23824960102309      2.15466700726768
  C   -1.08990676275270      1.02645763617568     -1.13696112079167
  N   -1.44139921925951      1.89696649666463     -1.84374267205718
  C   1.50687543716809     -0.93662765329925      0.71684926261631
  N   1.96357878502342     -1.73117702756586      1.44966668549650
