11
Coordinates from ORCA-job run
  C   -0.59810467657245      0.22318706716487      0.10227233230543
  C   0.74915802152119     -0.48249043174735      0.37476319565100
  Cl  -0.71490502145432      1.69393992040258      1.11303791831879
  H   0.79793503468617     -0.72706543257076      1.43904739367963
  H   0.77713585004586     -1.41529375679395     -0.19708162146784
  C   -0.70628128358592      0.59775506121376     -1.30935911746964
  N   -0.77388825686341      0.87401109091461     -2.44964855853829
  C   -1.68595359639023     -0.69087665477567      0.46100228044263
  N   -2.52205256045195     -1.45722546224261      0.76871592665681
  C   1.88053556920803      0.35936666639307      0.00099158887272
  N   2.79642091985703      1.02669193204146     -0.30374133845123
