11
Coordinates from ORCA-job run
  C   -0.61762336624692     -0.08542344687967     -0.17284733829343
  C   0.75689161895056     -0.37603883255060      0.47099533817785
  Cl  -0.89606211473161     -1.22480206780158     -1.52245755405874
  H   0.76040735479754     -1.41321472116143      0.81636156174888
  H   0.88179311950226      0.27922291345060      1.33873155064883
  C   -1.65957380273240     -0.27790552577581      0.83941768229440
  N   -2.46057939770383     -0.44447824927152      1.68291998915496
  C   -0.66518215734763      1.28704088694310     -0.68175111003997
  N   -0.67798553428040      2.39600991825318     -1.07074679648218
  C   1.84711197499322     -0.15885741379630     -0.47384193712509
  N   2.72980230479921      0.01744653859003     -1.22678138602551
