11
Coordinates from ORCA-job run
  C   -0.67392759092793     -0.19586471565497     -0.21466970202392
  C   0.76437618437568     -0.71066320038226      0.01434063432691
  Cl  -1.66113450352430     -1.57528769962908     -0.79039287462141
  H   0.72728159736184     -1.52233213595593      0.74575741569317
  H   1.14122489863002     -1.11317736802587     -0.92959160272061
  C   -1.24217720767010      0.30636515783469      1.03798689699858
  N   -1.67133490803849      0.68700333793796      2.06384387411653
  C   -0.68544188664601      0.85556808167707     -1.23386824728577
  N   -0.66462706049197      1.68680099282581     -2.06434212337384
  C   1.63560426874092      0.35876922682108      0.49223480457666
  N   2.32915620819034      1.22281832255149      0.87970092431370
