17

C	0.075734	0.030297	0.018487
C	-0.575209	0.172478	-1.380481
Br	1.910292	-0.720289	-0.198341
H	0.180751	0.622816	-2.034845
C	0.287174	1.348955	0.616613
N	0.51239	2.373179	1.148181
C	-0.720724	-0.88587	0.937387
H	-0.578116	-1.91222	0.600487
H	-0.38639	-0.785712	1.971919
H	-1.790321	-0.67612	0.817627
N	-1.679923	1.111264	-1.211474
H	-1.903155	1.495237	-2.123461
H	-2.484849	0.520056	-0.91559
N	-0.913807	-1.159007	-1.863935
H	-1.041926	-1.094182	-2.868403
H	-1.850042	-1.341949	-1.452909
F	-3.263371	-0.911209	-0.526865
