15

C	-0.364312	-0.013726	-1.471137
C	0.0	0.0	0.0
Br	-2.32948	0.197134	-1.731347
H	1.098228	0.0	0.0
H	0.035708	0.883932	-1.946169
H	-0.332541	0.943831	0.443441
C	0.106618	-1.24783	-2.214973
H	1.182445	-1.350366	-2.036605
H	-0.074532	-1.154168	-3.287809
H	-0.401447	-2.145962	-1.859315
C	-0.509233	-1.179872	0.817121
H	-0.071462	-2.118816	0.472046
H	-1.599112	-1.265858	0.778063
H	-0.21101	-1.056327	1.861029
Cl	3.545507	0.0	0.0
