15
Coordinates from ORCA-job run
  C   0.38819148860460      0.10406118793055     -0.33940851759749
  C   -0.62303795528280     -0.59799377786988      0.58145685958280
  F   0.41501721586286     -0.69618935138758     -1.48727973678022
  H   -0.82952165641650      0.01303202166396      1.46069461109663
  H   -0.26978223463010     -1.58877452646723      0.85992554955074
  C   1.76818131935063      0.06352622088269      0.28331176438970
  H   2.46560897583309      0.55882042959208     -0.39343921479745
  H   1.78414384479760      0.57167490949086      1.25062809388212
  H   2.08710457704935     -0.96998457900975      0.41988880542517
  N   0.06388853344119      1.42949639291311     -0.74416358200478
  H   -0.92989961998690      1.55206960992353     -0.88553267342791
  H   0.41243775682446      2.11906980941793     -0.09484249046399
  N   -1.91803634378549     -0.80553213227735     -0.12262658858356
  O   -2.24938268542658     -1.95689060216813     -0.38302033558629
  O   -2.56391321623540      0.20561438736523     -0.40459254468546
