15
Coordinates from ORCA-job run
  C   0.40323437073287      0.10054036341648     -0.20638357814190
  C   -0.76526267987689     -0.42909263239248      0.61933527001352
  F   0.55927955644509     -0.83437333338331     -1.26489045187362
  H   -1.10540393701965      0.32812209044402      1.32595131268588
  H   -0.49024281462925     -1.35061625114162      1.12667635174030
  C   1.68581818612823      0.05540044280371      0.59670168725626
  H   1.60155996045339      0.67727900260788      1.48859692299644
  H   2.50768631741470      0.43374151279437     -0.01528507199918
  H   1.91869438144243     -0.97148380486968      0.88048765946781
  N   0.15360051143072      1.40695981831585     -0.68575922232314
  H   0.91584444773377      1.72055958407633     -1.27256457019527
  H   -0.71719872855126      1.44801745446742     -1.19957892944034
  N   -1.92801748602352     -0.77749353353161     -0.24826017905702
  O   -2.32544460612371     -1.93720620097249     -0.22340246804691
  O   -2.41514747955692      0.12864548736513     -0.92362473308282
