15
Coordinates from ORCA-job run
  C   0.42117353735970      0.12463783945003     -0.28913986284940
  C   -0.67201609577765     -0.63304560442541      0.48177456533724
  F   0.59042230559314     -0.62161900571260     -1.46080860446942
  H   -0.33291812685528     -1.63042442832158      0.75422932752649
  H   -0.98580279435150     -0.06554495708883      1.35841805601471
  C   1.72436366856029      0.07570817572305      0.48104711780633
  H   1.62398493404970      0.54162703492221      1.46441140861485
  H   2.48300771846139      0.60958020501342     -0.09267891955796
  H   2.04536721532902     -0.95825165977608      0.60905664480463
  N   0.11786514903239      1.46245616894354     -0.66882198785368
  H   -0.85630771834364      1.57683397453265     -0.91488848905094
  H   0.37862710935548      2.12658865252364      0.04499338263105
  N   -1.87687186936086     -0.82651165636652     -0.37058250978536
  O   -2.15482714366528     -1.96922968109483     -0.71721564353110
  O   -2.50706788938690      0.18719494167733     -0.67779448563745
