16

C	-0.512234	0.050022	-1.432703
C	0.0	0.0	0.0
F	-1.890779	0.432109	-1.369383
H	1.088422	0.0	0.0
H	-0.389625	-0.87776	0.513844
C	0.192467	1.059581	-2.306635
H	1.26601	0.868173	-2.278587
H	0.002084	2.06487	-1.938285
H	-0.183823	0.976962	-3.331144
N	-0.389478	-1.256107	-1.973108
H	-0.94922	-1.918118	-1.45068
H	-0.668449	-1.268049	-2.945341
N	-0.487708	1.160576	0.783236
O	-0.098322	2.280639	0.45505
O	-1.26078	0.934625	1.717459
Br	3.563023	0.0	0.0
