16

C	-0.524197	-0.016695	-1.431866
C	0.0	0.0	0.0
F	-0.260321	1.302373	-1.892903
H	1.088698	0.0	0.0
H	-0.385538	0.879562	0.513744
C	0.226593	-0.95132	-2.348497
H	-0.117241	-0.80243	-3.376781
H	1.293413	-0.733662	-2.282026
H	0.056261	-1.983473	-2.047834
N	-1.926151	-0.270799	-1.445082
H	-2.411163	0.402798	-0.863975
H	-2.280936	-0.206143	-2.391157
N	-0.500383	-1.175885	0.746905
O	-1.348781	-0.975019	1.620682
O	-0.058576	-2.28128	0.444399
Br	3.56318	0.0	0.0
