16

C	-0.373683	0.016226	-1.474037
C	0.0	0.0	0.0
F	-1.765075	-0.132291	-1.603706
H	1.088506	0.0	0.0
H	-0.404108	-0.899799	0.456436
C	-0.003717	1.290851	-2.207397
H	-0.569039	2.147109	-1.841912
H	1.06152	1.486506	-2.07727
H	-0.22615	1.149394	-3.269146
N	0.240523	-1.173333	-2.013502
H	1.207521	-1.217274	-1.696448
H	0.254511	-1.112634	-3.025244
N	-0.535252	1.145619	0.759472
O	-0.066871	2.261679	0.533962
O	-1.428168	0.915437	1.579664
Br	3.488353	0.0	0.0
