16

C	-0.537154	-0.052626	-1.438939
C	0.0	0.0	0.0
F	-0.366905	1.231981	-1.957488
H	1.088258	0.0	0.0
H	-0.37045	-0.867064	0.549493
C	0.312569	-1.003996	-2.250917
H	1.356577	-0.690985	-2.199948
H	0.245375	-2.020205	-1.852408
H	-0.042008	-0.996267	-3.28349
N	-1.938162	-0.358614	-1.578515
H	-2.457809	0.113873	-0.846321
H	-2.074284	-1.355236	-1.46694
N	-0.55311	1.190177	0.684054
O	0.158139	2.172528	0.843861
O	-1.744862	1.122983	1.021278
Br	3.587667	0.0	0.0
