16

C	-0.438073	-0.006129	-1.476343
C	0.0	0.0	0.0
F	-0.305588	-1.351737	-1.840704
H	1.089573	0.0	0.0
H	-0.412601	-0.844755	0.546428
C	-1.888066	0.371718	-1.689667
H	-2.128091	0.204513	-2.740731
H	-2.533216	-0.250346	-1.064768
H	-2.061888	1.421104	-1.447314
N	0.424326	0.739463	-2.349952
H	1.385368	0.465461	-2.143875
H	0.357771	1.716014	-2.083487
N	-0.461733	1.224237	0.685994
O	-1.066863	1.09865	1.752647
O	-0.225562	2.308818	0.149265
Br	3.50481	0.0	0.0
