15

C	0.0	0.0	0.0
C	-0.498741	-0.166271	-1.44422
F	1.393143	0.0	0.0
H	-0.172161	-1.12148	-1.867555
H	-1.60036	-0.154123	-1.302454
N	-0.502741	1.19144	0.620786
H	-1.527465	1.021651	0.581317
H	-0.299946	1.98303	0.015925
C	-0.448448	-1.200302	0.81268
H	-1.540307	-1.207742	0.77344
H	-0.094077	-1.067972	1.836981
H	-0.020087	-2.117331	0.397865
C	-0.04986	0.916397	-2.307234
N	0.309397	1.805179	-2.986981
F	-2.895189	0.0	0.0
