15

C	0.0	0.0	0.0
C	-0.503801	-0.027845	-1.439052
F	1.417012	0.0	0.0
H	-1.605587	-0.015925	-1.310027
H	-0.192378	-0.953004	-1.932917
N	-0.49949	1.20563	0.594451
H	-1.526866	1.048221	0.526092
H	-0.253829	1.200269	1.581086
C	-0.427594	-1.269243	0.717909
H	-0.027116	-2.161828	0.225986
H	-0.054464	-1.242322	1.747256
H	-1.521247	-1.254479	0.698145
C	-0.030058	1.107862	-2.22035
N	0.345638	1.992878	-2.894767
F	-2.890937	0.0	0.0
