15

C	0.0	0.0	0.0
C	-0.514598	0.150339	-1.430224
F	1.389503	0.0	0.0
H	-0.231607	1.143513	-1.789825
H	-1.616092	0.088508	-1.30597
N	-0.507327	1.13673	0.722404
H	-0.292767	0.988482	1.705237
H	-1.534349	0.993765	0.617025
C	-0.420417	-1.337226	0.591466
H	-1.512894	-1.331453	0.592858
H	-0.025615	-1.409729	1.610421
H	-0.021686	-2.171626	0.007611
C	0.000946	-0.860826	-2.338834
N	0.409269	-1.677091	-3.078542
F	-2.898055	0.0	0.0
