15

C	0.0	0.0	0.0
C	-0.507679	0.050856	-1.439657
F	1.397134	0.0	0.0
H	-0.198958	-0.85327	-1.973768
H	-1.609506	0.057946	-1.313574
N	-0.512265	1.155844	0.674287
H	-1.537677	1.013178	0.569555
H	-0.296913	1.065952	1.664237
C	-0.430033	-1.315379	0.635787
H	-0.023479	-2.174116	0.091579
H	-1.523329	-1.300681	0.612074
H	-0.059933	-1.349936	1.66647
C	-0.02797	1.216334	-2.170749
N	0.334373	2.150655	-2.782117
F	-2.896986	0.0	0.0
