15

C	0.0	0.0	0.0
C	-0.510967	0.169247	-1.429976
F	1.396076	0.0	0.0
H	-1.610447	0.076438	-1.312887
H	-0.268314	1.183129	-1.756749
N	-0.524872	1.115724	0.736896
H	-0.328638	0.951329	1.721591
H	-1.550101	0.958963	0.611229
C	-0.408784	-1.354821	0.56696
H	-0.007511	-2.175387	-0.034704
H	-1.500042	-1.360456	0.576346
H	-0.00869	-1.442416	1.583551
C	0.025326	-0.801941	-2.368335
N	0.437934	-1.588575	-3.138282
F	-2.891603	0.0	0.0
