15

C	0.0	0.0	0.0
C	-0.604112	0.117676	-1.390965
F	1.41731	0.0	0.0
H	-1.707714	0.14079	-1.105194
H	-0.378737	-0.754677	-2.008331
N	-0.371534	1.186057	0.731433
H	-0.457835	0.982566	1.719254
H	0.346263	1.883767	0.580334
C	-0.520587	-1.240238	0.67207
H	-0.110723	-1.306963	1.687499
H	-0.211627	-2.132579	0.117862
H	-1.615696	-1.110945	0.659602
C	-0.185955	1.324605	-2.080122
N	0.156814	2.303347	-2.63379
F	-2.966589	0.0	0.0
