15

C	0.0	0.0	0.0
C	-0.252555	-0.033227	-1.52907
F	1.39447	0.0	0.0
H	0.324492	0.809104	-1.932443
H	0.224889	-0.936305	-1.926825
N	-0.528578	1.139796	0.671529
H	-1.556957	0.933268	0.5956
H	-0.339924	1.964676	0.108409
C	-0.449541	-1.263351	0.698469
H	-0.031899	-2.140704	0.196639
H	-1.540936	-1.257277	0.667521
H	-0.081919	-1.230538	1.726771
C	-1.590439	0.054309	-2.126
N	-2.407008	0.132574	-2.968634
F	-2.802578	0.0	0.0
