15

C	0.0	0.0	0.0
C	-0.513627	0.220128	-1.420474
F	1.393636	0.0	0.0
H	-0.214095	-0.617254	-2.058006
H	-1.615086	0.219536	-1.286519
N	-0.507163	1.074253	0.807665
H	-0.282064	0.867427	1.776957
H	-1.532618	0.940915	0.695346
C	-0.430778	-1.379872	0.479603
H	-0.021714	-2.169621	-0.159556
H	-0.060738	-1.53276	1.499305
H	-1.523978	-1.366825	0.458033
C	-0.026725	1.458608	-2.014797
N	0.343341	2.439489	-2.543646
F	-2.899427	0.0	0.0
