15

C	0.0	0.0	0.0
C	-0.324361	-0.273068	-1.482928
F	1.420239	0.0	0.0
H	0.519222	-0.863976	-1.863053
H	-0.30451	0.692238	-1.996344
N	-0.525288	1.272395	0.375038
H	-1.554135	1.054561	0.260718
H	-0.372424	1.375817	1.377472
C	-0.405495	-1.14201	0.918083
H	-1.495636	-1.121283	0.934029
H	-0.015393	-2.096077	0.561055
H	0.010346	-0.939211	1.909092
C	-1.538918	-1.00069	-1.871381
N	-2.290632	-1.686242	-2.464963
F	-2.783675	0.0	0.0
