15

C	0.0	0.0	0.0
C	-0.506759	-0.198375	-1.427176
F	1.389473	0.0	0.0
H	-1.609052	-0.211414	-1.300902
H	-0.19672	0.668568	-2.018527
N	-0.507498	1.277184	0.425166
H	-0.274903	1.381975	1.410073
H	-1.534191	1.107872	0.369716
C	-0.420276	-1.154771	0.897344
H	-1.512651	-1.156554	0.886084
H	-0.039424	-0.967438	1.90733
H	-0.006801	-2.103566	0.543359
C	-0.004284	-1.413645	-2.050524
N	0.396807	-2.390909	-2.564409
F	-2.888134	0.0	0.0
