15

C	0.0	0.0	0.0
C	-0.596878	0.043716	-1.395447
F	1.41814	0.0	0.0
H	-0.361297	-0.868231	-1.953688
H	-1.704484	0.087654	-1.122795
N	-0.377554	1.216081	0.671287
H	-0.331979	1.088953	1.673383
H	0.269938	1.945913	0.395702
C	-0.52784	-1.203966	0.734687
H	-1.624085	-1.073811	0.693519
H	-0.146835	-1.210782	1.761443
H	-0.203166	-2.122307	0.23653
C	-0.142893	1.19952	-2.150011
N	0.236527	2.130719	-2.75887
F	-2.964801	0.0	0.0
