15

C	0.0	0.0	0.0
C	-0.512781	-0.233504	-1.416796
F	1.420414	0.0	0.0
H	-0.242195	0.629178	-2.030638
H	-1.613282	-0.267245	-1.267612
N	-0.509879	1.27979	0.400659
H	-1.536022	1.108398	0.327148
H	-0.305581	1.392006	1.389956
C	-0.403969	-1.139068	0.92374
H	-1.496213	-1.142553	0.92549
H	-0.013343	-0.935146	1.926397
H	0.000844	-2.095236	0.58051
C	-0.01991	-1.45568	-2.031868
N	0.336346	-2.45317	-2.541188
F	-2.889488	0.0	0.0
