14
Coordinates from ORCA-job run
  C   1.02797767734168     -0.13992270314582     -0.04439458001097
  C   -0.41067203246937      0.11971918809061     -0.50375142881887
  F   1.42771567614613      0.89454156356633      0.77898840681898
  H   -0.73242821174901     -0.75393084791987     -1.08526065941035
  H   1.71110139161601     -0.11279775404489     -0.90468024247654
  N   1.08544028988311     -1.34731490475248      0.73600738284409
  H   0.86363743380202     -2.14864121091523      0.15742774691144
  H   2.02574169902392     -1.46734542548603      1.09354707325743
  C   -0.42778662635527      1.27168664573940     -1.40873811896999
  N   -0.44132943266970      2.19973294058652     -2.12697591502196
  C   -1.36130135136265      0.33184155884923      0.67721025572902
  H   -1.32434252378794     -0.53468100236397      1.33575617457213
  H   -2.38230108060983      0.47614135800440      0.32066674318917
  H   -1.06045290880911      1.21297059379180      1.24319716138640
