14
Coordinates from ORCA-job run
  C   0.70902549071768     -0.54251676286250      0.42338583922688
  C   -0.30376111840478      0.30131797351048     -0.35099843810491
  F   0.52804478118491     -1.87195918218048     -0.01483993484652
  H   -0.01127936691163      0.26507257821220     -1.40844114867291
  H   0.47364756007138     -0.54582857569162      1.49082314320593
  N   2.02595007807940     -0.07864223161630      0.23099838658695
  H   2.69130842641989     -0.59330225370442      0.79144619998968
  H   2.29722735892663     -0.12638220899532     -0.74272901783519
  C   -0.21889756286680      1.69324912871566      0.09437391046011
  N   -0.20664961589513      2.80789159178242      0.46159566819864
  C   -1.73232836192998     -0.22887540485409     -0.20488666129656
  H   -1.78618332019939     -1.25036672371815     -0.57905436276291
  H   -2.03558149080191     -0.22221883893104      0.84448105792188
  H   -2.43052285839027      0.39356091033317     -0.76615464207108
