14
Coordinates from ORCA-job run
  C   0.77361870699104     -0.74402953425928     -0.16060774714807
  C   -0.41934280441418      0.09834298139073     -0.61389829192657
  F   1.69259248212656     -0.75925696257726     -1.22663223765569
  H   -0.70625898969775     -0.26598735212954     -1.60545190580381
  H   0.45539442567987     -1.78123748508848     -0.02534862836270
  N   1.33273945595053     -0.26167983356649      1.04239086692896
  H   1.70753816411675      0.67208735925932      0.92210647981696
  H   2.06520766618455     -0.87198718408869      1.37843303400273
  C   0.00356466020950      1.49398882216943     -0.75609547824042
  N   0.35408185924024      2.61252822775631     -0.81879439347948
  C   -1.59726197864398     -0.02077228159794      0.35529993172639
  H   -2.44822536582855      0.56295845261589      0.00152015672307
  H   -1.90601166978222     -1.06572538505023      0.43444385083281
  H   -1.30763661213236      0.33077017516623      1.34463436258584
