14
Coordinates from ORCA-job run
  C   0.86459735667373     -0.63837304453389     -0.22994191495261
  C   -0.38638986450018      0.12383759884620     -0.65693861205458
  F   1.83241220598589     -0.47710938024452     -1.20050102386655
  H   -0.70183665716894     -0.30082372293006     -1.61678798213609
  H   0.63054860554060     -1.71443436014146     -0.21037270477053
  N   1.40490878648616     -0.11304158607631      0.99525726090557
  H   0.85310067365295     -0.41735250882895      1.78747677870294
  H   2.34641621941591     -0.46748632199136      1.11491472592572
  C   -0.06697092039333      1.53589823241390     -0.87819122128147
  N   0.13897726256020      2.67625770919253     -1.06101720099383
  C   -1.51516315492321     -0.02509096165991      0.36701246819187
  H   -1.25734128596999      0.47823962403028      1.29995885190635
  H   -2.43500710416486      0.42260143052300     -0.01065630351896
  H   -1.70925212319494     -1.08212270859945      0.56878687794216
