14
Coordinates from ORCA-job run
  C   0.72290947007405     -0.68489337567974      0.30701055112449
  C   -0.30013427037055      0.24476397749085     -0.35694469632903
  F   0.51969413551196     -1.93905165287380     -0.28363849972331
  H   -0.02254142796801      0.29889519546036     -1.41771061785305
  H   0.48676820983743     -0.81697621794982      1.36720964594538
  N   2.05948087473158     -0.26727488997596      0.13498936658080
  H   2.19905435300748      0.47481740556034     -0.53171979211308
  H   2.56175959385697     -0.09762348318060      0.98911315133069
  C   -0.16344303138959      1.58480226915060      0.21686918540181
  N   -0.05742389313689      2.64982900946635      0.69916361885192
  C   -1.73690561372881     -0.26549401577067     -0.23597319302756
  H   -2.43046357873746      0.40969154302330     -0.73921692674176
  H   -2.02950486454803     -0.33799691074727      0.81375715533304
  H   -1.81024995714012     -1.25248885397393     -0.68990894878035
