14
Coordinates from ORCA-job run
  C   0.69260464556723     -0.70901516349995      0.32508361315388
  C   -0.31078952403640      0.22736660441345     -0.35916055475277
  F   0.35512298713089     -1.99519016574513     -0.11424438174196
  H   -0.11650715672757      0.15166331072254     -1.43701161890705
  H   0.53199373989567     -0.71492460020958      1.40734235798154
  N   2.03978965254129     -0.41979039583888      0.01629306786051
  H   2.60801851383407     -0.18397258241350      0.81184802533992
  H   2.17549874226999      0.23568074980247     -0.73704538225985
  C   -0.03203155123517      1.60316490195764      0.05683359909707
  N   0.19666961699825      2.69849762251567      0.41218384622094
  C   -1.76638786080160     -0.15121382050542     -0.08046388660839
  H   -1.94689848044803     -1.17075009739140     -0.41779283320029
  H   -2.44751018496636      0.52193541707343     -0.60317356865350
  H   -1.97857314002226     -0.09145178088133      0.98930771646995
