14
Coordinates from ORCA-job run
  C   0.69499580715863     -0.66367188913770      0.32081492910244
  C   -0.31835301512240      0.23943122661326     -0.38733978450455
  F   0.42795565537750     -1.96808430876184     -0.08251239477129
  H   -0.09713721271990      0.15970434305152     -1.45793461885274
  H   0.51086301820776     -0.65973555021536      1.40389043306404
  N   2.02702771630989     -0.33733362021110     -0.06387052120343
  H   2.16265065213930      0.65654113443034     -0.18349192481282
  H   2.70683696411229     -0.69100943403685      0.59445563529611
  C   -0.09762509341295      1.62639086612272      0.02434070034700
  N   0.09212108921045      2.72946561307625      0.37946902167957
  C   -1.76139627899804     -0.19195208065758     -0.11910114481412
  H   -1.99063821105571     -0.12736819689348      0.94669807272615
  H   -2.45930312243722      0.44810959229355     -0.66052401524556
  H   -1.89899796876961     -1.22148769567373     -0.44689438801079
