14
Coordinates from ORCA-job run
  C   1.02248856975965     -0.19046360787279      0.02613514301527
  C   -0.35461993569526      0.20545598842896     -0.51717543111894
  F   1.39467859243261      0.71428350377459      1.00131781342018
  H   -0.66293914460885     -0.57118757697974     -1.22903438732962
  H   1.78117545926881     -0.10043604025946     -0.76358476474720
  N   0.95152918734827     -1.48303578334257      0.65325089090635
  H   0.72859963811521     -2.19376891204531     -0.03297658732516
  H   1.85280371834774     -1.70713165468121      1.05808825932452
  C   -0.23448053262879      1.45716068212280     -1.26878215154311
  N   -0.13919947437808      2.46427591075732     -1.86391973488799
  C   -1.39762992254086      0.32837689630580      0.59669380029754
  H   -1.11169064565444      1.12011373340688      1.28845268884281
  H   -2.37546091590397      0.56695724085371      0.17587824756961
  H   -1.45625459386204     -0.60960038046896      1.14665621357574
