14
Coordinates from ORCA-job run
  C   0.73687713454296     -0.67586040044988      0.29400757432348
  C   -0.32002046514217      0.23079010340330     -0.34828727374298
  F   0.49928806062536     -1.95106982085753     -0.23487887363356
  H   -0.10046377628001      0.24418085018917     -1.42394065144078
  H   0.56056045768566     -0.76482319347195      1.37020721628900
  N   2.06293814849436     -0.27074804806691      0.03326641098793
  H   2.60797720216506     -0.05858013083765      0.85083252105881
  H   2.16853142966972      0.43565901465051     -0.67713975748926
  C   -0.15019535101871      1.59162217554990      0.16457300347534
  N   -0.01673733895574      2.67414259235285      0.59896424162827
  C   -1.74883330574475     -0.26940540402905     -0.13035285944033
  H   -1.84970971578267     -1.27093325067145     -0.54579539178785
  H   -2.46791909952982      0.39155823414850     -0.61651552288906
  H   -1.98229338072925     -0.30553272190982      0.93605936266101
