14
Coordinates from ORCA-job run
  C   0.84511512025716     -0.75134468640858     -0.26770835010923
  C   -0.38541682985078      0.09141638462737     -0.64543005100265
  F   1.67561159399738     -0.73459760153339     -1.38287449262324
  H   -0.74585932587584     -0.27300932092470     -1.61294776724075
  H   0.52607051505973     -1.78766226655568     -0.11885852753223
  N   1.57301812126042     -0.32613639804366      0.86958172776034
  H   1.30376752389728     -0.78278168460073      1.72502932943525
  H   1.62642462293653      0.67703050462758      0.97630713952045
  C   0.01964544150229      1.48854407219937     -0.80875735022443
  N   0.35557103221824      2.61192255014388     -0.86940730047847
  C   -1.49083029622106     -0.02856824127881      0.40519026306388
  H   -1.14695131400449      0.34493869427254      1.37092164364768
  H   -2.37022928367210      0.54570324500596      0.11115581530559
  H   -1.78693692150477     -1.07445525153113      0.51879792047781
