14
Coordinates from ORCA-job run
  C   0.77848421896618     -0.74384351484434     -0.14162615994432
  C   -0.39347954221482      0.10915417447434     -0.62791685670061
  F   1.73768443649573     -0.74733731130961     -1.17181021843415
  H   -0.64252559333261     -0.23871282686389     -1.63554949904439
  H   0.45240386348526     -1.78174105189160     -0.03327575710499
  N   1.29272185717460     -0.28072487069756      1.08855421210088
  H   1.67590530326291      0.65290471111523      0.99607651844119
  H   2.00849552678688     -0.89935361078016      1.44482206217756
  C   0.03725670878317      1.50566170497289     -0.73282262221770
  N   0.38356194836194      2.62691230559741     -0.76497199278593
  C   -1.60854210972956     -0.02084899004871      0.29280873847873
  H   -1.92586081023295     -1.06525402323957      0.34004857379034
  H   -2.44205609261320      0.57470890571424     -0.08230804806786
  H   -1.35504971519355      0.31047439780134      1.29897104931126
