14
Coordinates from ORCA-job run
  C   0.85170489805144     -0.75199800098974     -0.24632703208409
  C   -0.35809445324716      0.10449168793652     -0.65854754872216
  F   1.72593649949828     -0.72204888325505     -1.32752587778950
  H   -0.68176502244601     -0.24246353400828     -1.64530892460272
  H   0.52151154399955     -1.78871445018233     -0.12778948449189
  N   1.53625796550542     -0.34982743017012      0.92567328255187
  H   1.58978115087435      0.65111453734222      1.05156820128094
  H   1.23189037631579     -0.81940330655340      1.76208558841693
  C   0.06101980629670      1.50149759869176     -0.78319026145662
  N   0.40288534748999      2.62434234955867     -0.81254932392739
  C   -1.50466778634193     -0.02558799774659      0.34568400903541
  H   -2.36936066163200      0.55684986243309      0.02537016139841
  H   -1.19791841192521      0.33234875635373      1.32961312652051
  H   -1.80918125243923     -1.07160118941047      0.43224408387029
