15
Coordinates from ORCA-job run
  C   0.73935123190634      0.18161150616756      0.18799749204628
  C   -0.49588937122592     -0.21212488174383     -0.22814544946514
  C   0.93114774424228      1.37015298907383      1.09826987431233
  H   0.46021746610141      2.26380610094945      0.67593598277139
  H   0.49742698864163      1.19368508864217      2.08963646509447
  H   1.98983342291154      1.58564266633049      1.23999099235668
  C   1.89024712678580     -0.53608171733037     -0.24177502554357
  N   2.86192053152000     -1.11189798178631     -0.57741623785836
  N   -1.62740900953417      0.50213059863707      0.12283476058920
  H   -2.49506702804808     -0.00627632602744      0.05984136611197
  H   -1.56221056777349      1.06883166135132      0.95370520667793
  C   -0.74156200165752     -1.35560200834009     -1.16441148793048
  H   -1.37477548123654     -2.11167660860270     -0.68810456479031
  H   -1.26218167135660     -0.99980696424433     -2.05827937558249
  H   0.18895061872331     -1.83139412307684     -1.47007999878989
