15
Coordinates from ORCA-job run
  C   0.59504445043630      0.46758390409858      0.27625839103794
  C   -0.47843844225382     -0.37361233490286      0.23178124681016
  C   1.41571315565050      0.93500145239890     -0.89925475529369
  H   1.11731803398078      1.93842151515111     -1.22003624304757
  H   2.47294035218235      0.98278696366003     -0.62602836646702
  H   1.32990476987496      0.26121509440196     -1.75083494974208
  C   0.96003693582166      0.97862235788140      1.55709444524348
  N   1.22987280973401      1.39172997936719      2.62758717153748
  N   -1.08389652025547     -0.86543921185700      1.37443876901567
  H   -0.84377597225849     -0.40006081436791      2.23837009511534
  H   -2.06844023990306     -1.06510200806154      1.29008329518923
  C   -1.03838789258956     -0.94751755575770     -1.03569487242926
  H   -2.12515294074084     -0.81162841869141     -1.05134157787356
  H   -0.84538286974786     -2.02318563360016     -1.08689932932372
  H   -0.63835562993146     -0.46981528972059     -1.92552331977242
