15
Coordinates from ORCA-job run
  C   0.50362818290246      0.34100545693430      0.53212970522605
  C   -0.49059171446464     -0.42617949952375     -0.00141164752962
  C   1.33316669685605      1.36520063914191     -0.20102127106549
  H   0.97122606456727      2.38149313496641     -0.01599136608609
  H   2.37067038499222      1.32021441894163      0.13809154847302
  H   1.33643704185570      1.19170072656090     -1.27662446817864
  C   0.75169267005322      0.19414943026501      1.92911884430456
  N   0.93571384585396      0.03753068125051      3.08280368333774
  N   -1.27908248491717     -1.26300577304362      0.76814918607967
  H   -0.92322753168144     -1.48551201558726      1.68734932143265
  H   -1.65385677591665     -2.06340225549942      0.28362590048090
  C   -0.88036726784476     -0.39644845674490     -1.45148094881036
  H   -1.96864568122761     -0.43917855644537     -1.53915490296687
  H   -0.53899454494249      0.50385312848091     -1.95583207573300
  H   -0.46576888608613     -1.26242105969728     -1.97875150896451
