15
Coordinates from ORCA-job run
  C   0.70135602518885      0.33142704138174      0.11146508326386
  C   -0.47722273097413     -0.27566501858603     -0.19893639066507
  C   0.85550292695532      1.19079898014217      1.34243986071008
  H   1.83194611579684      1.67375113420044      1.35932405225950
  H   0.09318650801528      1.97652004946683      1.36613228797888
  H   0.76481360033840      0.60141426090234      2.26226279804660
  C   1.82749148693457      0.16062314169090     -0.74144286654907
  N   2.77772034523822      0.03434783128910     -1.42661541094989
  N   -1.60536551201495     -0.08041713486662      0.57708383940739
  H   -2.32085888873218     -0.78343549771558      0.48441624992312
  H   -1.45070875725448      0.20083914414916      1.53259175461723
  C   -0.69813967103717     -1.09843764888070     -1.43134630339584
  H   -1.47964113426345     -0.64307050604757     -2.04679703548370
  H   -1.02976508570720     -2.10712221176571     -1.16327860086824
  H   0.20968477151607     -1.18357356536047     -2.02629931829484
