15
Coordinates from ORCA-job run
  C   0.55967429650250      0.58050081980838      0.11405790723407
  C   -0.60485826031908     -0.03157993862750     -0.24612361401314
  C   1.77027748529358     -0.13286938228996      0.67155602358349
  H   2.01404367741041     -1.02607726625366      0.09308542073782
  H   1.62602636360845     -0.42850470468937      1.71511894595344
  H   2.63953963869829      0.52512541450119      0.63565585453930
  C   0.62283037773214      1.99662109373919     -0.03191734707949
  N   0.63168727879284      3.16832146225003     -0.16095157452397
  N   -1.64043250443953      0.63294085077889     -0.87476818439409
  H   -1.60219440223254      1.64226048198131     -0.84655983144477
  H   -2.56133186266144      0.26324793900694     -0.69971995079993
  C   -0.81328009148315     -1.51054418423311     -0.11336511497610
  H   -1.79176627366935     -1.71939295149914      0.33028094004396
  H   -0.05669335821597     -1.97667994308034      0.51432722215623
  H   -0.79352236501717     -1.98336969139284     -1.09967669701682
