15
Coordinates from ORCA-job run
  C   0.56383177738581      0.56902059439495      0.09117795356603
  C   -0.57518302126934     -0.07265498841459     -0.29905775928644
  C   1.70420305022628     -0.03903233489595      0.87038517804587
  H   1.61683146161193      0.16297580557982      1.94242093217905
  H   1.76276245495317     -1.11762965431392      0.72600290461770
  H   2.65280506745698      0.38497421827896      0.53469226159114
  C   0.67550909557100      1.95091787894108     -0.24475206074243
  N   0.73178317912086      3.09241509278834     -0.53327926134762
  N   -1.51172716651708      0.51340665936789     -1.13156690372576
  H   -1.43668997758303      1.51475966501441     -1.24511241729330
  H   -2.46047168504193      0.20091693770180     -0.99690178632207
  C   -0.86299299822712     -1.51097322785270      0.01570592060934
  H   -1.90153081293290     -1.62388977437126      0.34213287385221
  H   -0.73371189553469     -2.12610099712673     -0.87936439706592
  H   -0.22541852921995     -1.89910587509209      0.80651656132222
