15
Coordinates from ORCA-job run
  C   0.53827420837016      0.59578972329180      0.07221759177728
  C   -0.55063434496077     -0.12352236277184     -0.32615550288910
  C   1.53884098286163      0.18731942449154      1.12498921841145
  H   1.11576471555273     -0.52824284646701      1.82932841016820
  H   1.85516347339124      1.06089268954128      1.69930363664253
  H   2.43614878925901     -0.25432631204452      0.68036651095787
  C   0.76927653728490      1.83865198659652     -0.58897715773382
  N   0.93447148550010      2.85640449827651     -1.16020972078478
  N   -1.49806301705510      0.38191952571159     -1.19779710309419
  H   -1.23302785647403      1.21301893310957     -1.70759355263423
  H   -1.96637492778072     -0.30269011160579     -1.76993328965714
  C   -0.90533649117322     -1.46877830627306      0.23569811536728
  H   -0.07553637933638     -1.93056744541250      0.76544924897647
  H   -1.75681417247019     -1.38058148450858      0.91666785995090
  H   -1.20115300296937     -2.14628791193552     -0.57135426545871
