15
Coordinates from ORCA-job run
  C   0.73294694690974      0.18998186654292      0.20439630042009
  C   -0.48848737050659     -0.21326474962629     -0.24238284163123
  C   0.89703721856776      1.39737931815941      1.09347706249206
  H   0.47815208435978      1.22191398950091      2.09110315841093
  H   0.39422904844008      2.27006079748819      0.66415634730631
  H   1.94973598112408      1.64872263531529      1.22525627154046
  C   1.89231055942241     -0.55458969292092     -0.15171127046882
  N   2.86597356541059     -1.15753689231595     -0.42890570056312
  N   -1.62950292902193      0.51497160040903      0.04820207509254
  H   -1.59054755479441      1.08607948712151      0.87749674738205
  H   -2.49396443680051      0.00275370491439     -0.02829141685706
  C   -0.70150661931535     -1.37843331072524     -1.15995298407940
  H   -1.10632837446451     -1.03213687829126     -2.11512486792516
  H   0.22561166380078     -1.91655561890367     -1.34702420055326
  H   -1.42665978313192     -2.07734625666833     -0.72969468056638
