15
Coordinates from ORCA-job run
  C   0.50429570233669      0.61801705079968      0.16034058077004
  C   -0.57960771238289     -0.08159805780385     -0.28343669483218
  C   1.66901092584134      0.02977746246584      0.92330569760380
  H   2.50923628619665      0.72557474459127      0.91131906970296
  H   2.01613398668923     -0.90445041474495      0.47798751756386
  H   1.41531044927317     -0.16231199240054      1.97036741977771
  C   0.50820706900178      2.02355525777430     -0.07721288144472
  N   0.47879767670835      3.18024056181095     -0.30296455898262
  N   -1.67890234220096      0.52542129579612     -0.86183879525830
  H   -1.54507677467985      1.47618259358184     -1.17661036569511
  H   -2.18838878833661     -0.04372069175682     -1.51939327364752
  C   -0.73551880604060     -1.56003730544640     -0.08809017742877
  H   0.09774629571409     -1.99743428506542      0.45655582842343
  H   -1.65580950648543     -1.76219929759489      0.46659561068523
  H   -0.81543446163495     -2.06701692200711     -1.05592497723781
