15
Coordinates from ORCA-job run
  C   0.55375720270844      0.59278466044782      0.04439746668321
  C   -0.60216045910069     -0.07206275895161     -0.24323557646799
  C   1.69933444599439      0.03160507475297      0.85405799972312
  H   1.34350779652226     -0.55831779359096      1.70014044627191
  H   2.30443660476741      0.84512158145178      1.25730843664598
  H   2.35851188793323     -0.59788086565803      0.24806436151815
  C   0.69719788405329      1.90701759389366     -0.48839271375285
  N   0.78097511697304      2.98737878122484     -0.95255365776594
  N   -1.67570716150036      0.52849466867979     -0.87292811856727
  H   -2.25276744105122     -0.08525520036163     -1.42556136263761
  H   -1.48785706928094      1.41346646530858     -1.32287611993067
  C   -0.86730100373974     -1.47505657540492      0.21598358625744
  H   -1.58705877635950     -1.47313529891875      1.03981508050175
  H   -1.30271823308664     -2.06395057027882     -0.59731734783197
  H   0.03984920516703     -1.97920976259472      0.54209751935272
