15
Coordinates from ORCA-job run
  C   0.52779204421947      0.60887632889939      0.07658257461746
  C   -0.60585708117293     -0.08695869334919     -0.22633407311144
  C   1.73227091738264      0.05427306726037      0.79868781604005
  H   2.46360218605363     -0.37199068629912      0.10476542526846
  H   1.45147702791629     -0.71510795762142      1.51846145355792
  H   2.23330831797957      0.84969270241232      1.35356411232376
  C   0.58909173444071      1.96695552897810     -0.35378506335430
  N   0.60626817765542      3.08367864346206     -0.73092196265505
  N   -1.72877989225038      0.51275893760034     -0.76579609090952
  H   -2.29340412513014     -0.07899061030023     -1.35428069407047
  H   -1.59731069515541      1.44078714121646     -1.14333058283135
  C   -0.79599126264627     -1.53439583862475      0.11880132511430
  H   0.14231885354637     -2.02852051070899      0.36009303390416
  H   -1.24504885038616     -2.06720264831259     -0.72512327601684
  H   -1.47873735245283     -1.63385540461274      0.96761600212284
