15
Coordinates from ORCA-job run
  C   0.46829676462356      0.62409907752130      0.20975079945531
  C   -0.52514443694930     -0.10818512678852     -0.37153591865246
  C   1.46754512632725      0.11469926768370      1.21978040462178
  H   1.05845148208188     -0.70010269788244      1.81706370657152
  H   1.74516065169249      0.91509947337623      1.90865528010780
  H   2.38604550310078     -0.23643004660724      0.73909059313008
  C   0.59579597242164      1.98356682939477     -0.20205874855452
  N   0.67646719451268      3.09994291617768     -0.57169942476095
  N   -1.48513331845172      0.45615265022232     -1.19217352104162
  H   -1.85467900554273     -0.15448183328182     -1.90379993240986
  H   -1.28093148801069      1.38466834441609     -1.53432273353758
  C   -0.75792394224721     -1.56077912043147     -0.07768475044362
  H   0.09331564318849     -2.02736003333705      0.41236023317802
  H   -0.94509754671191     -2.10635396210882     -1.00801016241927
  H   -1.64216860003521     -1.68253573835473      0.55458417475538
