14

C	0.0	0.0	0.0
C	-0.426093	-0.147821	-1.452799
F	1.395166	0.0	0.0
H	-1.517113	-0.132003	-1.466087
H	-0.350793	-0.824646	0.622489
H	-0.346533	0.945559	0.4203
C	0.085081	-1.462779	-2.027382
H	-0.333513	-2.312769	-1.481705
H	-0.202939	-1.539742	-3.076862
H	1.176265	-1.514842	-1.96497
N	0.072336	0.960619	-2.282049
H	1.037451	1.134561	-2.018897
H	-0.454164	1.795105	-2.046769
Br	-3.720828	0.0	0.0
