13

C	0.0	0.0	0.0
C	-0.502141	-0.273647	-1.430488
Cl	1.792415	0.0	0.0
H	-0.208814	0.574388	-2.057992
H	-1.605336	-0.276045	-1.262323
N	-0.53724	1.206368	0.554871
H	-1.569174	0.985965	0.487602
H	-0.324501	1.96154	-0.092344
C	-0.386185	-1.12734	0.87352
N	-0.565107	-2.034791	1.595545
C	-0.017083	-1.508816	-2.025211
N	0.364901	-2.500104	-2.527478
F	-2.749575	0.0	0.0
