13

C	0.0	0.0	0.0
C	-0.522437	-0.117709	-1.436023
Cl	1.787672	0.0	0.0
H	-0.19048	-1.057337	-1.884479
H	-1.626655	-0.118825	-1.266282
N	-0.542765	1.182822	0.585112
H	-1.576828	0.976427	0.493916
H	-0.294898	1.210552	1.568948
C	-0.362091	-1.252354	0.713122
N	-0.579436	-2.257971	1.281058
C	-0.095867	0.997798	-2.267931
N	0.215812	1.862752	-2.998588
F	-2.773168	0.0	0.0
