13

C	0.0	0.0	0.0
C	-0.523272	-0.045219	-1.438592
Cl	1.787506	0.0	0.0
H	-0.195993	-0.963282	-1.932654
H	-1.627379	-0.053436	-1.267099
N	-0.541036	1.152365	0.643518
H	-0.29527	1.132078	1.628434
H	-1.574894	0.95515	0.539742
C	-0.365228	-1.288015	0.644933
N	-0.571953	-2.326166	1.155061
C	-0.093705	1.111067	-2.208909
N	0.228238	2.019262	-2.880441
F	-2.774322	0.0	0.0
