13

C	0.0	0.0	0.0
C	-0.509217	-0.044285	-1.443713
Cl	1.785626	0.0	0.0
H	-1.613525	-0.052868	-1.292993
H	-0.183798	0.881749	-1.925193
N	-0.541958	1.180069	0.601186
H	-0.291029	1.185896	1.585479
H	-1.575893	0.965544	0.512002
C	-0.369603	-1.254017	0.701689
N	-0.585721	-2.245223	1.29485
C	-0.045477	-1.195441	-2.200675
N	0.307983	-2.113888	-2.842167
F	-2.761085	0.0	0.0
