14

C	0.0	0.0	0.0
C	-0.553236	-0.156671	-1.39177
Cl	1.767281	0.0	0.0
H	-0.024942	-0.972049	-1.891304
H	-0.359595	0.889458	0.511566
H	-1.606181	-0.426804	-1.271588
N	-0.386166	-1.155027	0.898311
O	-0.466616	-2.263491	0.38267
O	-0.513516	-0.897533	2.089633
C	-0.458366	1.152168	-2.166083
H	-0.812739	1.008488	-3.189667
H	-1.104521	1.899124	-1.698447
H	0.564341	1.538308	-2.211076
Br	-3.749513	0.0	0.0
