11

C	0.0	0.0	0.0
C	-0.51146	0.022995	-1.431814
F	1.377397	0.0	0.0
H	-1.613056	-0.011514	-1.384466
H	-0.360619	-0.886772	0.524335
H	-0.201793	0.954251	-1.914056
C	-0.422869	1.204707	0.740377
N	-0.648893	2.1455	1.40452
C	0.020672	-1.106102	-2.18657
N	0.450121	-2.010121	-2.799572
Br	-3.591923	0.0	0.0
