11

C	0.0	0.0	0.0
C	-0.49868	0.159629	-1.429724
F	1.377581	0.0	0.0
H	-1.593887	0.250391	-1.385744
H	-0.376012	-0.934159	0.419073
H	-0.248371	-0.746157	-1.989316
C	-0.398569	1.130216	0.861734
N	-0.534761	2.074086	1.545324
C	0.114794	1.307076	-2.090204
N	0.618759	2.215597	-2.635495
Br	-3.561162	0.0	0.0
