18

C	0.0	0.0	0.0
C	-0.559729	0.081983	-1.416232
Cl	1.803473	0.0	0.0
H	-1.644801	0.025721	-1.255878
H	-0.278205	-0.973745	0.410574
C	-0.508545	1.086399	0.925736
H	-1.602204	1.05778	0.893566
H	-0.149791	2.070589	0.618319
H	-0.171416	0.905374	1.949461
C	-0.141779	-1.11449	-2.26513
H	0.929042	-1.095472	-2.489463
H	-0.691039	-1.111685	-3.210876
H	-0.370251	-2.053505	-1.752661
C	-0.243765	1.395496	-2.12316
H	-0.668968	2.249231	-1.592113
H	-0.682343	1.387436	-3.125114
H	0.835771	1.546782	-2.224925
Cl	-3.907717	0.0	0.0
