16

C	0.0	0.0	0.0
C	-0.551273	-0.106554	-1.441167
Br	1.960556	0.0	0.0
H	-1.630725	-0.320472	-1.34189
N	-0.492824	1.121837	0.739735
H	-1.515439	1.01581	0.772232
H	-0.249661	1.976441	0.254339
C	-0.362476	-1.229058	0.721216
N	-0.600692	-2.219405	1.307166
N	0.107585	-1.180657	-2.248426
O	0.886782	-0.847043	-3.13723
O	-0.176312	-2.328374	-1.920494
N	-0.443365	1.149517	-2.244669
O	-1.134796	1.162433	-3.258292
O	0.307806	2.048663	-1.873391
Cl	-3.411393	0.0	0.0
