16

C	-0.313086	0.012864	-1.491644
C	0.0	0.0	0.0
Br	-2.257952	0.122046	-1.842846
H	1.099296	0.0	0.0
H	0.083132	0.945547	-1.899169
C	0.277832	-1.178444	-2.216624
H	1.350565	-1.198721	-1.998088
H	0.125755	-1.096325	-3.294395
H	-0.174123	-2.109037	-1.867348
C	-0.482981	-1.222826	0.63379
N	-0.896813	-2.192801	1.152029
C	-0.46744	1.238889	0.759017
H	-0.074026	1.214747	1.776903
H	-0.069295	2.130154	0.267668
H	-1.556722	1.305023	0.79535
Br	3.484811	0.0	0.0
