16

C	-0.31276	0.009964	-1.491827
C	0.0	0.0	0.0
Br	-2.2574	0.122216	-1.843405
H	1.099295	0.0	0.0
H	0.085063	0.941005	-1.901481
C	0.27544	-1.184195	-2.214725
H	-0.179766	-2.112997	-1.864654
H	1.347817	-1.206962	-1.995147
H	0.124495	-1.10297	-3.292731
C	-0.483271	-1.221007	0.636647
N	-0.894858	-2.190551	1.157667
C	-0.466529	1.240939	0.756075
H	-0.066272	2.130579	0.263573
H	-0.074426	1.218239	1.774623
H	-1.555803	1.308988	0.791099
Br	3.485507	0.0	0.0
