16

C	-0.491681	0.052257	-1.448884
C	0.0	0.0	0.0
Br	0.043226	-1.582419	-2.394892
H	1.096501	0.0	0.0
H	-1.586887	0.031031	-1.477574
C	0.060399	1.257141	-2.195198
H	1.147366	1.294894	-2.078901
H	-0.376638	2.177202	-1.794641
H	-0.188642	1.198917	-3.256114
C	-0.505867	-1.190485	0.68092
N	-0.952046	-2.105188	1.268397
C	-0.441545	1.24712	0.782096
H	-0.176571	1.125357	1.833763
H	0.088024	2.12517	0.411513
H	-1.522067	1.41204	0.71019
Br	3.520563	0.0	0.0
