15

C	-0.521999	-0.01101	-1.44484
C	0.0	0.0	0.0
Cl	0.323137	1.310787	-2.340504
H	1.093576	0.0	0.0
N	-0.090068	-1.300366	-2.147164
O	0.800851	-1.957438	-1.631568
O	-0.675951	-1.543599	-3.198117
N	-1.927629	0.028726	-1.51594
H	-2.284661	0.87928	-1.098328
H	-2.230792	-0.047663	-2.479172
C	-0.492146	-1.168919	0.730227
N	-0.882095	-2.106688	1.319769
C	-0.478906	1.220655	0.64771
N	-0.902152	2.196424	1.146635
Br	3.331478	0.0	0.0
