15

C	-0.505788	-0.013714	-1.445205
C	0.0	0.0	0.0
Cl	0.331715	1.340043	-2.332528
H	1.093435	0.0	0.0
N	-0.018147	-1.284488	-2.149671
O	-0.636433	-1.59665	-3.167765
O	0.948983	-1.861199	-1.670856
N	-1.906242	-0.003157	-1.548426
H	-2.192473	-0.110267	-2.513429
H	-2.289946	0.841054	-1.144086
C	-0.479015	-1.185524	0.704448
N	-0.83907	-2.146337	1.275736
C	-0.487384	1.205969	0.654043
N	-0.896435	2.179964	1.168222
Br	3.052525	0.0	0.0
