16

C	-0.104943	0.032471	-1.532494
C	0.0	0.0	0.0
Br	-0.434869	-1.926393	-2.277166
H	1.103127	0.0	0.0
N	-1.383792	0.684628	-2.044221
O	-1.314636	1.299362	-3.103264
O	-2.392579	0.540414	-1.365372
N	1.005022	0.628296	-2.025647
H	1.073465	0.729434	-3.025098
H	1.86262	0.426526	-1.452497
C	-0.608197	-1.124607	0.688542
N	-1.126628	-1.924338	1.377623
N	-0.409861	1.2995	0.516211
H	0.267935	1.594036	1.207937
H	-1.333593	1.261113	0.924397
F	2.643906	0.0	0.0
