16

C	-0.420316	0.025783	-1.444377
C	0.0	0.0	0.0
Br	-2.453531	0.617308	-1.550509
H	1.09324	0.0	0.0
N	0.242597	1.148338	-2.236081
O	0.806965	2.038349	-1.625079
O	0.15133	1.056207	-3.459492
N	-0.189772	-1.14528	-2.13352
H	-0.419503	-1.074121	-3.113883
H	-0.5824	-1.959039	-1.683029
C	-0.443377	-1.257771	0.581521
N	-0.807272	-2.272058	1.056709
N	-0.407607	1.16777	0.757535
H	-1.16697	0.965981	1.393422
H	0.406002	1.481441	1.271685
F	2.488624	0.0	0.0
