16

C	-0.579393	0.017895	-1.40746
C	0.0	0.0	0.0
Br	0.517908	1.324105	-2.48972
H	1.093154	0.0	0.0
N	-0.361654	-1.29229	-2.148058
O	-1.050455	-1.46482	-3.153035
O	0.477044	-2.065706	-1.707244
N	-1.949243	0.301979	-1.422698
H	-2.298869	0.433262	-2.362425
H	-2.086823	1.126353	-0.846529
C	-0.537685	-1.123517	0.747117
N	-0.949002	-2.006863	1.406733
N	-0.390145	1.285227	0.634719
H	0.488767	1.764967	0.791341
H	-0.798357	1.109294	1.541775
F	2.524508	0.0	0.0
