16

C	-0.604221	-0.034741	-1.395543
C	0.0	0.0	0.0
Br	0.522324	1.153832	-2.574634
H	1.095235	0.0	0.0
N	-0.46894	-1.389118	-2.066132
O	-1.17877	-1.575023	-3.051757
O	0.328006	-2.185885	-1.591139
N	-1.956624	0.315903	-1.397715
H	-2.033939	1.164568	-0.848354
H	-2.314461	0.44014	-2.3342
C	-0.547508	-1.067288	0.819219
N	-0.980432	-1.878005	1.554047
N	-0.350409	1.328215	0.578126
H	0.548668	1.786398	0.688308
H	-0.727156	1.200697	1.509962
F	2.524994	0.0	0.0
