16

C	-0.630444	0.294331	-1.351607
C	0.0	0.0	0.0
Br	0.179189	1.864219	-2.165063
H	1.105184	0.0	0.0
N	-0.267469	-0.862319	-2.338693
O	0.832345	-1.381514	-2.236471
O	-1.131089	-1.156206	-3.167858
N	-2.032544	0.479781	-1.283536
H	-2.414472	0.582345	-2.216114
H	-2.444891	-0.346936	-0.858051
C	-0.511117	-1.291318	0.453474
N	-0.970855	-2.304012	0.841065
N	-0.304681	1.0895	0.920091
H	-1.14881	0.937338	1.454515
H	0.492833	1.176371	1.536719
F	2.509622	0.0	0.0
