16

C	-0.23973	0.058178	-1.485089
C	0.0	0.0	0.0
Br	-2.255489	0.889408	-1.865275
H	1.092758	0.0	0.0
N	0.564147	1.148618	-2.181424
O	0.827317	2.158299	-1.549929
O	0.862941	0.939034	-3.354417
N	-0.069079	-1.110033	-2.155419
H	-0.56844	-1.899649	-1.77437
H	-0.066693	-1.030735	-3.160239
C	-0.518955	-1.265065	0.494032
N	-0.928666	-2.310754	0.845699
N	-0.408037	1.103022	0.836953
H	-1.264467	1.516612	0.485485
H	0.331084	1.792018	0.786388
F	2.471772	0.0	0.0
