16

C	-0.09836	0.014143	-1.532781
C	0.0	0.0	0.0
Br	-0.43114	-1.956355	-2.258683
H	1.094614	0.0	0.0
N	-1.376104	0.659075	-2.054024
O	-2.386155	0.517067	-1.375649
O	-1.30597	1.269486	-3.115692
N	1.016484	0.595451	-2.028723
H	1.09331	0.662322	-3.030047
H	1.870092	0.39819	-1.44376
C	-0.596055	-1.125445	0.700294
N	-1.077113	-1.946742	1.392297
N	-0.417461	1.301402	0.505085
H	-1.356513	1.264162	0.880811
H	0.23339	1.580764	1.227759
F	2.644528	0.0	0.0
