17
Coordinates from ORCA-job run
  C   -0.43204474821106      0.29712350411608      0.56358326918867
  C   0.88984662672604     -0.28476826644759      0.01811342098595
  Br  -0.57161252478882     -0.35211021606133      2.47208432786260
  H   1.68114494297032      0.02684663000493      0.71909874096428
  N   -0.37377501588423      1.72140041127818      0.51493920949637
  H   -1.25716328748279      2.13277018501051      0.79046355263087
  H   0.34603372216850      2.07643322048476      1.13474106244900
  C   -1.64635093373666     -0.22497908685467     -0.17206776389601
  H   -1.67815792491274     -1.31107898296923     -0.10558753190795
  H   -1.57964915529780      0.07707805811802     -1.21922753713229
  H   -2.56232645469453      0.17765466489319      0.26642835254148
  N   1.06132694964996      0.24315988360497     -1.33254967348440
  H   0.88650614515966      1.24129012747187     -1.33272344947014
  H   2.01093198530706      0.07257483459116     -1.64220041636107
  N   0.84910071911588     -1.73112149276181     -0.01090783993348
  H   0.65515723626486     -2.02638882768113     -0.95956050506367
  H   1.72103171764635     -2.13688464679793      0.29537278112979
