17
Coordinates from ORCA-job run
  C   -0.58267272789991      0.10874108164519      0.41475823170660
  C   0.60784574007124     -0.59321427654869     -0.25419310703210
  Br  -0.98713932072360     -1.05758818675119      2.10226237156770
  H   0.32196595475227     -1.63793856768259     -0.43096661433316
  N   -0.21722819013293      1.41328853995008      0.75249440655437
  H   -0.94486617012132      1.93214111784934      1.22351279712542
  H   0.65903205080171      1.43294880120917      1.25950669658614
  C   -1.85694751759317      0.04913353537460     -0.39605519777716
  H   -2.10465245471235     -0.98281241224641     -0.64571433694199
  H   -2.68918963061858      0.47431510592342      0.16896362969803
  H   -1.70548323136365      0.61433177126963     -1.31570087434837
  N   1.77986629751189     -0.45391717121503      0.61626720975781
  H   1.67284549969106     -1.04585903400945      1.43319353890865
  H   2.60251949315771     -0.76259330698628      0.11221207679388
  N   0.80823292697962      0.02924267270797     -1.54523877178164
  H   1.48378037558262     -0.49291353881755     -2.08977221610896
  H   1.15309090461738      0.97169386832777     -1.40352984037522
