17
Coordinates from ORCA-job run
  C   -0.48165727952046      0.29418696323380      0.51764062414853
  C   0.90542053153006     -0.13346788040967     -0.00535164112273
  Br  -0.65805065304036     -0.69614421032211      2.35751552814224
  H   1.63631669899715      0.21318883211031      0.74286444337412
  N   -0.54364361789772      1.67573803625379      0.70500816303047
  H   0.25988327741336      2.05495939563305      1.18690213011444
  H   -1.40037557797226      1.97372969797291      1.15038483054159
  C   -1.64157883848381     -0.20725973786546     -0.31263115534153
  H   -2.59049539281100      0.07051327891060      0.15077767935100
  H   -1.58383153623071      0.27200944190044     -1.29399680084714
  H   -1.60178916176304     -1.28730478363830     -0.42986489745060
  N   1.19173279200498      0.57891741665332     -1.23608613187289
  H   2.18952546625173      0.57678264516492     -1.40844137839119
  H   0.74390192302851      0.08897903193642     -2.00287830246045
  N   0.93794968825144     -1.57603520251479     -0.22006441920180
  H   1.86007613635519     -1.83030706759372     -0.55458003415178
  H   0.77561554388694     -2.06848585742551      0.65080136213770
