17
Coordinates from ORCA-job run
  C   -0.54269743475617     -0.00776965591226      0.57006613011371
  C   0.62818664263713     -0.67954379376081     -0.17039978444393
  Br  -1.01732428972519     -1.10246942869149      2.13133634361649
  H   0.31459903113721     -1.69328832491866     -0.45416571728995
  N   -0.07001107687721      1.27366617868935      1.05309470619444
  H   -0.80069223346806      1.74800951718655      1.57036441804695
  H   0.17123695515711      1.82161672245606      0.23180254366628
  C   -1.78658838675186      0.06588332481835     -0.30749786463265
  H   -2.62180642905254      0.48219055960254      0.25882036341021
  H   -1.58661983856273      0.72121938652061     -1.15919503785557
  H   -2.08113008456899     -0.92321861206947     -0.66849977997005
  N   1.75791452275562     -0.78372346024133      0.70759437922152
  H   1.95186458912443      0.12004283712433      1.12057428957858
  H   2.57258776768876     -1.14585713901330      0.23027226142272
  N   0.88833515377166      0.16870557486356     -1.35834513708565
  H   1.86818919507993      0.09373824833710     -1.60145297138982
  H   0.35295591641089     -0.16020193499112     -2.15436914260330
