17
Coordinates from ORCA-job run
  C   -0.45936956997157      0.29911213304580      0.54047544076896
  C   0.88470498406130     -0.29385190121420      0.06575915493125
  Br  -0.71116069600618     -0.35902726825045      2.43478378775940
  H   1.63934236925912      0.00624147074077      0.81083293423736
  N   -0.38414195163422      1.72278484414853      0.50395905964769
  H   0.30297050075228      2.06745265024740      1.16525414514537
  H   -1.27761875994356      2.14178972085721      0.73105482955589
  C   -1.63620632273078     -0.20634384073890     -0.26437060656866
  H   -1.68225262513106     -1.29242604810197     -0.20644179249893
  H   -1.50878456574495      0.10071882117401     -1.30440968488407
  H   -2.57104532148986      0.20313615314406      0.12524152448188
  N   1.13571071423988      0.23907359064524     -1.27029817236614
  H   2.09823084359711      0.05755358163596     -1.52976732240142
  H   0.97416274596657      1.23941681057756     -1.27380009974978
  N   0.83104675844815     -1.73932737150279      0.02648103293535
  H   0.68695090927927     -2.02901100000824     -0.93264482507113
  H   1.67945998704851     -2.15629234639998      0.37989059407699
