17
Coordinates from ORCA-job run
  C   -0.59265457701675      0.09862088722184      0.45808019226689
  C   0.66184531870872     -0.60752128330189     -0.11079188028249
  Br  -1.27599399721409     -1.19238656425131      1.92561658312669
  H   0.47182757897520     -1.68629359447334     -0.08131075710074
  N   -0.25059101194107      1.34547428799212      0.99633740660063
  H   0.47144642562120      1.23930316602561      1.69887560051793
  H   -1.04984039718005      1.83293764628884      1.37872701762906
  C   -1.73991231694785      0.21014476765945     -0.52505946731683
  H   -1.97886790901765     -0.76047607618701     -0.96356551237836
  H   -2.63776789368933      0.57553803829966     -0.02381584689477
  H   -1.46000024078970      0.92046767042982     -1.30617075647770
  N   1.79447706345731     -0.32356058317250      0.74639601664279
  H   2.27397105135726      0.49323157943043      0.38478319353395
  H   2.43767142017491     -1.10117668540135      0.78335684141913
  N   0.92060495768144     -0.10892241667615     -1.46504994861146
  H   1.77399568140791     -0.54568442307798     -1.79739192371463
  H   0.18078884641254     -0.39169641680627     -2.09801675896011
