17
Coordinates from ORCA-job run
  C   -0.49378048768923      0.00551220958405      0.46671771169090
  C   0.74760925959342     -0.10571651046986     -0.43145073643394
  Br  -0.79227063322867     -1.71228776510045      1.38127957729002
  H   0.81614286169713      0.88983814841144     -0.90949882737857
  N   -0.20011560371062      0.97736775360984      1.51436905416465
  H   -0.94085786999744      0.96945417307812      2.20673102489327
  H   -0.18777767333098      1.90210567487847      1.09055234603375
  C   -1.74413191108246      0.31264845870980     -0.34106294315284
  H   -1.60133106201921      1.26721666085105     -0.86106369484757
  H   -1.93065919822712     -0.45833769301746     -1.08538637882505
  H   -2.60636732211550      0.40313790317808      0.32303580227445
  N   0.51810781899578     -1.05204651787418     -1.50480391117613
  H   0.67150758251226     -1.97976623612336     -1.12156121073760
  H   1.20910708812687     -0.91045758277354     -2.23210451957019
  N   1.91305620874116     -0.43041275202561      0.37319797816054
  H   1.86281426211107      0.08093548252416      1.24788990366959
  H   2.75694667962350     -0.15919140744054     -0.11684117605527
