17
Coordinates from ORCA-job run
  C   -0.56328966469194      0.21879130947717      0.36431345969737
  C   0.75487628350624      0.00085720799551     -0.38674885570186
  Br  -0.89688598865533     -1.59301512116436      1.39217876847557
  H   0.90587091848092      0.93936428297065     -0.93407177058151
  N   -0.42037255169412      1.28462830193931      1.24862073321320
  H   0.43749047064390      1.21307912098199      1.78112569577984
  H   -1.22971271768081      1.44064156378792      1.83245954691619
  C   -1.77009603845565      0.36807674290646     -0.53282379462600
  H   -2.67386779117411      0.50428420531403      0.06498880627487
  H   -1.88833701103300     -0.49808433650466     -1.17747177099583
  H   -1.62035553272325      1.25815129497226     -1.15160137611558
  N   0.61626151213453     -1.04979637047762     -1.37625824965531
  H   1.44559774794106     -1.08566762297596     -1.95615690044696
  H   0.50881994570794     -1.94592398871187     -0.91423786616079
  N   1.83797410859614     -0.08640187722461      0.58963811787508
  H   1.82256089181305     -1.00222911829271      1.02553011749257
  H   2.73146541728440      0.03324440500647      0.12851533855917
