17
Coordinates from ORCA-job run
  C   -0.47401466201500      0.28179006273530      0.57574120196654
  C   0.93564106206939     -0.18851660633715      0.14326960363226
  Br  -0.68296714780493     -0.36349046909059      2.50611874963918
  H   1.60330765459618     -0.05664341873767      0.99879902872005
  N   -0.58161342480271      1.68589696345114      0.47580947326133
  H   -1.42528876411424      2.03286814754192      0.91270293203131
  H   0.22948440839250      2.16741967519413      0.84023401201456
  C   -1.60742566705218     -0.38529516977151     -0.18222282361559
  H   -1.59503179744425     -1.46227981048074     -0.03207866789743
  H   -2.56687817999980      0.00604051215289      0.16189533021276
  H   -1.51503658423789     -0.15347284531841     -1.24893935058540
  N   1.42482190915078      0.69987931841028     -0.91093979767299
  H   2.23678062026087      0.28140752233236     -1.34940255542084
  H   0.71668854646657      0.85979542627690     -1.61685004637391
  N   0.90305800603972     -1.61647027259907     -0.13545284228312
  H   1.83425030408010     -2.00643196251368     -0.06581963342664
  H   0.56322371641490     -1.78149707324609     -1.07586461420207
