17
Coordinates from ORCA-job run
  C   -0.42798748131452      0.20548872368154      0.67111485695137
  C   0.91921935701301     -0.16568324247841      0.02183215900654
  Br  -0.54718911713110     -0.77896562597018      2.40102239377649
  H   1.68843408377129      0.15337071055709      0.73860796524571
  N   -0.36696361283731      1.60416857308701      0.99142557496419
  H   -0.06522384605842      2.08462272133804      0.14899878254270
  H   -1.27721971926278      1.94668409662508      1.27464948936492
  C   -1.62448782860338     -0.22066484043613     -0.16451271237342
  H   -1.59277390824923      0.32606189325233     -1.11199323418334
  H   -2.55174598518123      0.04000363395922      0.35053067185660
  H   -1.61814114178075     -1.29029430938762     -0.37081644030749
  N   1.07154121900818      0.65200299185210     -1.17612518028421
  H   2.04904403478627      0.84454747372020     -1.35189469801732
  H   0.70400217265983      0.13079179949820     -1.96472962153418
  N   0.96232976404667     -1.58090188141960     -0.31788289802984
  H   1.89334998398785     -1.80971853357227     -0.64735136082150
  H   0.78481202514560     -2.14151418430662      0.50812425184281
