17
Coordinates from ORCA-job run
  C   -0.58889517160203      0.11110005898699      0.40599763539665
  C   0.61137711831387     -0.59346895483433     -0.24281048290110
  Br  -1.01961717087651     -1.05034918749093      2.09081150146989
  H   0.32751654128113     -1.63869005261357     -0.42035943459654
  N   -0.22834276211676      1.41656947273118      0.74449386673753
  H   -0.96149305991742      1.93697026845003      1.20508372440234
  H   0.64268386055003      1.43914816585025      1.26030119228365
  C   -1.85080239661776      0.04920735092077     -0.42417536380054
  H   -2.09583952794414     -0.98327352256133     -0.67430046766526
  H   -1.68354275412006      0.61134256966746     -1.34293743005252
  H   -2.69133884606315      0.47707490977865      0.12637691116123
  N   1.77042929717185     -0.45116785178615      0.64375571284407
  H   2.59844878305119     -0.77119698826340      0.15575309441892
  H   1.64674891282787     -1.03325825145629      1.46548197002013
  N   0.83158570795037      0.02360853880774     -1.53341277939417
  H   1.50817442036281     -0.50612786482204     -2.06916422861183
  H   1.18290704774869      0.96351133863489     -1.39089542171241
