17
Coordinates from ORCA-job run
  C   -0.55282776593567      0.19195523653052      0.41738896929813
  C   0.77654243835895     -0.05930720007988     -0.31101040561253
  Br  -0.89263941604667     -1.41651252005621      1.63746679777451
  H   0.94464726964535      0.87899533297790     -0.86351425967816
  N   -0.42371763404515      1.38833694449243      1.15277665281657
  H   0.41774187289348      1.35548482200423      1.71691278708453
  H   -1.23336779786420      1.56984298584018      1.73101313584021
  C   -1.74353477824912      0.24396626779831     -0.51816143370997
  H   -1.56918184304650      1.02445960073694     -1.26617232719398
  H   -2.65004583254133      0.49625323464186      0.03549388226127
  H   -1.90570359837753     -0.71654070741855     -1.00521766003311
  N   0.69651379940511     -1.22801829364698     -1.17969893230899
  H   1.62504644119374     -1.43232991501977     -1.53005175095636
  H   0.10960634088803     -1.03605172153337     -1.98384565726134
  N   1.84110472732980     -0.15934499725044      0.66253769943169
  H   1.81796359477292     -1.08356701984619      1.07991008677333
  H   2.74185218161879     -0.01762205017097      0.22317241547416
