17
Coordinates from ORCA-job run
  C   -0.51297556231476      0.22844403667191      0.66418346356657
  C   0.85481355855419     -0.25157457545286      0.12341708871128
  Br  -0.65601341620193     -0.45955995900138      2.50811323227127
  H   1.60478608901062     -0.03755640913243      0.89858192521263
  N   -0.63640787959334      1.66434119501015      0.75686140853498
  H   0.14706906013020      2.07833757835807      1.24879304121722
  H   -0.71349190348078      2.06028061309154     -0.17279316692620
  C   -1.67126112711326     -0.31631715097565     -0.14774935279174
  H   -1.54834158418576     -0.00802404712979     -1.19038118718918
  H   -1.70545738906477     -1.40322091553812     -0.09273780110705
  H   -2.60468499185108      0.09012836490226      0.24191201553056
  N   1.10774910619293      0.47935674705486     -1.12880667847637
  H   1.36982083276822      1.43804527544691     -0.93058292500658
  H   1.89701858491804      0.04682870862452     -1.59513324447484
  N   0.85151047402405     -1.67813413733124     -0.09589174510435
  H   0.42202109327030     -1.88320517778232     -0.99066728345788
  H   1.79284505493711     -2.04817014681641     -0.09611879051030
