17
Coordinates from ORCA-job run
  C   -0.45346401704419      0.08859456259619      0.43016123018088
  C   0.79107501430556     -0.06716226777003     -0.46847559961386
  Br  -0.71312916607212     -1.58316588182063      1.45469764699296
  H   0.88859233412885      0.91699743192375     -0.95322039563506
  N   -0.15071587630918      1.11723725313710      1.41433648476375
  H   -0.11715812589576      2.01163970954515      0.93075497742131
  H   -0.89738272797535      1.17094100701028      2.09868443140410
  C   -1.72130548654664      0.33527142949140     -0.37115493669038
  H   -1.57584630773468      1.23853361455795     -0.97478261062022
  H   -1.93881205355885     -0.48887868848322     -1.04704169485924
  H   -2.56881330455989      0.49678160387229      0.29912776758989
  N   0.53583591370760     -1.03209210702478     -1.51482576126742
  H   0.39838205878153     -1.94655878261941     -1.09553868465919
  H   1.36720436011149     -1.08831384832529     -2.09205576740357
  N   2.04138259859791     -0.30586016989375      0.23328180071622
  H   1.99735503874954     -1.22558387927928      0.66120302690062
  H   2.11679974731419      0.36261901308227      0.99384808477921
