17
Coordinates from ORCA-job run
  C   -0.36887646618768      0.28410192274110      0.53387221454668
  C   0.94880214611994     -0.29012853766490     -0.04507495778302
  Br  -0.55254057549523     -0.54249243021874      2.39804784723443
  H   1.74830247185886      0.02785230900520      0.64635398928525
  N   -0.25150592070442      1.69370380656058      0.61734370934233
  H   0.50811733562228      1.96822459627071      1.22952309355331
  H   -1.10596730087328      2.12897410410041      0.94190387951656
  C   -1.60862633289229     -0.11569418006339     -0.23480647396104
  H   -1.72194377466572     -1.19882300868239     -0.25443745185527
  H   -1.51778585576116      0.25696690197202     -1.25582020027628
  H   -2.50118444400275      0.30434169385374      0.23423783879593
  N   1.07527973539573      0.24749723967726     -1.38942230998308
  H   1.05994374630993      1.25862965410548     -1.36034297515136
  H   1.95564334928877     -0.07106668750885     -1.77558721993645
  N   1.05424335731386     -1.72229280557975     -0.17384216780310
  H   0.91826935586531     -2.17843173112235      0.71869078103848
  H   0.35882917280784     -2.05136284744612     -0.83263959656337
