17
Coordinates from ORCA-job run
  C   -0.55213472476209      0.06715436515257      0.41708564854406
  C   0.73536275639496     -0.05980794870621     -0.43426962357490
  Br  -0.81088242651483     -1.67726633629727      1.35399207659054
  H   0.82819063619227      0.92537821192905     -0.91358265156117
  N   -0.48234989764167      1.06394669804595      1.45182749737894
  H   0.38835973714529      1.00626703371067      1.96420734565078
  H   -0.58112811906887      1.98869225711183      1.04795446467159
  C   -1.77665907563105      0.32315990186515     -0.43905458120358
  H   -1.62207802772704      1.24989321235317     -1.00462520140642
  H   -1.93102905751510     -0.48019864934273     -1.15398591437914
  H   -2.65326004098219      0.43949366313741      0.19929143854050
  N   0.54682930425559     -1.03715973302331     -1.48509387743952
  H   0.39228201880099     -1.94792775257829     -1.06491681542448
  H   1.41306996413412     -1.09294384752389     -2.00870839038888
  N   1.97435515667795     -0.26692485667162      0.30293526425660
  H   1.88260936824382     -1.05369088987142      0.93634087187327
  H   2.24646242799785      0.55293467070896      0.83060244787180
