17
Coordinates from ORCA-job run
  C   -0.54079297513265      0.06894833101169      0.46888302958812
  C   0.76315031532859     -0.11653975160432     -0.35294849239318
  Br  -0.79525930830535     -1.51282594726978      1.61581062675085
  H   0.88702458996938      0.86513911609374     -0.85010427685770
  N   -0.50428026722562      1.21032891384563      1.35822891075788
  H   0.30146369749971      1.16806953285407      1.97053813963963
  H   -0.46117855933082      2.06536638760660      0.81248845682420
  C   -1.75386455259388      0.19805505750315     -0.43460104683529
  H   -2.63202001401281      0.43132134069767      0.16772361613333
  H   -1.59272822820032      1.01562181829663     -1.14897504764105
  H   -1.93615433773860     -0.72435220051171     -0.98442159568728
  N   0.64370611474201     -1.22336281841234     -1.28021667790262
  H   1.56329496792975     -1.39326460304455     -1.66910966863398
  H   0.01348575718563     -1.00151987050793     -2.03977036852947
  N   1.97672332521713     -0.34494151042107      0.39981232037802
  H   1.85274214880780     -1.15871481526764      0.99233416753636
  H   2.21368732586007      0.45167101913021      0.97532790687219
