17
Coordinates from ORCA-job run
  C   -0.57751447059656      0.02723130485960      0.48834282868823
  C   0.57931143102609     -0.66989336005069     -0.27708108435844
  Br  -0.91572110412097     -1.09606192732835      2.10635081721077
  H   0.22260862081193     -1.66895496952775     -0.54656380330538
  N   -0.29525632658555      1.35424137627934      0.94958081242780
  H   -0.44318095421038      2.04058225179457      0.22175524724298
  H   0.62221823369271      1.44737737435340      1.36409419659120
  C   -1.86108865172578      0.03398064692207     -0.31961432264889
  H   -1.71073214943162      0.62474252551785     -1.22498446833293
  H   -2.13130668818452     -0.97995862143971     -0.61671832863415
  H   -2.67107931008628      0.45772387844116      0.27517896833327
  N   1.83266158601244     -0.85205019712106      0.44026525224414
  H   2.22478059969452      0.04359852983686      0.71023549328111
  H   1.69065709264752     -1.40188028296682      1.27934751207678
  N   0.77820854796936      0.07952968686862     -1.50773647553090
  H   1.46389162983358     -0.41983266084309     -2.06331795475698
  H   1.19154191325350      0.97862444440405     -1.28013469052862
