17
Coordinates from ORCA-job run
  C   -0.36863835586953      0.22444142949634      0.64686043083303
  C   0.99816689730432     -0.28434550497495      0.13612011960896
  Br  -0.57614190115202     -0.36847669487471      2.50736245105531
  H   1.71841849205280     -0.04339761209747      0.92192653177754
  N   -0.31085190206272      1.68560342095356      0.68699169955272
  H   -0.57881791692750      2.04212064688687     -0.22550185418096
  H   -0.98981852263015      2.03423970070338      1.35330694895327
  C   -1.54882111737500     -0.32464925155714     -0.14288469427502
  H   -2.48082337683225      0.10551806335301      0.22814773329015
  H   -1.44755497297045     -0.04512659321087     -1.19894077520496
  H   -1.61384119608180     -1.40986977980546     -0.06384650360457
  N   1.46086149563475      0.40842668570937     -1.06473023907556
  H   1.57685842943369      1.39618623779871     -0.87180385169272
  H   0.80657067436460      0.29579179880525     -1.83162387520840
  N   0.96924835038681     -1.72147191381577     -0.03146967076497
  H   0.46358054602577     -1.95647151726955     -0.87938733976494
  H   1.92160437669874     -2.03851911610052     -0.17052711129887
