17
Coordinates from ORCA-job run
  C   -0.55609951134883     -0.15427209374203      0.48638536138127
  C   0.79751941452547     -0.62686810534042     -0.09195566507807
  Br  -1.63184139763484     -1.76824140468791      0.83331249523310
  H   1.15446999875961     -1.42377567323169      0.57307774179411
  N   -0.28186951125626      0.45421873948951      1.78299110579059
  H   -1.13541393346443      0.51016499028521      2.32720207704980
  H   0.02778915868890      1.40618451109379      1.60635974392216
  C   -1.34152124584744      0.73674868614326     -0.46222943661177
  H   -2.24676515499146      1.09898641105879      0.02884993312191
  H   -0.70889765269637      1.58898514406373     -0.72631961545171
  H   -1.63860713992622      0.21496399188259     -1.37278527353900
  N   1.67489781396426      0.54175772971918     -0.10109463672633
  H   2.45570858013728      0.31960104210203     -0.70866777051561
  H   2.04402864593787      0.67941064262068      0.83214699654173
  N   0.77820445232132     -1.15078870758172     -1.43891235267245
  H   0.41572237513146     -0.45161819856797     -2.07656350908862
  H   0.19267510769967     -1.97445770530707     -1.49179719515110
