17
Coordinates from ORCA-job run
  C   -0.57361626916605     -0.15782373766089      0.47574990860568
  C   0.79507976290703     -0.66407937935984     -0.08419353130324
  Br  -1.71330429381080     -1.77848159694314      0.69587103437379
  H   1.17089260470555     -1.37937666314964      0.65947844625794
  N   -0.48753061799465      0.43788265319615      1.78378993704544
  H   -0.12864200444017      1.38267860852560      1.72381864253948
  H   0.09232371300842     -0.11304145134977      2.40681276676667
  C   -1.30045450554983      0.78878995812818     -0.45914865862589
  H   -1.47530155977948      0.32968466217905     -1.43132273491400
  H   -2.25961867139432      1.06837636994522     -0.02359171726259
  H   -0.71211920835531      1.70195662131341     -0.60106647237197
  N   1.77881228135279      0.40011600782747     -0.18211562069849
  H   1.98374682040143      0.79119084374442      0.72651842701216
  H   1.46132854916584      1.14431798936962     -0.79199680338856
  N   0.74348808837122     -1.33587513309717     -1.36658056784561
  H   -0.05594500788533     -1.95403937807425     -1.41221851793379
  H   0.68086031846364     -0.66227637459444     -2.11980453825701
