17
Coordinates from ORCA-job run
  C   -0.49928847043197      0.04681813155781      0.40127226563742
  C   0.69052198380961     -0.72216384101435     -0.22662641011747
  Br  -1.05776252129323     -1.03873886257842      2.05571169535538
  H   0.32789392493885     -1.73056543065946     -0.45447276575297
  N   -0.09629726450446      1.35483355647000      0.74299380109498
  H   -0.84899771568738      1.90507497606698      1.13532945022701
  H   0.68822793499139      1.34761098424701      1.38203988162748
  C   -1.72923465124144      0.06329935985456     -0.48399100007098
  H   -2.57735811192948      0.51133689240260      0.03760982841546
  H   -1.52229011503629      0.65068733579260     -1.38078732245021
  H   -2.00795813738720     -0.95198243237870     -0.76989187963607
  N   1.85630141491378     -0.82545134637642      0.63041605673585
  H   2.50057913820544     -0.06945099765746      0.45068260576198
  H   1.62771274211320     -0.90907271750167      1.61096342004410
  N   1.10488894617313     -0.08268215123034     -1.46425644945056
  H   0.61077897338601     -0.46170951420058     -2.25888002423305
  H   0.93228192898000      0.91415605720584     -1.40911315318832
