17

C	-0.368961	0.07355	-1.493292
C	0.0	0.0	0.0
Br	0.121333	-1.789003	-2.207037
H	1.090356	0.0	0.0
N	-1.744145	0.349222	-1.681462
H	-1.986847	0.362882	-2.665264
H	-2.325443	-0.330824	-1.202111
C	0.548326	1.013205	-2.253327
H	0.257547	2.041136	-2.034977
H	0.475679	0.829175	-3.327119
H	1.562631	0.837415	-1.888866
C	-0.612093	-1.120182	0.685756
N	-1.104338	-2.03016	1.245794
N	-0.452454	1.266735	0.661143
O	-1.322127	1.206727	1.532768
O	0.091087	2.30505	0.294442
F	2.509581	0.0	0.0
