17

C	-0.074613	0.010899	-1.546218
C	0.0	0.0	0.0
Br	-1.91812	0.427071	-2.162874
H	1.09523	0.0	0.0
N	0.839957	0.962113	-2.135984
H	0.566377	1.887802	-1.830189
H	1.723249	0.764371	-1.638055
C	0.317976	-1.373247	-2.033559
H	-0.368155	-2.149741	-1.694398
H	1.321348	-1.560456	-1.634213
H	0.351263	-1.352734	-3.124258
C	-0.585392	-1.159953	0.630625
N	-1.006586	-2.143998	1.116429
N	-0.471077	1.231701	0.670463
O	-1.017843	1.11949	1.766235
O	-0.248122	2.309393	0.123301
F	2.531938	0.0	0.0
