17

C	-0.104903	-0.100564	-1.541009
C	0.0	0.0	0.0
Cl	-1.727258	-0.815958	-2.080272
H	1.093462	0.0	0.0
C	-0.126515	1.25786	-2.120225
N	-0.042065	2.311001	-2.638617
N	0.981387	-0.872156	-2.024342
H	1.8041	-0.689925	-1.403865
H	1.182824	-0.664312	-2.993571
N	-0.485471	-1.263888	0.604796
O	0.116871	-2.298926	0.33423
O	-1.468395	-1.207533	1.352555
C	-0.655353	1.206698	0.617061
H	-0.578143	1.150461	1.702796
H	-0.12836	2.102133	0.285554
H	-1.713471	1.285188	0.354836
F	2.62529	0.0	0.0
