17

C	-0.111529	-0.013697	-1.545264
C	0.0	0.0	0.0
Cl	-1.722067	-0.644192	-2.112234
H	1.09415	0.0	0.0
C	-0.05453	1.376723	-2.027307
N	-0.009697	2.487078	-2.407964
N	0.957089	-0.744293	-2.193868
H	0.805603	-1.718392	-1.948928
H	1.794548	-0.47317	-1.638352
N	-0.436878	-1.301212	0.54925
O	-1.112457	-1.306335	1.580976
O	-0.078526	-2.330689	-0.027061
C	-0.642164	1.154116	0.723086
H	-1.724448	1.193495	0.566711
H	-0.452892	1.065939	1.791955
H	-0.191954	2.084202	0.37604
F	2.587677	0.0	0.0
