17

C	-0.461178	-0.032985	-1.458478
C	0.0	0.0	0.0
Cl	0.059107	1.582583	-2.225822
H	1.090106	0.0	0.0
C	0.230461	-1.028795	-2.289017
N	0.663857	-1.767449	-3.091762
N	-1.864842	-0.24095	-1.576223
H	-2.158293	-0.226445	-2.54585
H	-2.364721	0.472507	-1.059218
N	-0.456218	-1.272497	0.611599
O	-1.123227	-1.233737	1.653628
O	-0.126461	-2.317065	0.050346
C	-0.483842	1.184764	0.804854
H	-0.023245	2.087064	0.406854
H	-0.134432	1.057073	1.828578
H	-1.57216	1.304114	0.841174
F	2.516842	0.0	0.0
