17

C	-0.424295	0.027365	-1.461168
C	0.0	0.0	0.0
Cl	-2.227026	-0.64987	-1.601164
H	1.093815	0.0	0.0
C	-0.623189	1.400637	-1.950086
N	-0.751901	2.495687	-2.354622
N	0.470565	-0.648892	-2.293614
H	0.962612	-1.377497	-1.795011
H	0.07261	-0.946367	-3.170403
N	-0.343487	-1.320123	0.575699
O	0.011251	-2.322563	-0.050164
O	-0.908783	-1.368591	1.670205
C	-0.536452	1.126562	0.845045
H	-0.167829	1.008441	1.863658
H	-1.629319	1.162585	0.870133
H	-0.144983	2.067494	0.457094
F	2.511468	0.0	0.0
