14
Coordinates from ORCA-job run
  C   0.81595268111981     -0.03349036087829     -0.40030620663621
  C   -0.74046905307231     -0.15278869179348     -0.43191869424412
  Cl  1.33319033952301     -0.66239662896246     -2.00542320608045
  H   -1.10447793481597      0.40743831000116     -1.29544421895275
  C   1.36900932228101     -0.89976784610463      0.64372880996347
  N   1.82329631752542     -1.57551851187469      1.49081355724181
  N   1.30907730780650      1.28905318031985     -0.22568091221636
  H   0.83292053777890      1.96636711182912     -0.80757829828875
  H   1.31856104659104      1.58063554100468      0.74287964782516
  N   -1.27450155791567      0.56343531731756      0.78398674946582
  O   -1.25872917583195     -0.04881429980569      1.84554768717470
  O   -1.61599963201015      1.72892249034260      0.60327676256647
  C   -1.21312666894537     -1.52645095598246     -0.45462047683085
  N   -1.59570353003426     -2.63662465541326     -0.49026120098793
