14
Coordinates from ORCA-job run
  C   0.71104991542617      0.23884417515094     -0.08310328745508
  C   -0.74212206116455     -0.18864700473897      0.23400529711507
  Cl  0.70514542525734      1.79933664527831     -0.93321406251223
  H   -0.70513292282076     -1.14350666451089      0.76681587467245
  C   1.36103021475364     -0.75480184687814     -0.95435666686081
  N   1.95758421301453     -1.55731678119839     -1.57357582461914
  N   1.36831914550884      0.41480753516596      1.19012420578679
  H   2.23851105483009      0.92017043594372      1.06727187855952
  H   1.57468026905939     -0.48846881091607      1.60569792317132
  N   -1.50670227090921     -0.47413234313721     -1.03984881329344
  O   -1.35889013121727     -1.60812185529634     -1.48533190373379
  O   -2.16873177276725      0.43536363425081     -1.52143572806160
  C   -1.42509567966940      0.81644504183378      1.03240477923605
  N   -2.00964539930155      1.59002783905248      1.69454632799490
