14
Coordinates from ORCA-job run
  C   0.80061418348099      0.13314946315297     -0.15648007909367
  C   -0.69704334959951     -0.17340258523055      0.17373149321107
  Cl  0.83294356929508      1.54432234604998     -1.25049776466964
  H   -0.73409941007980     -1.12736574300952      0.70843814936962
  C   1.39985503527370     -1.02364793912783     -0.83106738619851
  N   1.91510196649326     -1.96232220761043     -1.31434379593403
  N   1.58698661695099      0.43701842976103      1.00031016042180
  H   1.71180555190877     -0.36944293354920      1.60004773839575
  H   1.21464098888338      1.22574002377113      1.51624917105513
  N   -1.52170525684387     -0.38054919202886     -1.07760528815764
  O   -1.32318006335620     -1.44871020904685     -1.64597905488199
  O   -2.28126180978924      0.51589035995199     -1.41907329514673
  C   -1.25597637165320      0.89101280485949      0.99198303082614
  N   -1.64868165096434      1.73930738205665      1.70328692080269
