14

C	-0.569206	-0.056829	-1.409893
C	0.0	0.0	0.0
Br	0.219775	1.314448	-2.537348
H	1.091321	0.0	0.0
H	-0.322771	0.957366	0.421078
N	-0.261017	-1.404108	-2.066948
O	0.724299	-2.000228	-1.663887
O	-1.017885	-1.754391	-2.968029
C	-2.01928	0.110033	-1.40888
N	-3.175634	0.307831	-1.335895
N	-0.564597	-1.133624	0.727058
H	-1.000162	-0.82977	1.58593
H	0.186922	-1.771878	0.955935
Cl	3.433304	0.0	0.0
