14

C	-0.545504	-0.001229	-1.420902
C	0.0	0.0	0.0
Br	0.226048	1.449216	-2.452827
H	1.09257	0.0	0.0
H	-0.350713	-0.919828	0.47767
N	-0.225182	-1.304773	-2.163761
O	-0.776656	-1.454004	-3.250672
O	0.533088	-2.091224	-1.609499
C	-1.999147	0.136251	-1.43933
N	-3.171077	0.221409	-1.408656
N	-0.522167	1.193327	0.665961
H	-0.964187	0.934977	1.538264
H	0.259653	1.801478	0.877588
Cl	3.397361	0.0	0.0
