14

C	-0.515462	-0.004476	-1.427317
C	0.0	0.0	0.0
Br	-0.024605	-1.644037	-2.350874
H	1.093136	0.0	0.0
H	-0.347174	-0.916059	0.481652
N	-2.054333	0.023868	-1.410041
O	-2.621901	0.625775	-2.312694
O	-2.597993	-0.594218	-0.503919
C	-0.061427	1.141552	-2.201213
N	0.315918	2.064111	-2.823202
N	-0.517846	1.214811	0.619386
H	0.254663	1.74638	0.998393
H	-1.16749	0.998832	1.361979
Cl	3.375232	0.0	0.0
