14

C	-0.56274	0.002097	-1.413756
C	0.0	0.0	0.0
Br	0.237308	1.416013	-2.478593
H	1.091222	0.0	0.0
H	-0.322863	0.94096	0.456531
N	-0.255016	-1.318158	-2.127738
O	-0.976212	-1.598281	-3.080251
O	0.692495	-1.96364	-1.711427
C	-2.01275	0.168257	-1.417719
N	-3.170918	0.35712	-1.351649
N	-0.574843	-1.154629	0.685089
H	0.165496	-1.823522	0.854678
H	-0.965905	-0.881297	1.575097
Cl	3.42723	0.0	0.0
