14

C	-0.570143	-0.039284	-1.417712
C	0.0	0.0	0.0
Br	0.27406	1.280316	-2.559135
H	1.089641	0.0	0.0
H	-0.344533	-0.91422	0.499325
N	-0.348923	-1.40128	-2.08619
O	0.551481	-2.093086	-1.638126
O	-1.080948	-1.673717	-3.032177
C	-2.011236	0.19971	-1.407138
N	-3.168835	0.385288	-1.327088
N	-0.470494	1.222913	0.639423
H	0.316986	1.681767	1.076283
H	-1.164198	1.026282	1.34574
Cl	3.387871	0.0	0.0
