14

C	-0.573754	-0.007152	-1.409214
C	0.0	0.0	0.0
Br	0.20937	1.400901	-2.493273
H	1.090209	0.0	0.0
H	-0.323078	0.941532	0.455449
N	-0.271817	-1.33158	-2.116809
O	0.707729	-1.94803	-1.733872
O	-1.026443	-1.636931	-3.0372
C	-2.023646	0.157708	-1.398167
N	-3.18057	0.345392	-1.316914
N	-0.562209	-1.160265	0.688582
H	-1.006713	-0.884871	1.552029
H	0.193998	-1.79566	0.906471
Cl	3.41921	0.0	0.0
