14

C	-0.450292	0.042583	-1.459339
C	0.0	0.0	0.0
Br	0.145393	-1.536839	-2.424339
H	1.09294	0.0	0.0
H	-0.353205	-0.939992	0.426848
N	-1.989805	0.017057	-1.538045
O	-2.532934	0.712159	-2.39087
O	-2.559182	-0.714903	-0.738205
C	0.004221	1.240343	-2.150648
N	0.383036	2.221428	-2.674683
N	-0.472751	1.125978	0.771536
H	0.060965	1.959459	0.566458
H	-1.463948	1.299429	0.675702
Cl	3.387407	0.0	0.0
