17
Coordinates from ORCA-job run
  C   -0.55939479966783      0.32113979130987      0.21654951369820
  C   0.81820457463752     -0.21629778721128     -0.20313501683121
  Cl  -0.70397337743853      2.03949033045212     -0.29472536962465
  H   0.80947346424451     -1.27290297520993      0.12133845036939
  N   -0.61290847417510      0.31959375945854      1.67505391194408
  H   -1.43379042362480      0.82872354016659      1.98346939684375
  H   -0.71435796826880     -0.64180958223145      1.98842178198991
  C   -1.68581678453376     -0.45135947827413     -0.44893711781781
  H   -1.62095506823064     -1.50458838161411     -0.15558838875097
  H   -2.64984669909364     -0.05581089288092     -0.12157133117387
  H   -1.61125610898705     -0.39078140466696     -1.53240363331150
  N   1.86250133530964      0.56773848559844      0.43413853573376
  H   1.58027673850196      0.77969497636287      1.38506216166000
  H   2.72511536167955      0.03793061888676      0.45862385609103
  N   0.93063835286118     -0.23706588547100     -1.64811824268431
  H   1.70653928825923     -0.83016502941115     -1.91714294057703
  H   1.16055058852654      0.70746991473574     -1.94103556755876
