17
Coordinates from ORCA-job run
  C   -0.59912948176011      0.15875988404780      0.46385687311964
  C   0.90108792964588      0.03841741473722      0.12853459177034
  Cl  -0.79354090587840      1.91455589453489      1.13702678625674
  H   1.43760229805406      0.18347414030453      1.08033442466630
  N   -0.96805137850734     -0.78879440305644      1.43628689163876
  H   -1.91306921057939     -0.63912094144382      1.76385157784653
  H   -0.33191192746972     -0.80475280869507      2.22256104484145
  C   -1.50363684767314      0.07491478680214     -0.74543456553450
  H   -2.54214947407287      0.23928037256241     -0.45003911631466
  H   -1.41988378542784     -0.92959800320287     -1.16631700270627
  H   -1.22318634714757      0.81303276252055     -1.49317177345126
  N   1.26398939892256      1.02144915311838     -0.88821552179876
  H   1.09915243615865      1.96239735480139     -0.55069414217117
  H   2.25374596554107      0.93082293276931     -1.08471716435388
  N   1.19347865228594     -1.30614376665799     -0.32310593658222
  H   2.18251625833994     -1.49649331183755     -0.22120813742248
  H   0.96398641956829     -1.37320146130486     -1.30854882980456
