17
Coordinates from ORCA-job run
  C   -0.66579395472687      0.26178385944944      0.24413704912752
  C   0.72197387025831      0.34533228416575     -0.41490527628660
  Cl  -1.10659315795161      2.01694542069143      0.67091622685371
  H   0.65841013204692      1.10249820448416     -1.20256903267673
  N   -0.55550039105354     -0.55442674273306      1.39768160286293
  H   -1.44452259311998     -0.64946986773974      1.87230013235137
  H   0.12361656995898     -0.13693323226585      2.02556684828774
  C   -1.75108463534813     -0.22543948752155     -0.69224612420441
  H   -1.56168328737029     -1.26419675651260     -0.95857056170028
  H   -2.72858558697448     -0.13817247460664     -0.21229672663389
  H   -1.76369251573910      0.37597906835759     -1.60193879931637
  N   0.98468651572287     -0.93883996155849     -1.03242552257721
  H   1.91210937194142     -0.95433434356788     -1.43837154942987
  H   0.91482666921798     -1.66096356156693     -0.32346922789102
  N   1.70076749999030      0.75316909120265      0.60224718931095
  H   2.41016777035284      0.03971847388698      0.69942506553760
  H   2.14889772279437      1.62635002583474      0.36351870638456
