17
Coordinates from ORCA-job run
  C   -0.60431457381033      0.37731941826234      0.28300829065574
  C   0.73662242044296      0.36750131036709     -0.47107873101473
  Cl  -0.97365123604752      2.04557734778029      0.82870595126836
  H   0.60082066642961      0.91571187361071     -1.40942710677756
  N   -0.42903804966107     -0.44645473839800      1.47929981376435
  H   -0.59982885134994     -1.41264481217508      1.21928365477900
  H   -1.11883512082272     -0.18922379702880      2.17514615933763
  C   -1.75089991552655     -0.07145391813645     -0.60899916153359
  H   -1.54633350586428     -1.07949663195753     -0.97128972582115
  H   -2.68494136439478     -0.06256423208740     -0.04341972168346
  H   -1.86149971773176      0.59642786088287     -1.46618793887930
  N   0.99134245235230     -1.04069455302100     -0.81529624707124
  H   1.60686110893444     -1.09067419858816     -1.61797967836307
  H   1.47536114954289     -1.47218714293427     -0.03549014856704
  N   1.75202577800202      1.03633919013654      0.31172230337922
  H   1.74228860991699      0.64243795691704      1.24662578682679
  H   2.66302014958774      0.88407906636981     -0.10262350029995
