17
Coordinates from ORCA-job run
  C   -0.60682501638560      0.25131856197327      0.31506103993068
  C   0.78040182780277     -0.27088162210117     -0.09844892714476
  Cl  -0.57906379473049      2.12537016089128      0.10352794693297
  H   0.71851160579781     -1.35350318604940      0.09707686311450
  N   -0.84287007567976     -0.11038178171146      1.63265229421467
  H   -0.05939721992540     -0.12460464036406      2.25870469944759
  H   -1.76719525061635     -0.04644274708780      2.01255628803625
  C   -1.69665632523333     -0.22268595549108     -0.62710444350244
  H   -1.54997379453133      0.18277001331798     -1.62776493862369
  H   -2.67242454079621      0.11194616765315     -0.26845570419438
  H   -1.69345355259063     -1.31658672827392     -0.65703221717261
  N   1.76324614669149      0.27110245551828      0.81301545374848
  H   2.68460342307006     -0.09943399830845      0.61474999386988
  H   1.78986173017084      1.27900942031387      0.69526250737719
  N   1.05561760262734      0.02010363566175     -1.50243580548913
  H   2.05385310456637     -0.02461377258301     -1.66349892910823
  H   0.62076412976242     -0.67448598335922     -2.09886612143697
