13

C	-0.391347	-0.000284	-1.496799
C	0.0	0.0	0.0
Br	-2.359849	-3e-05	-1.711449
H	1.099084	0.0	0.0
C	0.110958	1.201666	-2.160497
N	0.480157	2.163745	-2.727094
C	0.110465	-1.202759	-2.159891
N	0.48472	-2.162704	-2.726623
C	-0.487332	-1.204206	0.661167
N	-0.870765	-2.178036	1.195438
C	-0.487198	1.204437	0.660823
N	-0.870649	2.179767	1.192327
Cl	3.061942	0.0	0.0
