13

C	-0.440568	0.019069	-1.491186
C	0.0	0.0	0.0
Br	0.320743	-1.540803	-2.395544
H	1.097039	0.0	0.0
C	-1.897594	-0.051479	-1.618662
N	-3.069966	-0.105236	-1.696008
C	0.047438	1.228736	-2.153677
N	0.405673	2.195218	-2.71986
C	-0.499885	-1.197482	0.667333
N	-0.906278	-2.158171	1.209522
C	-0.492694	1.204911	0.663411
N	-0.879585	2.183066	1.18801
Cl	3.089756	0.0	0.0
