13

C	-0.439725	-2.4e-05	-1.491128
C	0.0	0.0	0.0
Br	0.312915	1.575723	-2.375646
H	1.097355	0.0	0.0
C	0.052237	-1.198923	-2.17041
N	0.389706	-2.164429	-2.750671
C	-1.896978	0.064901	-1.618559
N	-3.068932	0.113419	-1.705392
C	-0.492669	-1.213651	0.648109
N	-0.892245	-2.18892	1.168612
C	-0.501829	1.187375	0.683862
N	-0.907574	2.139493	1.240463
Cl	3.087584	0.0	0.0
