16

C	0.0	0.0	0.0
C	-0.516247	-0.151335	-1.419755
Cl	1.785384	0.0	0.0
H	-0.194798	0.712496	-2.00845
H	-1.611471	-0.134176	-1.251399
N	-0.404672	1.367464	0.537575
O	-0.488836	1.492381	1.753167
O	-0.544815	2.279159	-0.270794
C	-0.500459	-1.07956	0.92227
H	-0.191176	-2.035336	0.499126
H	-1.59571	-0.95808	0.888532
H	-0.088893	-0.955036	1.923133
N	-0.066486	-1.433911	-1.969779
H	0.817209	-1.315738	-2.449094
H	-0.74895	-1.750905	-2.644255
F	-2.863761	0.0	0.0
