16

C	0.0	0.0	0.0
C	-0.572611	-0.05666	-1.405998
Cl	1.770534	0.0	0.0
H	-0.196473	0.790884	-1.982409
H	-1.659158	0.044499	-1.194404
N	-0.371995	1.352926	0.608583
O	-0.451801	2.310113	-0.15637
O	-0.482123	1.424056	1.827686
C	-0.523967	-1.10553	0.879008
H	-0.11315	-1.030111	1.885306
H	-1.618208	-0.968353	0.853631
H	-0.2335	-2.049697	0.418445
N	-0.259665	-1.350525	-2.018597
H	0.422837	-1.240397	-2.75517
H	-1.106301	-1.725502	-2.425442
F	-2.934289	0.0	0.0
