16

C	0.0	0.0	0.0
C	-0.56186	-0.04745	-1.411406
Cl	1.772182	0.0	0.0
H	-1.651032	0.04322	-1.223697
H	-0.341925	-1.05989	-1.767627
N	-0.399619	1.312775	0.679623
O	-0.364949	1.344726	1.90426
O	-0.668217	2.274586	-0.032282
C	-0.552361	-1.136696	0.826084
H	-0.192139	-1.07666	1.85212
H	-1.649122	-1.002414	0.749791
H	-0.226044	-2.079623	0.379742
N	0.043179	0.898133	-2.357883
H	-0.254025	0.617623	-3.28548
H	-0.370785	1.803506	-2.176451
F	-2.942039	0.0	0.0
