16

C	0.0	0.0	0.0
C	-0.540002	-0.011927	-1.432545
Cl	1.769533	0.0	0.0
H	-0.29932	-1.008916	-1.817474
H	-1.630697	0.051887	-1.264172
N	-0.395021	1.289997	0.726116
O	-0.199154	1.317613	1.937668
O	-0.819194	2.232672	0.070824
C	-0.547756	-1.159857	0.791341
H	-0.189079	-1.131494	1.81984
H	-0.225992	-2.089935	0.315746
H	-1.645977	-1.014018	0.713205
N	-0.061797	0.978595	-2.383019
H	0.948522	1.030544	-2.344348
H	-0.420137	1.875617	-2.089957
F	-2.905068	0.0	0.0
