16

C	0.0	0.0	0.0
C	-0.344717	-0.165044	-1.522245
Cl	1.783851	0.0	0.0
H	0.419661	-0.852836	-1.897999
H	-0.142186	0.807114	-1.978875
N	-0.41052	1.367872	0.536931
O	-0.524839	2.292608	-0.259253
O	-0.535217	1.468348	1.753111
C	-0.599641	-1.069765	0.862981
H	-0.250714	-0.99627	1.89224
H	-1.691019	-0.904822	0.788717
H	-0.326409	-2.045033	0.450731
N	-1.639811	-0.651188	-1.912355
H	-2.373543	-0.244323	-1.269631
H	-1.673466	-1.643878	-1.706129
F	-3.15831	0.0	0.0
