12

C	-0.258702	0.034767	-1.475414
C	0.0	0.0	0.0
Cl	-2.002243	0.040672	-1.938115
H	1.092409	0.0	0.0
H	0.199458	-0.837529	-1.931036
H	0.189078	0.941835	-1.87596
N	-0.422999	-1.271605	0.617603
O	-0.369252	-2.281743	-0.083259
O	-0.72775	-1.263755	1.810383
C	-0.532202	1.132347	0.722915
N	-0.921365	2.103266	1.259076
F	2.449487	0.0	0.0
