12

C	-0.530025	0.11243	-1.412532
C	0.0	0.0	0.0
Cl	0.383633	-0.87667	-2.584171
H	1.091195	0.0	0.0
H	-0.416685	1.148478	-1.730204
H	-1.574816	-0.191307	-1.483418
N	-0.439246	-1.244745	0.674176
O	-0.950768	-2.132963	-0.012368
O	-0.221529	-1.331681	1.881401
C	-0.448576	1.129203	0.7916
N	-0.806334	2.085307	1.375339
F	2.446652	0.0	0.0
