12

C	-0.191555	-0.022313	-1.488328
C	0.0	0.0	0.0
Cl	-1.90811	-0.070689	-2.037177
H	1.093029	0.0	0.0
H	0.308763	-0.900482	-1.885085
H	0.261008	0.878294	-1.898626
N	-0.445426	-1.25446	0.635058
O	-0.892399	-1.205039	1.781479
O	-0.279528	-2.29212	-0.005528
C	-0.569857	1.153225	0.654174
N	-1.006449	2.129722	1.141552
F	2.449317	0.0	0.0
