12

C	-0.275576	-0.106758	-1.467803
C	0.0	0.0	0.0
Cl	-2.024291	-0.134631	-1.907303
H	1.094516	0.0	0.0
H	0.171939	-1.022518	-1.842895
H	0.17058	0.755985	-1.959444
N	-0.407581	-1.207537	0.744458
O	-0.380396	-2.277789	0.136428
O	-0.663351	-1.090427	1.943108
C	-0.523205	1.195771	0.61819
N	-0.905883	2.214221	1.063027
F	2.447876	0.0	0.0
