12

C	-0.242532	-0.03943	-1.479066
C	0.0	0.0	0.0
Cl	-1.979342	-0.093988	-1.957526
H	1.093869	0.0	0.0
H	0.2402	-0.922413	-1.88671
H	0.191391	0.857181	-1.918089
N	-0.422275	-1.249767	0.664605
O	-0.306756	-2.293056	0.01933
O	-0.791707	-1.189916	1.837965
C	-0.556995	1.156718	0.662058
N	-0.98007	2.140518	1.147643
F	2.448977	0.0	0.0
