14

C	0.0	0.0	0.0
C	-0.346248	-0.017468	-1.502183
Br	1.960492	0.0	0.0
H	0.329064	-0.752549	-1.962011
H	-0.300244	0.940165	0.462878
H	-0.035971	0.960678	-1.905342
C	-0.562806	-1.173324	0.766499
H	-0.196294	-1.186452	1.796409
H	-0.305658	-2.116703	0.278589
H	-1.6551	-1.050498	0.770574
N	-1.721494	-0.368631	-1.803299
H	-2.062467	0.215375	-2.557188
H	-2.403011	-0.217541	-1.023247
H	-3.627959	0.0	0.0
