16

C	-0.461899	0.061147	-1.424403
C	0.0	0.0	0.0
Br	0.470568	-1.196626	-2.571196
H	1.092559	0.0	0.0
H	-0.312574	1.053946	-1.835557
N	-1.945957	-0.204308	-1.500206
O	-2.65482	0.801684	-1.415286
O	-2.357122	-1.360629	-1.549298
C	-0.439543	-1.207634	0.789826
H	0.151319	-1.253779	1.705115
H	-1.499462	-1.179837	1.053147
H	-0.238957	-2.106173	0.203529
N	-0.31765	1.253361	0.669003
O	-0.56098	1.214861	1.886135
O	-0.167331	2.309208	0.034228
H	2.443919	0.0	0.0
