16

C	-0.510999	-0.056937	-1.405891
C	0.0	0.0	0.0
Br	-2.464332	0.137102	-1.566985
H	1.093448	0.0	0.0
H	-0.290133	-1.0429	-1.809227
N	0.174327	0.875598	-2.393173
O	1.273347	0.453762	-2.74633
O	-0.360381	1.908223	-2.766561
C	-0.381496	-1.227191	0.797038
H	-1.455648	-1.294875	0.983397
H	0.147062	-1.198744	1.750115
H	-0.040761	-2.114118	0.255239
N	-0.368613	1.229436	0.672562
O	-0.230429	2.279884	0.029739
O	-0.672658	1.185648	1.874068
H	2.464843	0.0	0.0
