16

C	-0.574913	0.028747	-1.391295
C	0.0	0.0	0.0
Br	0.533812	0.957267	-2.709935
H	1.089689	0.0	0.0
H	-1.54107	0.5226	-1.430048
N	-0.81517	-1.376651	-1.870622
O	-1.964679	-1.790792	-1.701568
O	0.116919	-2.033187	-2.318531
C	-0.261436	-1.250388	0.818054
H	-1.322388	-1.4411	0.997745
H	0.259524	-1.123549	1.765713
H	0.191273	-2.104373	0.309357
N	-0.392583	1.196183	0.6967
O	-0.792332	2.177331	0.032198
O	-0.151578	1.251111	1.91909
H	2.386627	0.0	0.0
