16

C	-0.459132	0.046894	-1.425234
C	0.0	0.0	0.0
Br	0.453834	-1.244558	-2.552312
H	1.09254	0.0	0.0
H	-0.292363	1.030393	-1.852565
N	-1.945641	-0.197393	-1.507703
O	-2.372213	-1.346962	-1.49767
O	-2.642116	0.819879	-1.493443
C	-0.431928	-1.200958	0.804523
H	-0.231701	-2.10524	0.226587
H	0.168165	-1.236274	1.71505
H	-1.489887	-1.174834	1.077014
N	-0.322764	1.260157	0.655599
O	-0.556708	1.235922	1.873423
O	-0.183673	2.308842	0.007064
H	2.435831	0.0	0.0
