16

C	-0.465326	0.229403	-1.402927
C	0.0	0.0	0.0
Br	0.4989	-0.845705	-2.702677
H	1.104125	0.0	0.0
H	-0.341863	1.270175	-1.682947
N	-1.94258	-0.06034	-1.515875
O	-2.325549	-1.202705	-1.751179
O	-2.675251	0.901122	-1.272971
C	-0.424475	-1.298465	0.638501
H	-0.229072	-2.116556	-0.056988
H	0.178022	-1.454835	1.532922
H	-1.481133	-1.308679	0.916847
N	-0.303122	1.156933	0.81953
O	-0.188145	2.286392	0.312271
O	-0.482111	0.968578	2.033929
H	2.411449	0.0	0.0
