16

C	-0.528602	0.036117	-1.406251
C	0.0	0.0	0.0
Br	0.765612	0.606482	-2.778484
H	1.093417	0.0	0.0
H	-1.356972	0.728154	-1.510743
N	-1.069136	-1.311779	-1.79597
O	-2.277368	-1.458191	-1.598001
O	-0.310572	-2.17941	-2.210653
C	-0.275685	-1.237869	0.827269
H	0.288531	-1.141426	1.754477
H	-1.336396	-1.375294	1.054005
H	0.109443	-2.110893	0.296812
N	-0.380713	1.208736	0.670799
O	-0.55432	2.23905	-0.01645
O	-0.348727	1.217507	1.917528
H	2.340448	0.0	0.0
