16

C	-0.338573	0.189156	-1.453462
C	0.0	0.0	0.0
Br	0.00596	-1.399503	-2.514504
H	1.093244	0.0	0.0
H	0.268104	0.979503	-1.888964
N	-1.771019	0.579183	-1.729134
O	-2.640663	0.132794	-0.986947
O	-1.965068	1.300366	-2.703352
C	-0.444475	-1.232908	0.748888
H	-1.51806	-1.238354	0.942902
H	0.09911	-1.261864	1.693416
H	-0.170666	-2.120755	0.178709
N	-0.361582	1.219077	0.694872
O	-0.4574	2.263361	0.020401
O	-0.428579	1.19266	1.93094
H	2.49218	0.0	0.0
