16

C	-0.453265	0.000209	-1.460916
C	0.0	0.0	0.0
Br	-2.383503	-0.35278	-1.640494
H	1.094374	0.0	0.0
N	-0.244308	1.32487	-1.994671
H	-0.617751	1.409972	-2.931064
H	0.745103	1.55697	-1.991305
N	0.209449	-1.135467	-2.080535
H	1.172234	-0.880219	-2.286192
H	-0.250715	-1.423301	-2.934439
C	-0.498728	-1.116753	0.767963
N	-0.906958	-1.985381	1.451458
N	-0.403525	1.283566	0.675686
O	-1.554905	1.384489	1.091897
O	0.467849	2.14529	0.754882
Br	2.753026	0.0	0.0
