16

C	-0.57456	0.022141	-1.4348
C	0.0	0.0	0.0
Br	0.33092	1.366703	-2.527095
H	1.088905	0.0	0.0
N	-0.240399	-1.254243	-2.03194
H	-0.858846	-1.975584	-1.677536
H	-0.302256	-1.208275	-3.04019
N	-1.966998	0.417098	-1.364228
H	-2.464835	-0.207809	-0.735534
H	-2.38133	0.363162	-2.287664
C	-0.49611	-1.203007	0.662196
N	-0.896183	-2.209977	1.117466
N	-0.480245	1.201139	0.76556
O	0.081639	2.257927	0.521043
O	-1.408636	1.04603	1.559639
Br	3.376439	0.0	0.0
