15

C	-0.474422	0.014687	-1.47215
C	0.0	0.0	0.0
Br	0.381779	-1.506127	-2.379584
H	1.090471	0.0	0.0
C	-1.923706	-0.188861	-1.556208
N	-3.086765	-0.360453	-1.591511
C	-0.118988	1.2155	-2.228201
N	0.097464	2.143806	-2.916011
N	-0.505939	-1.141204	0.666614
H	0.1913	-1.462172	1.320073
H	-1.376344	-0.953779	1.143202
N	-0.492205	1.295879	0.610426
O	-1.415086	1.243785	1.430203
O	0.065026	2.3322	0.2582
F	2.506537	0.0	0.0
