15

C	-0.484442	-0.014328	-1.461663
C	0.0	0.0	0.0
Br	0.029885	1.637823	-2.395114
H	1.090572	0.0	0.0
C	0.166942	-1.132823	-2.143792
N	0.635139	-2.0551	-2.7014
C	-1.936682	-0.164335	-1.60157
N	-3.09708	-0.315942	-1.718131
N	-0.525475	-1.157864	0.641026
H	-1.463216	-1.010599	0.995082
H	0.106701	-1.447968	1.374978
N	-0.514298	1.272671	0.639889
O	-1.732669	1.328534	0.86548
O	0.287413	2.15701	0.924088
F	2.516283	0.0	0.0
