15

C	-0.442449	-0.027578	-1.48525
C	0.0	0.0	0.0
Br	0.170919	1.5743	-2.439192
H	1.090449	0.0	0.0
C	0.183289	-1.196728	-2.105745
N	0.651602	-2.131719	-2.642851
C	-1.893189	-0.133399	-1.680009
N	-3.049556	-0.279466	-1.840842
N	-0.509116	-1.093244	0.751619
H	0.132909	-1.870435	0.720079
H	-1.4625	-1.360898	0.546468
N	-0.543904	1.263616	0.603965
O	0.240892	2.135298	0.96041
O	-1.773901	1.330484	0.72145
F	2.51707	0.0	0.0
