15

C	-0.516862	0.071246	-1.456953
C	0.0	0.0	0.0
Br	0.123269	-1.537668	-2.393919
H	1.090157	0.0	0.0
C	-1.980547	0.025522	-1.487264
N	-3.156799	-0.000816	-1.456924
C	-0.036963	1.198844	-2.259811
N	0.285921	2.05797	-2.99557
N	-0.447772	-1.191246	0.640354
H	0.321416	-1.546839	1.19265
H	-1.240325	-1.0199	1.244287
N	-0.463968	1.230796	0.715629
O	-0.751633	1.126426	1.908534
O	-0.487943	2.292172	0.0925
F	2.482425	0.0	0.0
