15

C	-0.425626	0.044262	-1.501565
C	0.0	0.0	0.0
Br	0.379442	-1.522136	-2.386657
H	1.089952	0.0	0.0
C	-1.876705	-0.102967	-1.635741
N	-3.040737	-0.267443	-1.686707
C	0.016533	1.220612	-2.24739
N	0.305184	2.127842	-2.936332
N	-0.445172	-1.129703	0.71742
H	0.256598	-1.853994	0.669555
H	-1.374274	-1.46788	0.503756
N	-0.561369	1.25486	0.605437
O	-0.054863	2.316371	0.238201
O	-1.495866	1.160966	1.403578
F	2.50458	0.0	0.0
