15

C	-0.339445	0.011568	-1.483099
C	0.0	0.0	0.0
Br	-2.318941	-0.104336	-1.818744
H	1.0925	0.0	0.0
C	0.158439	1.15422	-2.246922
N	0.573645	1.994772	-2.956407
C	0.218757	-1.211742	-2.065704
N	0.60253	-2.212203	-2.548751
N	-0.399251	-1.168093	0.69604
H	0.387459	-1.794957	0.780039
H	-1.215791	-1.6317	0.321453
N	-0.500459	1.234824	0.666994
O	-0.498056	1.255758	1.89197
O	-0.828083	2.187116	-0.049853
F	2.462581	0.0	0.0
