15

C	-0.434962	0.015082	-1.457424
C	0.0	0.0	0.0
Br	-2.428529	0.188372	-1.626454
H	1.093217	0.0	0.0
C	0.15691	1.064347	-2.288148
N	0.614957	1.838133	-3.045507
C	-0.101646	-1.28043	-2.05122
N	0.183249	-2.300283	-2.560807
N	-0.435765	-1.182751	0.657686
H	-1.263665	-1.023315	1.21531
H	0.314953	-1.495567	1.259003
N	-0.437701	1.253908	0.666871
O	-0.369278	2.300113	0.022255
O	-0.805205	1.182611	1.842479
F	2.460447	0.0	0.0
