15

C	-0.338156	-0.015433	-1.483374
C	0.0	0.0	0.0
Br	-2.322191	-0.070279	-1.816906
H	1.098789	0.0	0.0
C	0.201267	1.086121	-2.277862
N	0.653015	1.892866	-3.003429
C	0.174536	-1.272596	-2.034302
N	0.569814	-2.27981	-2.493508
N	-0.408881	-1.148569	0.719568
H	0.365039	-1.791177	0.802421
H	-1.241665	-1.600473	0.369149
N	-0.489419	1.254647	0.633976
O	-0.765646	2.204011	-0.109313
O	-0.526925	1.295649	1.858553
F	2.459678	0.0	0.0
