15

C	-0.328806	0.016227	-1.487386
C	0.0	0.0	0.0
Br	-2.310584	0.02866	-1.824533
H	1.093507	0.0	0.0
C	0.246454	1.11224	-2.265556
N	0.714538	1.917179	-2.984264
C	0.144603	-1.248061	-2.053933
N	0.472141	-2.280365	-2.508659
N	-0.428727	-1.154936	0.69511
H	0.336777	-1.808369	0.772392
H	-1.260446	-1.591835	0.32416
N	-0.477713	1.252089	0.652273
O	-0.592491	1.257031	1.872717
O	-0.658854	2.235674	-0.072124
F	2.46249	0.0	0.0
