12

C	0.0	0.0	0.0
C	-0.44406	-0.114363	-1.463365
F	1.375728	0.0	0.0
H	-0.125789	-1.092432	-1.834568
H	-1.551904	-0.054243	-1.361738
C	-0.469245	1.233248	0.664744
N	-0.633177	2.209117	1.292046
C	-0.430807	-1.168486	0.787947
N	-0.723005	-2.051383	1.505661
C	0.159278	0.925489	-2.280104
N	0.636167	1.750965	-2.966917
F	-2.44832	0.0	0.0
