12

C	0.0	0.0	0.0
C	-0.43996	0.118409	-1.470061
F	1.375732	0.0	0.0
H	-1.543654	0.031386	-1.386544
H	-0.152545	1.112682	-1.825662
C	-0.469941	1.157282	0.776497
N	-0.545293	2.151131	1.401152
C	-0.453655	-1.256032	0.62107
N	-0.597696	-2.279784	1.179523
C	0.190004	-0.896633	-2.300027
N	0.673445	-1.709276	-2.997924
F	-2.444873	0.0	0.0
