12

C	0.0	0.0	0.0
C	-0.426052	-0.119606	-1.469876
F	1.375553	0.0	0.0
H	-1.535408	-0.080812	-1.388096
H	-0.068925	-1.086289	-1.83706
C	-0.454326	1.242046	0.642831
N	-0.672998	2.196426	1.293645
C	-0.444684	-1.174711	0.788975
N	-0.734588	-2.073207	1.48966
C	0.170587	0.940414	-2.27018
N	0.634485	1.788616	-2.938587
F	-2.443024	0.0	0.0
