12

C	0.0	0.0	0.0
C	-0.470085	0.116684	-1.45235
F	1.375733	0.0	0.0
H	-1.581879	0.046628	-1.295474
H	-0.17143	1.102177	-1.826804
C	-0.468581	1.156845	0.80566
N	-0.778927	2.053371	1.495973
C	-0.42537	-1.261568	0.635433
N	-0.634513	-2.233181	1.262015
C	0.122304	-0.916699	-2.286195
N	0.596139	-1.740738	-2.981037
F	-2.492804	0.0	0.0
