12

C	0.0	0.0	0.0
C	-0.437801	-0.120104	-1.470492
F	1.375722	0.0	0.0
H	-0.130695	-1.106301	-1.830793
H	-1.543166	-0.049069	-1.386638
C	-0.455658	1.259357	0.609921
N	-0.558208	2.319968	1.105772
C	-0.463492	-1.163616	0.771603
N	-0.55848	-2.156749	1.39328
C	0.174717	0.909435	-2.295592
N	0.645926	1.729887	-2.99207
F	-2.443287	0.0	0.0
