16

C	0.0	0.0	0.0
C	-0.509704	-0.33153	-1.379812
F	1.358149	0.0	0.0
H	0.008489	-1.234774	-1.705257
H	-1.575473	-0.551723	-1.29457
N	-0.525902	1.172719	0.534521
H	-1.544904	1.123023	0.423567
H	-0.31241	1.220875	1.524055
N	-0.25025	-1.231797	0.955142
O	-0.289535	-2.354751	0.465326
O	-0.285827	-0.98189	2.158064
C	-0.268797	0.821406	-2.348235
H	0.783485	1.117418	-2.35864
H	-0.552218	0.521308	-3.360581
H	-0.867149	1.688679	-2.069953
Cl	-3.638195	0.0	0.0
