16

C	0.0	0.0	0.0
C	-0.51436	0.379819	-1.376569
F	1.35789	0.0	0.0
H	-1.605917	0.338872	-1.309325
H	-0.236814	1.437534	-1.481431
N	-0.499323	0.77087	1.08008
H	-0.471734	1.744658	0.798823
H	-1.488597	0.528286	1.185082
N	-0.323542	-1.47753	0.321122
O	0.212077	-2.299082	-0.421861
O	-1.01689	-1.741515	1.291624
C	0.014957	-0.401039	-2.574386
H	-0.264098	0.122825	-3.493291
H	1.102323	-0.493883	-2.545341
H	-0.4097	-1.40275	-2.613573
Cl	-3.718258	0.0	0.0
