15

C	0.0	0.0	0.0
C	-0.554434	-0.247413	-1.394037
F	1.350983	0.0	0.0
H	-1.64154	-0.376177	-1.196998
H	-0.411205	0.926367	0.384211
N	-0.416979	-1.057244	0.983169
O	-0.40969	-0.717303	2.162937
O	-0.635932	-2.18695	0.562714
N	-0.015461	-1.469352	-2.079981
O	-0.781882	-2.004696	-2.878483
O	1.143389	-1.835993	-1.878344
N	-0.297691	0.87073	-2.273245
H	0.580996	1.320526	-2.039936
H	-1.056884	1.529953	-2.159242
F	-2.611633	0.0	0.0
