15

C	0.0	0.0	0.0
C	-0.43686	0.188637	-1.464039
F	1.357495	0.0	0.0
H	0.488105	0.297613	-2.044655
H	-0.391119	0.762736	0.654132
N	-0.35219	-1.311438	0.644656
O	-0.136359	-2.339901	0.010951
O	-0.667542	-1.261961	1.829983
N	-1.005883	1.639434	-1.552534
O	-1.834884	1.858367	-2.427548
O	-0.491423	2.504942	-0.847436
N	-1.286201	-0.775361	-2.02544
H	-2.101578	-0.721341	-1.375522
H	-1.541104	-0.474841	-2.957301
F	-2.471162	0.0	0.0
