15

C	0.0	0.0	0.0
C	-0.418265	0.003466	-1.486474
F	1.35152	0.0	0.0
H	0.518712	-0.010662	-2.06045
H	-0.399171	0.833268	0.555843
N	-0.355232	-1.230271	0.787962
O	-0.14816	-2.322982	0.269337
O	-0.659874	-1.049657	1.963467
N	-0.905856	1.464108	-1.771501
O	-1.754297	1.616566	-2.644626
O	-0.316418	2.382279	-1.202414
N	-1.310799	-0.98163	-1.929125
H	-1.541261	-0.80162	-2.897205
H	-2.126499	-0.818474	-1.293147
F	-2.470546	0.0	0.0
