15

C	0.0	0.0	0.0
C	-0.535263	-0.415649	-1.386663
F	1.352404	0.0	0.0
H	-1.249286	-1.215121	-1.257853
H	-0.393795	0.958371	0.313587
N	-0.380523	-0.976861	1.074557
O	-0.434408	-2.164448	0.772456
O	-0.465834	-0.523541	2.211876
N	0.601152	-0.976629	-2.205988
O	1.365362	-0.178961	-2.746319
O	0.687645	-2.201524	-2.294421
N	-1.154373	0.649366	-2.125695
H	-1.970817	0.792938	-1.510577
H	-0.550937	1.465166	-2.100882
F	-2.470245	0.0	0.0
