15

C	0.0	0.0	0.0
C	-0.516408	-0.450133	-1.376592
F	1.35478	0.0	0.0
H	-1.149755	-1.325008	-1.246256
H	-0.385228	0.977037	0.256907
N	-0.391481	-0.919886	1.119788
O	-0.393481	-0.405356	2.235638
O	-0.54919	-2.111549	0.886068
N	0.65103	-0.962202	-2.202614
O	1.177886	-2.000234	-1.805086
O	0.970878	-0.36456	-3.228492
N	-1.131379	0.682923	-2.009222
H	-1.437799	0.409087	-2.936512
H	-1.962317	0.739446	-1.381056
F	-2.507711	0.0	0.0
