15

C	0.0	0.0	0.0
C	-0.436202	0.071796	-1.475595
F	1.3574	0.0	0.0
H	0.489139	0.135274	-2.062479
H	-0.390578	0.81244	0.59157
N	-0.352202	-1.255975	0.747314
O	-0.667607	-1.111646	1.924824
O	-0.1359	-2.331852	0.198112
N	-1.007328	1.510865	-1.676887
O	-1.846622	1.658209	-2.556586
O	-0.486428	2.429838	-1.047821
N	-1.286089	-0.934002	-1.95726
H	-1.53878	-0.714855	-2.911697
H	-2.101832	-0.827115	-1.314097
F	-2.469504	0.0	0.0
