15

C	0.0	0.0	0.0
C	-0.401874	-0.340201	-1.453417
F	1.366342	0.0	0.0
H	0.52512	-0.206401	-2.029589
H	-0.374079	0.956271	0.330805
N	-0.357538	-0.980439	1.074123
O	-0.215884	-2.183793	0.841252
O	-0.598918	-0.516545	2.182263
N	-1.295287	0.755809	-1.993466
O	-2.213153	0.449334	-2.73582
O	-0.934701	1.908913	-1.757376
N	-0.989839	-1.604621	-1.771453
H	-0.424375	-2.308974	-1.311765
H	-1.881068	-1.554117	-1.278394
F	-2.322099	0.0	0.0
