19

C	0.0	0.0	0.0
C	-0.596819	-0.025923	-1.430084
Cl	1.770286	0.0	0.0
H	-1.583286	-0.474966	-1.285518
C	-0.515549	1.124743	0.863584
H	-0.199701	2.079371	0.443521
H	-1.608271	1.061726	0.878873
H	-0.118762	1.029793	1.872497
N	-0.345773	-1.327407	0.716298
O	-0.63512	-2.295033	0.02205
O	-0.25314	-1.339798	1.938936
C	0.207976	-0.834158	-2.439257
H	1.112508	-0.296186	-2.737406
H	-0.415108	-0.962416	-3.326185
H	0.488516	-1.813455	-2.054362
N	-0.843378	1.297467	-1.983417
H	-0.038602	1.903343	-1.864351
H	-1.645504	1.702792	-1.512378
Cl	-3.733921	0.0	0.0
