19

C	0.0	0.0	0.0
C	-0.452461	-0.017464	-1.496428
Cl	1.781939	0.0	0.0
H	0.275501	-0.661945	-1.997393
C	-0.597083	1.080232	0.855629
H	-0.276558	2.054037	0.485965
H	-0.287962	0.970733	1.893601
H	-1.688883	1.001701	0.799329
N	-0.337808	-1.374784	0.596497
O	-0.092074	-2.35052	-0.106799
O	-0.793187	-1.41751	1.733139
C	-0.362452	1.387909	-2.080443
H	0.593641	1.873117	-1.869089
H	-0.493976	1.311854	-3.160731
H	-1.174968	2.006421	-1.692933
N	-1.754977	-0.557941	-1.772182
H	-2.526765	-0.117161	-1.266866
H	-1.79273	-1.544734	-1.556855
Cl	-4.372967	0.0	0.0
