19

C	0.0	0.0	0.0
C	-0.452606	0.066399	-1.493333
Cl	1.786252	0.0	0.0
H	0.274619	-0.548533	-2.030662
C	-0.592698	1.030583	0.91785
H	-0.276894	2.023422	0.598364
H	-0.274091	0.865312	1.945631
H	-1.684788	0.954461	0.867952
N	-0.335905	-1.406159	0.519273
O	-0.08599	-2.341336	-0.23564
O	-0.793491	-1.511806	1.650561
C	-0.363789	1.502253	-1.9987
H	-0.500572	1.485759	-3.080765
H	0.594184	1.97383	-1.765444
H	-1.173707	2.099371	-1.573808
N	-1.75563	-0.457944	-1.79395
H	-1.789577	-1.456426	-1.640921
H	-2.52347	-0.052819	-1.253533
Cl	-4.363393	0.0	0.0
