19

C	0.0	0.0	0.0
C	-0.651202	-0.105657	-1.395755
Cl	1.767688	0.0	0.0
H	-1.556402	-0.693577	-1.213804
C	-0.500163	1.16531	0.815051
H	-0.053225	1.1504	1.806822
H	-0.231121	2.079963	0.288706
H	-1.586923	1.084581	0.893187
N	-0.320498	-1.304639	0.765867
O	-0.417485	-2.33528	0.107374
O	-0.389317	-1.241759	1.98742
C	0.207232	-0.792021	-2.445439
H	-0.40809	-0.984839	-3.330147
H	1.04332	-0.149908	-2.736632
H	0.591294	-1.74465	-2.085435
N	-1.015945	1.238903	-1.854216
H	-1.20658	1.17102	-2.848308
H	-1.915834	1.437899	-1.417835
Cl	-3.75584	0.0	0.0
