17

C	0.0	0.0	0.0
C	-0.545925	-0.179963	-1.402697
Br	1.956032	0.0	0.0
H	-0.060197	-1.041368	-1.862709
H	-1.608786	-0.415315	-1.265905
C	-0.525794	1.208804	0.727224
H	-0.162745	1.23385	1.752451
H	-1.619856	1.13693	0.717154
H	-0.206945	2.112679	0.207524
N	-0.324559	-1.265344	0.813894
O	-0.382594	-2.323698	0.198358
O	-0.444373	-1.141913	2.026779
C	-0.413738	1.063122	-2.272771
H	-0.711081	0.819692	-3.295502
H	-1.079419	1.853031	-1.92266
H	0.612381	1.441022	-2.299756
Br	-3.953661	0.0	0.0
