13

C	0.0	0.0	0.0
C	-0.545278	-0.80436	-1.160067
F	1.373792	0.0	0.0
H	0.085925	-0.570764	-2.015989
H	-0.261057	1.044566	-0.213474
N	-0.439172	-0.522933	1.233516
H	-0.305179	0.202778	1.95445
H	-1.462521	-0.633616	1.159448
C	-1.980306	-0.283673	-1.495156
N	-2.48084	-0.104181	-2.564208
C	-0.550675	-2.23431	-0.910305
N	-0.652375	-3.392468	-0.699821
H	-2.549583	0.0	0.0
