13

C	0.0	0.0	0.0
C	-0.474245	0.099741	-1.402514
F	1.402774	0.0	0.0
H	0.058403	0.922352	-1.894634
H	-0.315388	0.888254	0.561525
N	-0.383041	-1.262916	0.572434
H	0.018528	-1.312326	1.500758
H	-1.400158	-1.205647	0.640979
C	-1.98973	0.397697	-1.492029
N	-2.642074	0.867622	-2.395157
C	-0.104741	-1.119	-2.140757
N	0.243276	-2.055356	-2.763037
H	-2.490418	0.0	0.0
