18

C	0.0	0.0	0.0
C	-0.386721	0.154089	-1.518582
Br	2.055926	0.0	0.0
H	0.535534	0.275525	-2.091923
N	-0.468797	1.072119	0.759923
H	-0.14548	1.982391	0.473145
H	-0.373088	0.934906	1.756182
C	-0.45107	-1.302082	0.627794
H	-0.103775	-1.354605	1.663257
H	-1.547015	-1.297317	0.601186
H	-0.063182	-2.164014	0.087007
C	-1.28855	1.360364	-1.81598
H	-2.217079	1.297016	-1.244575
H	-1.515583	1.374403	-2.88532
H	-0.747551	2.285159	-1.586854
C	-0.995508	-1.074644	-2.0398
N	-1.433218	-2.048429	-2.530871
Cl	-4.037016	0.0	0.0
