18

C	0.0	0.0	0.0
C	-0.494581	-0.140823	-1.462618
Br	1.972322	0.0	0.0
H	-1.589503	-0.064049	-1.357265
N	-0.455149	1.211115	0.630024
H	-0.262711	2.006018	0.028047
H	-1.47163	1.117737	0.708355
C	-0.449004	-1.18216	0.84378
H	-0.157108	-0.993667	1.877666
H	0.006373	-2.114804	0.510194
H	-1.53892	-1.247996	0.782593
C	-0.153573	-1.450439	-2.175163
H	-0.532577	-1.422887	-3.199667
H	-0.635125	-2.28507	-1.664562
H	0.925318	-1.615118	-2.204093
C	-0.04944	1.003049	-2.259887
N	0.309825	1.912849	-2.911357
Cl	-3.670263	0.0	0.0
