18

C	0.0	0.0	0.0
C	-0.50033	0.063763	-1.456526
Br	1.96801	0.0	0.0
H	-1.590981	0.186783	-1.35551
N	-0.458222	1.201754	0.651128
H	-0.2009	1.16938	1.632639
H	-1.481211	1.168257	0.597815
C	-0.433532	-1.289675	0.688042
H	-0.122076	-1.25595	1.73561
H	0.006472	-2.177642	0.231335
H	-1.525401	-1.334519	0.641767
C	-0.237325	-1.191264	-2.290194
H	-0.823252	-2.024253	-1.900413
H	-0.547377	-1.017261	-3.322769
H	0.823072	-1.453945	-2.285043
C	0.021906	1.247071	-2.14098
N	0.391271	2.165322	-2.773915
Cl	-3.655727	0.0	0.0
