18

C	0.0	0.0	0.0
C	-0.492881	-0.112059	-1.465882
Br	1.972459	0.0	0.0
H	-1.588617	-0.044169	-1.359715
N	-0.456385	1.197462	0.653679
H	-1.472981	1.102357	0.730121
H	-0.263455	2.005282	0.069607
C	-0.44956	-1.199166	0.818697
H	-1.539644	-1.2619	0.756125
H	-0.156948	-1.033134	1.856054
H	0.004583	-2.125016	0.465136
C	-0.142992	-1.402837	-2.208492
H	-0.614382	-2.253589	-1.714557
H	0.937466	-1.556796	-2.24611
H	-0.526851	-1.355906	-3.230433
C	-0.054262	1.052336	-2.236709
N	0.299995	1.978735	-2.867134
Cl	-3.668766	0.0	0.0
