18

C	0.0	0.0	0.0
C	-0.509287	-0.067448	-1.449207
Br	2.038386	0.0	0.0
H	-1.604983	-0.000322	-1.310497
N	-0.462367	1.1859	0.583619
H	-0.188384	2.02695	0.095972
H	-0.273281	1.252696	1.572149
C	-0.455488	-1.193172	0.812859
H	-0.016689	-2.121925	0.450048
H	-0.156156	-1.063483	1.856344
H	-1.549439	-1.215192	0.749017
C	-0.155919	-1.341912	-2.213375
H	-0.632255	-2.20159	-1.741234
H	0.92478	-1.49481	-2.247174
H	-0.533657	-1.272405	-3.235466
C	-0.076368	1.11385	-2.195279
N	0.272248	2.05934	-2.799893
Cl	-3.799689	0.0	0.0
