18

C	0.0	0.0	0.0
C	-0.366803	0.32083	-1.523007
Br	1.978139	0.0	0.0
H	0.567365	0.378769	-2.088354
N	-0.478419	0.921335	0.982011
H	-1.490583	0.776299	1.040852
H	-0.315446	1.878626	0.696106
C	-0.434414	-1.396466	0.412709
H	-0.01937	-2.1583	-0.249369
H	-0.09841	-1.580911	1.433936
H	-1.526427	-1.430099	0.369289
C	-1.105141	1.648294	-1.71665
H	-1.305958	1.794902	-2.781722
H	-0.484505	2.482192	-1.376175
H	-2.054599	1.625613	-1.182558
C	-1.097544	-0.771609	-2.174324
N	-1.581462	-1.614045	-2.835943
Cl	-3.647342	0.0	0.0
