18

C	0.0	0.0	0.0
C	-0.259689	0.273849	-1.52569
Br	1.967681	0.0	0.0
H	0.32182	1.174924	-1.746022
N	-0.512069	1.124528	0.742497
H	-1.526738	1.110451	0.611812
H	-0.353478	0.959065	1.731253
C	-0.512705	-1.352747	0.458664
H	-1.606616	-1.325723	0.398204
H	-0.220567	-1.526187	1.498613
H	-0.124948	-2.168552	-0.154161
C	-1.695996	0.509813	-1.991422
H	-2.151204	1.349748	-1.473049
H	-1.683419	0.727841	-3.064039
H	-2.341511	-0.345086	-1.812444
C	0.304383	-0.809639	-2.340077
N	0.708282	-1.681277	-3.015667
Cl	-4.150828	0.0	0.0
