18

C	0.0	0.0	0.0
C	-0.24616	-0.178238	-1.55021
Br	1.980888	0.0	0.0
H	0.367192	0.598426	-2.020067
N	-0.494405	1.234475	0.518052
H	-1.493073	1.141908	0.699727
H	-0.352821	1.994413	-0.137654
C	-0.549553	-1.151526	0.810329
H	-0.34768	-0.979818	1.868998
H	-1.636087	-1.18376	0.661015
H	-0.108594	-2.100353	0.505775
C	-1.702473	-0.023592	-2.02406
H	-1.795292	0.836757	-2.688944
H	-2.415973	0.106613	-1.209633
H	-2.036062	-0.905164	-2.572512
C	0.301129	-1.456037	-2.017001
N	0.674476	-2.489681	-2.433478
Cl	-4.356721	0.0	0.0
