14

C	0.0	0.0	0.0
C	-0.405227	-0.163902	-1.561524
Br	1.956874	0.0	0.0
H	0.53789	-0.114263	-2.113627
C	-0.41884	1.314321	0.477669
N	-0.566116	2.435014	0.803749
C	-0.442021	-1.068703	0.887834
N	-0.558766	-1.981324	1.621538
N	-1.302593	0.810911	-2.115933
H	-0.862323	1.724141	-2.073678
H	-2.09347	0.777412	-1.451319
C	-0.938621	-1.515376	-1.764697
N	-1.286033	-2.608751	-2.012117
F	-2.363931	0.0	0.0
