14

C	0.0	0.0	0.0
C	-0.438992	0.195053	-1.503187
Br	1.954143	0.0	0.0
H	0.475876	0.243323	-2.102704
C	-0.419977	1.101697	0.867452
N	-0.529503	1.981041	1.639562
C	-0.408192	-1.27869	0.581932
N	-0.574244	-2.329429	1.082134
N	-1.141348	1.451766	-1.653691
H	-2.007041	1.269665	-1.125907
H	-1.346444	1.590262	-2.637664
C	-1.168855	-0.993257	-1.991687
N	-1.62985	-1.90401	-2.573507
F	-2.373769	0.0	0.0
