14

C	0.0	0.0	0.0
C	-0.408247	-0.088375	-1.565455
Br	1.957132	0.0	0.0
H	0.533348	-0.022966	-2.118597
C	-0.40891	1.295305	0.536116
N	-0.54845	2.403522	0.904524
C	-0.450702	-1.101948	0.83986
N	-0.55715	-2.038534	1.543837
N	-1.295715	0.920685	-2.073093
H	-2.079439	0.875186	-1.40143
H	-0.838352	1.823613	-2.012284
C	-0.954996	-1.423603	-1.832555
N	-1.312309	-2.50051	-2.133851
F	-2.357879	0.0	0.0
