16

C	-0.524999	-0.017228	-1.409324
C	0.0	0.0	0.0
Cl	-2.208514	-0.495064	-1.590699
H	1.089389	0.0	0.0
N	-0.254911	1.312522	-2.130293
O	-1.122086	1.778738	-2.84639
O	0.879252	1.72857	-1.952853
N	0.302386	-1.036188	-2.228647
O	0.510559	-0.754248	-3.400505
O	0.642166	-2.049207	-1.640254
C	-0.371914	-1.176507	0.752879
N	-0.653208	-2.120575	1.395907
N	-0.411441	1.178048	0.739416
O	-1.005339	2.098468	0.150438
O	-0.040117	1.212486	1.919915
H	2.313468	0.0	0.0
