16

C	-0.412141	-0.015048	-1.44351
C	0.0	0.0	0.0
Cl	-0.161397	-1.610816	-2.118717
H	1.093775	0.0	0.0
N	-1.895304	0.356105	-1.689861
O	-2.688352	-0.276324	-1.010395
O	-2.147967	1.20233	-2.531586
N	0.424663	0.993457	-2.257714
O	0.961559	1.885631	-1.617936
O	0.493073	0.805113	-3.464514
C	-0.385021	-1.173042	0.74662
N	-0.637962	-2.124077	1.391422
N	-0.442315	1.189283	0.718505
O	-1.089844	2.054546	0.111245
O	-0.073459	1.264671	1.894412
H	2.335672	0.0	0.0
