16

C	-0.448617	-0.007471	-1.435429
C	0.0	0.0	0.0
Cl	0.629018	0.835036	-2.523369
H	1.093677	0.0	0.0
N	-0.52481	-1.446998	-1.948121
O	-1.43968	-1.714097	-2.719034
O	0.389628	-2.181052	-1.602059
N	-1.902532	0.524374	-1.603233
O	-2.164117	1.258954	-2.537469
O	-2.676561	0.085152	-0.763233
C	-0.440161	-1.125688	0.785477
N	-0.751543	-2.040699	1.457435
N	-0.360349	1.240815	0.647279
O	-0.515202	2.234293	-0.083796
O	-0.334111	1.264335	1.88405
H	2.290833	0.0	0.0
