16

C	-0.53643	-0.009255	-1.422464
C	0.0	0.0	0.0
Cl	-2.225838	-0.245881	-1.673913
H	1.087872	0.0	0.0
N	-0.079619	1.298932	-2.108133
O	-0.639318	1.599494	-3.161486
O	0.931937	1.79742	-1.626571
N	0.218123	-1.136934	-2.221471
O	1.359461	-1.351925	-1.83727
O	-0.308969	-1.519994	-3.268821
C	-0.518547	-1.138205	0.724023
N	-0.927462	-2.065896	1.322383
N	-0.397212	1.274807	0.728532
O	-1.549248	1.677175	0.574293
O	0.47602	1.794259	1.411047
H	2.536638	0.0	0.0
