17

C	-0.187811	0.075627	-1.521676
C	0.0	0.0	0.0
Cl	-1.855853	0.861292	-1.962604
H	1.090895	0.0	0.0
N	0.833999	0.94688	-1.979487
H	1.702957	0.720762	-1.459617
H	0.954427	0.866265	-2.980599
N	-0.129115	-1.23834	-2.076044
H	-0.992097	-1.74285	-1.922364
H	0.074754	-1.171779	-3.064767
N	-0.590916	-1.176338	0.669209
O	-1.541769	-1.764707	0.154253
O	-0.102371	-1.462334	1.7585
N	-0.514837	1.198081	0.710438
O	-1.515799	1.065876	1.416754
O	0.096974	2.243458	0.534504
F	2.55766	0.0	0.0
