17

C	-0.193688	-0.105663	-1.516479
C	0.0	0.0	0.0
Cl	-1.900027	-0.798179	-1.944916
H	1.09055	0.0	0.0
N	-0.03675	1.175069	-2.121037
H	0.109077	1.056521	-3.115459
H	-0.838267	1.766894	-1.945786
N	0.768262	-1.06438	-1.931193
H	1.656622	-0.829727	-1.456413
H	0.857135	-1.072514	-2.93885
N	-0.51705	-1.190229	0.72293
O	-1.603257	-1.081778	1.297922
O	0.174605	-2.203613	0.68966
N	-0.566481	1.179602	0.679145
O	-0.194467	1.334448	1.840533
O	-1.362948	1.920542	0.094645
F	2.547005	0.0	0.0
