17

C	-0.075647	0.018509	-1.533375
C	0.0	0.0	0.0
Cl	-1.74125	-0.157071	-2.195502
H	1.092235	0.0	0.0
N	0.432511	1.323205	-1.87646
H	0.585897	1.307611	-2.881515
H	1.349858	1.375222	-1.423134
N	0.752535	-1.022713	-2.104706
H	0.367857	-1.924318	-1.847284
H	1.650138	-0.913243	-1.613977
N	-0.518341	-1.190445	0.693608
O	-0.655084	-1.091831	1.911077
O	-0.716557	-2.221734	0.051035
N	-0.608176	1.191531	0.629212
O	-1.834927	1.197322	0.74154
O	0.142918	2.099141	0.975136
F	2.555331	0.0	0.0
