17

C	-0.213777	-0.059911	-1.513922
C	0.0	0.0	0.0
Cl	0.028046	1.928693	-2.051669
H	1.086377	0.0	0.0
N	0.850173	-0.74685	-2.049993
H	0.956646	-0.616982	-3.045053
H	1.716642	-0.541911	-1.509877
N	-1.490595	-0.425216	-1.94304
H	-2.172746	0.213726	-1.555314
H	-1.556076	-0.442552	-2.952292
N	-0.485426	-1.264177	0.63389
O	0.12294	-2.284267	0.335075
O	-1.431396	-1.20223	1.42176
N	-0.684063	1.110821	0.689045
O	-1.828384	1.393778	0.333005
O	-0.081723	1.640693	1.617862
F	2.559484	0.0	0.0
