17

C	-0.234208	-0.032737	-1.524865
C	0.0	0.0	0.0
Cl	0.114767	-1.821442	-1.969422
H	1.087331	0.0	0.0
N	-1.521111	0.379162	-1.925452
H	-2.225735	-0.198373	-1.485655
H	-1.585771	0.324243	-2.933828
N	0.778162	0.71097	-2.211508
H	0.590716	1.6847	-1.996833
H	1.664448	0.480928	-1.738382
N	-0.664332	-1.086651	0.750684
O	-0.028538	-1.635125	1.644819
O	-1.829104	-1.355952	0.443015
N	-0.480207	1.271749	0.592696
O	-0.119619	2.310572	0.04674
O	-1.163063	1.22193	1.616554
F	2.530237	0.0	0.0
