16

C	0.0	0.0	0.0
C	-0.383603	-0.016807	-1.471214
Cl	1.794541	0.0	0.0
H	0.354393	0.525359	-2.061768
H	-0.36901	-0.902434	0.471084
C	-0.415534	1.245461	0.768674
H	-0.024835	2.145613	0.291398
H	0.000947	1.174796	1.777814
H	-1.506673	1.222427	0.779698
N	-1.686641	0.612274	-1.920173
O	-2.435388	-0.051756	-2.618
O	-1.705113	1.829656	-1.783976
N	-0.337953	-1.410453	-2.029361
O	-0.621563	-2.355952	-1.303739
O	-0.00818	-1.493101	-3.212916
F	-2.576841	0.0	0.0
