16

C	0.0	0.0	0.0
C	-0.462937	-0.106377	-1.445602
Cl	1.786996	0.0	0.0
H	0.316409	-0.582162	-2.041558
H	-0.32718	-0.923978	0.469072
C	-0.43352	1.198232	0.82891
H	-0.066417	1.048011	1.848314
H	-0.000831	2.12242	0.442054
H	-1.524619	1.193474	0.787549
N	-0.696855	1.181893	-2.173708
O	-0.15484	1.250601	-3.282534
O	-1.388689	2.056606	-1.672914
N	-1.64107	-1.022881	-1.676225
O	-2.415929	-0.716099	-2.569539
O	-1.511342	-2.133606	-1.177665
F	-2.612298	0.0	0.0
