16

C	0.0	0.0	0.0
C	-0.387324	-0.2016	-1.456998
Cl	1.785514	0.0	0.0
H	0.347433	0.267543	-2.111558
H	-0.371904	-0.835692	0.580087
C	-0.421364	1.331041	0.605749
H	-0.00401	1.390361	1.615245
H	-0.035361	2.165625	0.017776
H	-1.512472	1.304316	0.620091
N	-1.693335	0.3598	-1.980312
O	-1.715984	1.584466	-1.999631
O	-2.43992	-0.389749	-2.58805
N	-0.332275	-1.653434	-1.839012
O	-0.604283	-2.505363	-1.001027
O	-0.005275	-1.879248	-3.004589
F	-2.586034	0.0	0.0
