16

C	0.0	0.0	0.0
C	-0.456644	0.170601	-1.4415
Cl	1.789948	0.0	0.0
H	0.319701	-0.195445	-2.113614
H	-0.328809	-0.995002	0.287477
C	-0.435703	1.027029	1.031456
H	-0.070361	0.697181	2.008141
H	-0.004148	2.006561	0.818084
H	-1.527085	1.027927	0.987117
N	-0.66249	1.579718	-1.904614
O	-1.40153	2.328596	-1.282822
O	-0.04552	1.880176	-2.933022
N	-1.64538	-0.666729	-1.845824
O	-2.410516	-0.181521	-2.665797
O	-1.529026	-1.85571	-1.576753
F	-2.615894	0.0	0.0
