17

C	0.0	0.0	0.0
C	-0.612108	-0.106426	-1.412682
Br	1.962797	0.0	0.0
H	-1.687465	0.122943	-1.172835
C	-0.366582	1.266808	0.64395
N	-0.549623	2.244785	1.268993
C	-0.498345	-1.149014	0.869049
H	-0.139285	-1.021116	1.891519
H	-1.59495	-1.053528	0.802867
H	-0.130783	-2.100369	0.4811
N	-0.501309	-1.370178	-2.060636
H	0.415761	-1.787232	-1.94969
H	-1.218277	-1.976114	-1.683842
N	-0.019917	0.958332	-2.28581
O	0.810751	0.62985	-3.132377
O	-0.390067	2.113995	-2.07324
F	-2.838047	0.0	0.0
