17

C	0.0	0.0	0.0
C	-0.625912	0.11188	-1.405253
Br	1.962988	0.0	0.0
H	-1.688781	0.347699	-1.1214
C	-0.369339	1.148108	0.836593
N	-0.560288	2.025336	1.595484
C	-0.483439	-1.273639	0.690444
H	-0.115698	-1.295683	1.718032
H	-0.109662	-2.152845	0.16215
H	-1.580991	-1.188332	0.652324
N	-0.598325	-1.058335	-2.215126
H	0.292866	-1.537935	-2.18371
H	-1.342471	-1.663272	-1.894334
N	0.013046	1.251326	-2.138293
O	0.761696	1.000416	-3.081521
O	-0.238425	2.381379	-1.722129
F	-2.834522	0.0	0.0
