17

C	0.0	0.0	0.0
C	-0.611625	0.043461	-1.395611
Br	1.968054	0.0	0.0
H	-1.719874	0.106725	-1.096534
C	-0.376299	1.147604	0.831826
N	-0.538823	2.005362	1.618841
C	-0.462527	-1.275651	0.706066
H	-0.079106	-1.28886	1.728268
H	-1.557262	-1.202315	0.682818
H	-0.103552	-2.143213	0.155072
N	-0.293886	-1.116474	-2.153123
H	-0.97657	-1.229952	-2.889561
H	0.619915	-1.020939	-2.579839
N	-0.204001	1.322303	-2.103166
O	-0.521847	2.388331	-1.582308
O	0.403503	1.224681	-3.175252
F	-2.830711	0.0	0.0
