18

C	-0.422206	-0.01441	-1.473075
C	0.0	0.0	0.0
Br	0.305555	1.641855	-2.325958
H	1.091204	0.0	0.0
C	0.136025	-1.187044	-2.271112
H	-0.333102	-2.116043	-1.948566
H	1.208785	-1.242701	-2.072257
H	-0.054424	-1.033574	-3.334914
C	-1.873372	0.094326	-1.619603
N	-3.044729	0.140415	-1.725029
N	-0.4122	-1.274274	0.624966
O	0.198265	-2.297364	0.288054
O	-1.293537	-1.258078	1.500101
C	-0.52213	1.167502	0.805976
H	-1.610459	1.254249	0.781612
H	-0.065876	2.083508	0.43098
H	-0.209962	1.039413	1.843493
H	2.622248	0.0	0.0
