18

C	-0.479936	0.021013	-1.446453
C	0.0	0.0	0.0
Br	0.697676	-1.036265	-2.675889
H	1.093744	0.0	0.0
C	-1.909496	-0.476886	-1.661695
H	-2.588739	0.11054	-1.036135
H	-2.19579	-0.36098	-2.709262
H	-1.967973	-1.526138	-1.383354
C	-0.379794	1.381471	-1.978311
N	-0.34945	2.476199	-2.407199
N	-0.378647	-1.206293	0.677939
O	-0.345268	-2.278615	0.0353
O	-0.537676	-1.163026	1.916757
C	-0.345928	1.234644	0.807895
H	0.12833	1.133495	1.784153
H	0.075167	2.114184	0.319593
H	-1.422916	1.370946	0.951476
H	2.387129	0.0	0.0
