18

C	-0.488506	0.028714	-1.443598
C	0.0	0.0	0.0
Br	0.639962	-1.082027	-2.67109
H	1.090215	0.0	0.0
C	-1.940245	-0.408114	-1.643883
H	-2.047374	-1.450253	-1.34868
H	-2.226064	-0.292786	-2.691596
H	-2.589414	0.22198	-1.026104
C	-0.345736	1.380519	-1.987156
N	-0.362089	2.467456	-2.43755
N	-0.390684	-1.202037	0.683003
O	-0.507303	-1.160078	1.926376
O	-0.410925	-2.272727	0.038137
C	-0.337103	1.237828	0.808572
H	0.07548	2.118897	0.31452
H	0.150529	1.140412	1.779468
H	-1.412449	1.373065	0.965827
H	2.403331	0.0	0.0
