14

C	-0.117929	-0.102374	-1.509415
C	0.0	0.0	0.0
Cl	-1.767376	-0.619858	-2.086326
H	1.091956	0.0	0.0
H	-0.300651	-0.979833	0.380313
N	0.047188	1.285488	-2.208233
O	-0.04539	2.306273	-1.540783
O	0.286809	1.242069	-3.412856
N	0.880467	-0.984837	-1.937728
H	1.743423	-0.762309	-1.392582
H	1.020876	-0.913525	-2.935913
C	-0.713336	1.029258	0.715107
N	-1.279554	1.806792	1.389522
F	2.615852	0.0	0.0
