14

C	-0.512352	-0.013819	-1.431552
C	0.0	0.0	0.0
Cl	0.168338	1.339994	-2.331594
H	1.093621	0.0	0.0
H	-0.331523	-0.927956	0.478264
N	-0.027307	-1.339411	-2.0409
O	-0.565541	-2.325135	-1.537648
O	0.792884	-1.35404	-2.941505
N	-1.94274	-0.028341	-1.658352
H	-2.307744	0.867096	-1.354262
H	-2.33267	-0.748194	-1.059026
C	-0.576382	1.123758	0.70441
N	-1.064655	2.03579	1.26427
F	2.517234	0.0	0.0
