14

C	-0.506049	0.010021	-1.422209
C	0.0	0.0	0.0
Cl	-0.023911	-1.446015	-2.314367
H	1.091815	0.0	0.0
H	-0.327624	0.932286	0.47584
N	-2.088327	-0.029489	-1.354616
O	-2.688971	-1.094509	-1.397103
O	-2.609705	1.073069	-1.177781
N	-0.074736	1.156246	-2.11276
H	-0.147653	1.976469	-1.529915
H	-0.572777	1.287447	-2.983417
C	-0.512281	-1.114627	0.770385
N	-0.895915	-2.006301	1.433771
F	2.50893	0.0	0.0
