14

C	-0.099383	-0.123283	-1.513975
C	0.0	0.0	0.0
Cl	-1.702138	-0.698849	-2.162013
H	1.096184	0.0	0.0
H	-0.443431	0.920114	0.370365
N	-0.062119	1.345717	-2.106088
O	0.549436	1.482703	-3.160862
O	-0.659095	2.237083	-1.513794
N	0.948812	-0.90447	-1.973917
H	1.799495	-0.675505	-1.409027
H	1.085334	-0.816566	-2.970801
C	-0.517786	-1.16222	0.687137
N	-0.924862	-2.088688	1.284154
F	2.624292	0.0	0.0
