14

C	-0.503453	-0.010761	-1.434577
C	0.0	0.0	0.0
Cl	0.19975	1.335521	-2.329751
H	1.093054	0.0	0.0
H	-0.3384	-0.926596	0.475959
N	-0.030013	-1.34147	-2.04164
O	-0.58319	-2.32196	-1.544995
O	0.79494	-1.364969	-2.934724
N	-1.932166	-0.009123	-1.672383
H	-2.289308	0.892757	-1.378269
H	-2.337773	-0.719498	-1.072122
C	-0.574896	1.127732	0.700541
N	-1.063208	2.044505	1.252974
F	2.519313	0.0	0.0
