14

C	-0.541389	0.03027	-1.423533
C	0.0	0.0	0.0
Cl	-0.044028	1.55414	-2.171814
H	1.091936	0.0	0.0
H	-0.297793	0.940817	0.476944
N	0.10002	-1.138332	-2.189946
O	-0.420096	-2.224594	-1.936518
O	1.03913	-0.946011	-2.944256
N	-1.963407	-0.129294	-1.638482
H	-2.247192	-0.983204	-1.165431
H	-2.428332	0.651946	-1.190317
C	-0.569274	-1.091213	0.763154
N	-1.029113	-1.975235	1.388073
F	2.511331	0.0	0.0
