13

C	0.0	0.0	0.0
C	-0.452337	-0.01632	-1.456127
Cl	1.850214	0.0	0.0
H	-1.539443	0.082768	-1.396811
H	-0.230733	0.979308	0.415067
H	0.001061	0.83072	-1.986043
N	-0.488095	-0.997815	0.782692
H	-0.789609	-0.841863	1.762993
H	-0.64095	-1.959599	0.388597
N	-0.250644	-1.317385	-2.449159
O	-0.023723	-2.255966	-1.488081
O	0.912507	-1.024777	-3.066416
H	-2.040549	0.0	0.0
