14
Coordinates from ORCA-job run
  C   -0.54786226525010     -0.46424516722491      0.18384512413660
  C   0.54245324806355      0.48999380966783     -0.26015306519954
  F   -0.34162613032584     -0.76642572437632      1.53776195175329
  H   0.43591417479587      1.41632793407286      0.31490838224619
  H   -0.45491453276945     -1.41518602144026     -0.35440548835332
  H   0.36806901562329      0.74308260897728     -1.31180909491451
  C   -1.94660982548787      0.09131238742976      0.03899525990917
  H   -2.17354907001819      0.29416314030802     -1.01027045587235
  H   -2.04030530633285      1.02087341542713      0.60462120661250
  H   -2.67924126074150     -0.62120534328105      0.42185977108917
  C   1.94224453545700     -0.08613552232340     -0.07651496791249
  H   2.12061131462226     -0.32958861100145      0.97125415684916
  H   2.06958740357921     -1.00049038276761     -0.66240656839264
  H   2.70622869878462      0.62552347653214     -0.39668621195121
