16

C	-0.506518	-0.055901	-1.429337
C	0.0	0.0	0.0
Br	-2.432939	0.146206	-1.55758
H	1.093421	0.0	0.0
H	-0.266607	-1.036565	-1.835819
N	0.189485	0.906275	-2.383251
O	1.312109	0.526427	-2.693223
O	-0.38123	1.915379	-2.769052
C	-0.46846	-1.187918	0.813885
H	-1.554179	-1.225451	0.907388
H	-0.027965	-1.134951	1.808402
H	-0.104179	-2.099591	0.33446
N	-0.405707	1.293552	0.631959
O	-0.982427	1.26463	1.71854
O	-0.108491	2.313409	0.015485
Br	3.415494	0.0	0.0
