16

C	-0.578366	-0.010958	-1.40424
C	0.0	0.0	0.0
Br	0.223218	1.321876	-2.539229
H	1.089709	0.0	0.0
H	-1.650203	0.16034	-1.397615
N	-0.389538	-1.379346	-1.99163
O	-1.418453	-2.056215	-2.078778
O	0.742179	-1.741274	-2.27976
C	-0.496491	-1.169864	0.837013
H	-0.056047	-2.094718	0.461017
H	-1.586454	-1.248959	0.82722
H	-0.142045	-1.035584	1.860802
N	-0.49277	1.254363	0.659563
O	-1.671559	1.568913	0.468497
O	0.282526	1.85046	1.395877
Br	3.497639	0.0	0.0
