16

C	-0.445264	-0.106866	-1.449174
C	0.0	0.0	0.0
Br	-2.279642	-0.669645	-1.726164
H	1.104302	0.0	0.0
H	0.183456	-0.864392	-1.922041
N	-0.161607	1.168429	-2.247337
O	-0.907992	1.465907	-3.170916
O	0.865379	1.746769	-1.92403
C	-0.39659	-1.215042	0.822116
H	0.067749	-1.126456	1.806675
H	0.013712	-2.109524	0.346718
H	-1.474342	-1.312003	0.930286
N	-0.54579	1.233641	0.644326
O	0.189561	2.211705	0.75416
O	-1.718245	1.185589	1.027137
Br	3.45469	0.0	0.0
