16

C	-0.37958	0.039614	-1.463136
C	0.0	0.0	0.0
Br	-2.267422	-0.196732	-1.88117
H	1.104498	0.0	0.0
H	0.151552	-0.763251	-1.970821
N	0.062666	1.301779	-2.155269
O	0.723575	1.154141	-3.178246
O	-0.296107	2.364978	-1.66269
C	-0.449146	-1.285218	0.670434
H	-0.028602	-2.135172	0.128271
H	-1.53473	-1.366417	0.710977
H	-0.041723	-1.308865	1.683163
N	-0.518509	1.166071	0.777134
O	-1.722543	1.159087	1.04377
O	0.279376	2.029236	1.124488
Br	3.424803	0.0	0.0
