16

C	-0.44434	0.108307	-1.450224
C	0.0	0.0	0.0
Br	0.438774	-1.169191	-2.572314
H	1.098279	0.0	0.0
H	-0.223954	1.102545	-1.832609
N	-1.953773	-0.043898	-1.521501
O	-2.466152	-1.021294	-2.049802
O	-2.559356	0.870543	-0.964794
C	-0.546795	-1.1991	0.735745
H	-0.266886	-2.102448	0.191461
H	-0.103613	-1.247011	1.728969
H	-1.632833	-1.155128	0.841513
N	-0.365615	1.290553	0.689417
O	-0.059064	2.331745	0.116561
O	-0.899812	1.225951	1.794731
Br	3.419076	0.0	0.0
