16

C	-0.400314	-0.00975	-1.458855
C	0.0	0.0	0.0
Br	-2.299678	-0.246801	-1.825165
H	1.0995	0.0	0.0
H	0.115895	-0.834161	-1.946573
N	0.030259	1.223014	-2.209631
O	0.692188	1.031059	-3.226141
O	-0.336689	2.305405	-1.769145
C	-0.440753	-1.264206	0.714863
H	-0.01671	-2.127828	0.19809
H	-0.027274	-1.252748	1.725141
H	-1.524778	-1.351542	0.765959
N	-0.50899	1.193032	0.74277
O	0.277787	2.105123	0.973004
O	-1.689845	1.163898	1.096154
Br	3.425196	0.0	0.0
