16

C	-0.611444	0.131268	-1.389742
C	0.0	0.0	0.0
Br	0.462727	1.151769	-2.611521
H	1.091567	0.0	0.0
H	-1.588359	0.601786	-1.343947
N	-0.875347	-1.244067	-1.950607
O	0.038045	-1.872552	-2.466024
O	-2.02743	-1.648942	-1.784525
C	-0.447941	-1.234382	0.770892
H	0.020853	-1.200508	1.752495
H	-1.53421	-1.293745	0.874623
H	-0.081355	-2.125887	0.260952
N	-0.387379	1.219501	0.795744
O	-0.01341	1.243927	1.962972
O	-1.036371	2.114887	0.252476
Br	3.419429	0.0	0.0
