16

C	-0.593155	0.099341	-1.400487
C	0.0	0.0	0.0
Br	0.470717	1.137706	-2.619801
H	1.093148	0.0	0.0
H	-1.586057	0.537177	-1.381043
N	-0.793059	-1.290465	-1.947148
O	-1.943238	-1.722222	-1.839732
O	0.165257	-1.905521	-2.390745
C	-0.461092	-1.219209	0.785924
H	-1.549943	-1.283441	0.858102
H	-0.024348	-1.160009	1.780841
H	-0.07378	-2.119559	0.307887
N	-0.397845	1.234894	0.764673
O	-0.062887	1.273267	1.944359
O	-1.014858	2.130505	0.183272
Br	3.413186	0.0	0.0
