13

C	0.0	0.0	0.0
C	-0.469552	-0.243053	-1.439065
Br	1.93234	0.0	0.0
H	0.389243	-0.399842	-2.096459
H	-0.340191	0.954829	0.383915
H	-0.331434	-0.818478	0.631448
N	-1.021318	1.080881	-2.046887
O	-0.714856	2.154055	-1.536725
O	-1.634606	0.95037	-3.101684
N	-1.344162	-1.348879	-1.562511
H	-1.582632	-1.476053	-2.538287
H	-2.20864	-1.130888	-1.050642
Cl	-3.679744	0.0	0.0
