13

C	0.0	0.0	0.0
C	-0.567697	-0.051577	-1.394338
Br	1.934607	0.0	0.0
H	-1.660605	-0.104927	-1.244466
H	-0.336852	0.923084	0.463352
H	-0.330405	-0.855756	0.579513
N	-0.185905	-1.395348	-2.031571
O	-0.289444	-2.402885	-1.338331
O	0.166489	-1.389163	-3.212086
N	-0.211325	1.062052	-2.196626
H	-0.790259	1.096547	-3.023525
H	0.759703	1.012041	-2.47659
Cl	-3.531468	0.0	0.0
