13

C	0.0	0.0	0.0
C	-0.44064	0.277623	-1.439246
Br	1.93953	0.0	0.0
H	0.123053	-0.353255	-2.125296
H	-0.335239	-0.990203	0.30365
H	-0.373815	0.757574	0.683877
N	0.054947	1.684712	-1.78814
O	-0.258772	2.590711	-1.022151
O	0.674222	1.825012	-2.839684
N	-1.817969	0.227312	-1.721902
H	-2.092958	-0.600561	-2.224347
H	-2.485183	0.36886	-0.95832
Cl	-4.43169	0.0	0.0
