13

C	0.0	0.0	0.0
C	-0.468646	-0.076512	-1.449568
Br	1.939299	0.0	0.0
H	0.018794	-0.911154	-1.956024
H	-0.347909	0.914196	0.476226
H	-0.342872	-0.876524	0.546069
N	0.102869	1.145948	-2.176898
O	0.643164	0.956847	-3.264334
O	-0.078258	2.240448	-1.652593
N	-1.859304	-0.090154	-1.67754
H	-2.479475	0.296109	-0.963068
H	-2.216092	-0.997528	-1.92799
Cl	-4.505222	0.0	0.0
