14

C	-0.411209	-0.059172	-1.476043
C	0.0	0.0	0.0
Br	-0.002452	1.716946	-2.343956
H	1.095736	0.0	0.0
H	-1.492584	-0.132623	-1.601944
N	0.245285	-1.153847	-2.076283
H	1.25071	-1.083735	-1.942217
H	0.031861	-1.231916	-3.060478
C	-0.457184	-1.249069	0.634021
N	-0.861523	-2.1814	1.225204
N	-0.477533	1.173276	0.711149
H	-1.36515	0.991695	1.161273
H	0.201347	1.417379	1.42032
Br	3.492811	0.0	0.0
