14

C	-0.316093	-0.094872	-1.514156
C	0.0	0.0	0.0
Br	-0.253131	1.830368	-2.310125
H	1.09711	0.0	0.0
H	-1.354475	-0.344385	-1.738942
N	0.578266	-0.980784	-2.095219
H	0.462985	-1.115797	-3.088341
H	1.547543	-0.799996	-1.833318
C	-0.48886	-1.253755	0.590133
N	-0.927602	-2.229777	1.074515
N	-0.489934	1.12266	0.76963
H	-1.410584	1.400586	0.451745
H	0.139431	1.899162	0.615571
Br	3.48394	0.0	0.0
