14

C	-0.437333	0.046288	-1.452163
C	0.0	0.0	0.0
Br	-2.57221	-0.123844	-1.437002
H	1.095903	0.0	0.0
H	-0.197088	-0.857731	-2.006904
N	-0.005701	1.199662	-2.053283
H	-0.12469	2.006868	-1.457135
H	-0.285386	1.334209	-3.010522
C	-0.447842	-1.226006	0.672771
N	-0.782357	-2.185643	1.262603
N	-0.404093	1.231385	0.671094
H	0.250078	1.41929	1.421349
H	-1.339928	1.143172	1.047931
Br	3.447757	0.0	0.0
