14

C	-0.295013	0.095415	-1.499253
C	0.0	0.0	0.0
Br	-2.260622	0.185075	-1.78787
H	1.093834	0.0	0.0
H	0.014866	-0.824651	-1.996733
N	0.33502	1.223958	-2.111292
H	0.206783	2.005636	-1.473974
H	1.334233	1.022756	-2.127361
C	-0.504716	-1.239378	0.59765
N	-0.943211	-2.206375	1.101834
N	-0.422779	1.212271	0.6861
H	-1.379976	1.134793	1.005764
H	0.184758	1.366791	1.480957
Br	3.441908	0.0	0.0
