14

C	-0.388217	-0.063849	-1.478316
C	0.0	0.0	0.0
Br	-0.140763	1.813997	-2.291825
H	1.102975	0.0	0.0
H	-1.455955	-0.206077	-1.631187
N	0.387175	-1.043461	-2.105362
H	0.216141	-1.117005	-3.09794
H	1.379608	-0.924653	-1.907571
C	-0.467502	-1.24976	0.611659
N	-0.872536	-2.216664	1.140978
N	-0.614368	1.120968	0.716155
H	-0.156833	1.963972	0.384145
H	-0.354074	1.027578	1.693225
Br	3.505398	0.0	0.0
