19

C	-0.295895	0.104362	-1.503093
C	0.0	0.0	0.0
Br	0.117204	-1.738912	-2.366812
H	1.094414	0.0	0.0
N	-1.646147	0.452597	-1.802175
H	-2.27782	-0.254004	-1.44308
H	-1.785274	0.527112	-2.802862
C	0.715161	1.039424	-2.148331
H	1.69901	0.780076	-1.734085
H	0.69928	0.964347	-3.238617
H	0.467713	2.067022	-1.863671
C	-0.663934	-1.13797	0.747444
H	-1.761101	-1.066699	0.716955
H	-0.359673	-2.113818	0.367547
H	-0.368054	-1.060426	1.795737
N	-0.364466	1.286728	0.636155
H	-1.065207	1.766082	0.083357
H	0.478987	1.849064	0.646679
F	2.729148	0.0	0.0
