19

C	-0.199703	-0.059532	-1.524573
C	0.0	0.0	0.0
Br	-0.129983	1.89004	-2.229199
H	1.10428	0.0	0.0
N	0.914117	-0.72376	-2.10935
H	1.748671	-0.596342	-1.504405
H	0.710286	-1.698443	-2.288025
C	-1.539234	-0.56314	-2.02147
H	-1.612481	-0.463541	-3.105953
H	-2.344592	0.002662	-1.547897
H	-1.649223	-1.622077	-1.754315
C	-0.439261	-1.323747	0.616942
H	-1.529838	-1.420207	0.655165
H	-0.009507	-2.169876	0.075416
H	-0.054357	-1.375724	1.640797
N	-0.711418	1.084646	0.6839
H	-0.277247	1.952741	0.38944
H	-0.491688	0.990216	1.672109
F	2.759067	0.0	0.0
