19

C	-0.041587	0.011736	-1.523707
C	0.0	0.0	0.0
Br	-1.950044	0.186999	-2.195986
H	1.106419	0.0	0.0
N	0.711335	1.140179	-2.030639
H	1.64425	0.961002	-1.62678
H	0.364586	1.941259	-1.505781
C	0.557394	-1.254078	-2.103139
H	-0.043279	-2.139027	-1.892268
H	1.542462	-1.3369	-1.627503
H	0.669719	-1.139331	-3.182274
C	-0.597872	-1.208927	0.692167
H	-0.418162	-1.13076	1.770124
H	-0.142078	-2.142481	0.354637
H	-1.682311	-1.26881	0.526817
N	-0.465506	1.280511	0.528138
H	0.064773	1.487644	1.365986
H	-1.447172	1.217217	0.778513
F	2.722136	0.0	0.0
