16

C	0.0	0.0	0.0
C	-0.250047	0.098023	-1.605749
Cl	1.772879	0.0	0.0
H	0.543234	-0.541205	-2.005017
C	-0.499084	1.101748	0.801988
N	-0.672297	2.038243	1.491396
N	-0.427971	-1.33082	0.573421
O	-0.390292	-2.279243	-0.203711
O	-0.671163	-1.390241	1.767265
N	-0.015272	1.512494	-1.903713
H	0.935877	1.667177	-2.20581
H	-0.644202	1.730151	-2.664807
N	-1.485582	-0.312444	-2.180527
H	-2.196645	-0.086741	-1.430699
H	-1.470191	-1.324485	-2.225324
F	-2.507454	0.0	0.0
