16

C	0.0	0.0	0.0
C	-0.408243	-0.45177	-1.493057
Cl	1.765441	0.0	0.0
H	0.528174	-0.820428	-1.92428
C	-0.469306	1.310058	0.432168
N	-0.618924	2.417374	0.799954
N	-0.380082	-1.030159	1.0603
O	-0.218864	-2.20488	0.750592
O	-0.703713	-0.620219	2.162447
N	-0.757717	0.802558	-2.135979
H	-0.952761	0.567453	-3.103626
H	-1.652978	1.045451	-1.705275
N	-1.397059	-1.469282	-1.700758
H	-1.055883	-2.351721	-1.349114
H	-2.191468	-1.147	-1.123592
F	-2.511576	0.0	0.0
