16

C	0.0	0.0	0.0
C	-0.515176	-0.235743	-1.471082
Cl	1.76402	0.0	0.0
H	-1.275966	-1.001229	-1.357293
C	-0.451702	1.239766	0.622533
N	-0.593582	2.284591	1.141433
N	-0.402211	-1.169151	0.896844
O	-0.51485	-0.936274	2.091729
O	-0.464522	-2.271097	0.371055
N	0.524839	-0.739094	-2.345475
H	1.027943	0.046742	-2.744681
H	0.082972	-1.254029	-3.0958
N	-1.077728	1.030928	-1.926772
H	-1.405847	0.875463	-2.876447
H	-1.913386	1.078729	-1.323092
F	-2.476446	0.0	0.0
