11

C	-0.10803	0.056726	0.001137
C	-0.483349	-0.24151	-1.451585
Cl	1.623523	-0.310732	0.325528
H	-1.573293	-0.130079	-1.499437
H	-0.730369	-0.555351	0.657749
H	0.008623	0.464936	-2.125819
C	-0.339915	1.468374	0.291449
N	-0.458516	2.617364	0.501903
C	-0.127964	-1.599398	-1.852263
N	0.18567	-2.667838	-2.222295
Br	-3.339399	-0.674881	0.404425
