11

C	-0.190768	0.211931	0.040156
C	-0.64011	0.346034	-1.411374
Cl	1.428159	-0.55031	0.137098
H	-1.674294	0.700141	-1.404689
H	-0.91532	-0.472605	0.5046
H	-0.676693	-0.657455	-1.8395
C	-0.159537	1.49422	0.732593
N	-0.149884	2.531809	1.283208
C	0.213336	1.226804	-2.204968
N	0.890806	1.93249	-2.853799
Br	-2.948433	-1.724254	-0.041132
