17

C	-0.332491	-0.079596	-1.488849
C	0.0	0.0	0.0
Br	-0.056903	1.724819	-2.30543
H	1.094302	0.0	0.0
H	-0.316249	-0.980374	0.395886
C	0.678234	-1.01271	-2.132486
H	0.612757	-0.985378	-3.220147
H	0.465574	-2.035044	-1.788911
H	1.667627	-0.733349	-1.750105
N	-1.700267	-0.438585	-1.865242
H	-1.864977	-1.368149	-1.480648
H	-2.33578	0.193181	-1.384061
C	-0.634583	1.111128	0.814468
H	-0.431783	0.948142	1.876376
H	-1.724277	1.173836	0.692576
H	-0.208304	2.076901	0.543391
F	2.752961	0.0	0.0
