15

C	-0.527054	-0.092056	-1.441464
C	0.0	0.0	0.0
Br	-0.072331	1.58887	-2.363199
H	1.092966	0.0	0.0
H	-0.298396	-0.932956	0.498963
C	0.185772	-1.229019	-2.148695
H	-0.12622	-1.273018	-3.192651
H	-0.079011	-2.174554	-1.659173
H	1.266562	-1.095829	-2.073153
N	-1.965551	-0.244265	-1.565279
H	-2.223688	-1.122499	-1.123557
H	-2.429658	0.505093	-1.061159
C	-0.581761	1.106085	0.745769
N	-1.118146	1.981993	1.315611
Br	3.529662	0.0	0.0
