15

C	-0.281114	-0.017232	-1.509272
C	0.0	0.0	0.0
Br	-2.228481	-0.31651	-1.804684
H	1.096709	0.0	0.0
H	-0.341731	-0.931764	0.459289
C	0.117589	1.294479	-2.153862
H	-0.029007	1.229751	-3.232793
H	1.179229	1.46087	-1.936998
H	-0.459087	2.128035	-1.751087
N	0.420521	-1.099442	-2.162285
H	1.418104	-0.927435	-2.016212
H	0.206216	-1.971741	-1.688572
C	-0.554574	1.137044	0.71524
N	-1.003453	2.053907	1.296241
Br	3.484987	0.0	0.0
