15

C	-0.293609	-0.051891	-1.497234
C	0.0	0.0	0.0
Br	-2.256119	-0.331432	-1.799744
H	1.097232	0.0	0.0
H	-0.343146	-0.921266	0.474804
C	0.080925	1.252275	-2.183944
H	-0.080364	1.169362	-3.261681
H	1.144929	1.425405	-1.98929
H	-0.498663	2.096351	-1.806033
N	0.391541	-1.21681	-1.995854
H	1.356076	-1.17967	-1.660134
H	0.405312	-1.20047	-3.009378
C	-0.543716	1.162846	0.678287
N	-0.996452	2.100366	1.221568
Br	3.482414	0.0	0.0
