15

C	-0.387114	0.073865	-1.483732
C	0.0	0.0	0.0
Br	-0.173152	-1.895148	-2.165816
H	1.090846	0.0	0.0
H	-0.371496	-0.908822	0.472605
C	-1.839863	0.394098	-1.77048
H	-2.05206	1.404076	-1.411402
H	-2.037319	0.345775	-2.843791
H	-2.49806	-0.315883	-1.269513
N	0.490456	0.952714	-2.11803
H	0.373693	0.99147	-3.121298
H	1.464663	0.799177	-1.856391
C	-0.500486	1.170972	0.714133
N	-0.949892	2.095748	1.282202
Br	3.504843	0.0	0.0
