15

C	-0.506997	-0.064967	-1.439294
C	0.0	0.0	0.0
Br	0.006923	1.685942	-2.337629
H	1.091608	0.0	0.0
H	-0.311298	-0.940118	0.472703
C	0.232766	-1.152139	-2.193868
H	-0.05944	-1.162339	-3.247036
H	1.309474	-0.992284	-2.111653
H	-0.024361	-2.116488	-1.744897
N	-1.917123	-0.260059	-1.477588
H	-2.247101	-0.26517	-2.435355
H	-2.394112	0.484553	-0.980726
C	-0.579147	1.099182	0.758826
N	-1.095698	1.984318	1.332687
Br	3.533994	0.0	0.0
