14

C	-0.573476	-0.057483	-1.40348
C	0.0	0.0	0.0
F	0.07614	-1.087877	-2.096549
H	1.090991	0.0	0.0
H	-0.294509	-0.918867	0.523287
N	-1.988102	-0.372043	-1.37536
H	-2.118595	-1.231777	-0.853779
H	-2.297066	-0.55338	-2.325203
N	-0.306753	1.140151	-2.14316
H	-0.64341	1.932362	-1.611487
H	-0.803748	1.121677	-3.024573
C	-0.541811	1.13017	0.72702
N	-0.962882	2.06425	1.304262
F	2.561923	0.0	0.0
