14

C	-0.177473	-0.115551	-1.521999
C	0.0	0.0	0.0
F	-1.34717	-0.891964	-1.801039
H	1.092157	0.0	0.0
H	-0.341734	-0.931635	0.458845
N	-0.262469	1.157131	-2.133725
H	-0.282506	1.029706	-3.136502
H	-1.071649	1.670798	-1.81051
N	0.925769	-0.830201	-2.114967
H	1.768139	-0.523576	-1.59209
H	0.800422	-1.808805	-1.879437
C	-0.647079	1.136214	0.612186
N	-1.17087	2.073238	1.092687
F	2.650464	0.0	0.0
