14

C	-0.142314	-0.126343	-1.52896
C	0.0	0.0	0.0
F	-1.310759	-0.860614	-1.865399
H	1.092215	0.0	0.0
H	-0.408504	0.933716	0.391368
N	-0.194618	1.173158	-2.103328
H	-0.097532	1.071698	-3.106388
H	-1.071867	1.622445	-1.876014
N	0.969495	-0.83016	-2.116605
H	0.838217	-1.814474	-1.907452
H	1.797524	-0.535217	-1.565262
C	-0.524317	-1.142426	0.718439
N	-0.938312	-2.066103	1.316088
F	2.656156	0.0	0.0
