14

C	-0.027575	-0.059375	-1.530362
C	0.0	0.0	0.0
F	-1.318184	-0.149656	-2.048081
H	1.094414	0.0	0.0
H	-0.405506	-0.91147	0.440302
N	0.574148	1.118712	-2.127008
H	1.499711	1.166891	-1.694981
H	0.057048	1.943459	-1.835776
N	0.71366	-1.238167	-1.884506
H	1.594274	-1.153675	-1.362055
H	0.937881	-1.152381	-2.870628
C	-0.601393	1.19294	0.544523
N	-1.0892	2.175168	0.968932
F	2.646461	0.0	0.0
