14

C	-0.18931	-0.131088	-1.513055
C	0.0	0.0	0.0
F	-1.394682	-0.832307	-1.823191
H	1.091417	0.0	0.0
H	-0.390066	0.946538	0.374932
N	-0.30604	1.18716	-2.090472
H	-1.20376	1.570967	-1.824824
H	-0.300484	1.102238	-3.099277
N	0.905437	-0.887321	-2.005167
H	1.751395	-0.619079	-1.468291
H	1.037458	-0.763791	-3.000808
C	-0.54686	-1.110375	0.750412
N	-0.998907	-1.977426	1.400726
F	2.656587	0.0	0.0
