14

C	-0.171912	-0.072885	-1.522584
C	0.0	0.0	0.0
F	-0.094386	1.319925	-1.94415
H	1.093271	0.0	0.0
H	-0.403088	0.936617	0.385505
N	0.919255	-0.795768	-2.054891
H	1.762243	-0.568258	-1.49316
H	1.062353	-0.546448	-3.025752
N	-1.429085	-0.579926	-1.982983
H	-2.145177	0.110723	-1.793421
H	-1.379545	-0.72635	-2.984345
C	-0.546239	-1.139837	0.706236
N	-0.971703	-2.044207	1.324318
F	2.661435	0.0	0.0
