14
Coordinates from ORCA-job run
  C   1.24596679186575      0.18154597407960      0.01595194227509
  C   -0.26061794398022      0.43663695489410     -0.13604267975521
  H   1.77302248333914      1.13715303909661     -0.03278422473322
  H   -0.41766131518175      0.90950592429301     -1.11165542222860
  H   1.44790367493796     -0.25222760338121      1.00213352107131
  C   1.76582217631952     -0.72042297586140     -1.00926538342362
  N   2.15310909108617     -1.44310436196845     -1.84881968485055
  N   -0.62524293448624      1.42614931254089      0.87775139542061
  H   -1.55896168530686      1.77417813535267      0.69319940094647
  H   -0.65374841972750      0.97926215058260      1.78889210099365
  C   -1.06133369881719     -0.86176251920433     -0.07728894309187
  H   -0.77825438441437     -1.55467772870092     -0.87358477387297
  H   -2.12958701828197     -0.65148329781587     -0.17332236975813
  H   -0.90041681735244     -1.36175300390732      0.88383512100705
