14
Coordinates from ORCA-job run
  C   1.05298800302538     -0.41166517901518     -0.42354213815950
  C   -0.28029454380675      0.28645644116196     -0.12658072938695
  H   1.29274032407257     -1.10200578670766      0.39358360627283
  H   -0.45064297183238      1.02965650905837     -0.91311918694115
  H   0.97813235127448     -1.00989223301155     -1.33674022525414
  C   2.15168735095099      0.54049654548691     -0.57132680788621
  N   3.02215084422307      1.31316352840422     -0.71640358155396
  N   -0.14017083783785      1.02082781249544      1.12553483749450
  H   -0.14899454104761      0.37388690236048      1.90722554457725
  H   -0.91899843015956      1.65623210984196      1.24952164037929
  C   -1.42063491662636     -0.73120132786389     -0.14857651372486
  H   -1.25589739483944     -1.50263106606111      0.61093928143615
  H   -1.51116975010640     -1.22392224663987     -1.12102468841726
  H   -2.37189548729014     -0.24040200951007      0.07150896116400
