14
Coordinates from ORCA-job run
  C   1.22829791068123      0.04478192964107     -0.06195358942269
  C   -0.26205007178694      0.39492000253161      0.05275890236968
  H   1.84169180173083      0.92680427516577      0.14926574575614
  H   -0.49854855488420      1.12538697468640     -0.73706704323843
  H   1.46988486937849     -0.70669041199323      0.69523357594577
  C   1.57511039630943     -0.45787760688099     -1.38940989640503
  N   1.82039389311552     -0.85794446067948     -2.46493814399591
  N   -0.46910708836019      0.92146368021908      1.40105479746517
  H   -1.46124600261509      1.03731920885450      1.57226373053593
  H   -0.04343293739403      1.83774706340229      1.48779106588429
  C   -1.13194896121612     -0.83531424424342     -0.14316953201634
  H   -2.19100715491880     -0.57144693924588     -0.07402040458349
  H   -0.91158290177538     -1.57035877674277      0.63502776580240
  H   -0.96445519826475     -1.28879069471496     -1.12183697409750
