17

C	-0.39803	0.022121	-1.494133
C	0.0	0.0	0.0
F	-0.178286	1.374734	-1.877175
H	1.094794	0.0	0.0
N	0.451763	-0.86998	-2.173572
H	1.427104	-0.730662	-1.909467
H	0.334535	-0.791166	-3.174495
C	-1.862213	-0.250639	-1.76672
H	-2.054778	-0.095258	-2.831986
H	-2.115715	-1.278676	-1.507076
H	-2.490644	0.435528	-1.196516
N	-0.472676	-1.284565	0.616451
O	0.249675	-2.264642	0.479666
O	-1.572612	-1.273547	1.176804
C	-0.557618	1.125412	0.730346
N	-1.012251	2.04185	1.305652
Br	3.406015	0.0	0.0
