17

C	-0.468655	-0.068599	-1.46869
C	0.0	0.0	0.0
F	-1.835652	-0.477908	-1.435338
H	1.090639	0.0	0.0
N	-0.335748	1.222901	-2.029149
H	-0.510015	1.205095	-3.024129
H	-0.939841	1.898191	-1.579468
C	0.301913	-1.082777	-2.282911
H	1.371846	-0.907041	-2.156691
H	0.063748	-2.091349	-1.954487
H	0.021087	-0.97705	-3.334642
N	-0.457119	-1.221622	0.743336
O	0.042855	-2.285127	0.393477
O	-1.290372	-1.08562	1.636232
C	-0.525321	1.183981	0.666225
N	-0.922764	2.181108	1.142638
Br	3.388169	0.0	0.0
