17

C	-0.465409	0.035815	-1.469938
C	0.0	0.0	0.0
F	-0.176061	-1.264271	-1.955726
H	1.090781	0.0	0.0
N	-1.848214	0.32572	-1.588033
H	-2.398784	-0.319959	-1.035362
H	-2.125836	0.273573	-2.559924
C	0.387582	1.004165	-2.255365
H	0.112909	0.942903	-3.312375
H	0.218258	2.022581	-1.902187
H	1.441152	0.74806	-2.131147
N	-0.504708	-1.2645	0.639444
O	0.312557	-2.122474	0.934963
O	-1.726818	-1.352631	0.793687
C	-0.505426	1.140028	0.751109
N	-0.886817	2.069064	1.359498
Br	3.45325	0.0	0.0
