17

C	-0.499103	0.016962	-1.478542
C	0.0	0.0	0.0
F	-0.226933	-1.265771	-1.942116
H	1.090762	0.0	0.0
N	-1.903177	0.2365	-1.665637
H	-2.429615	-0.29048	-0.97917
H	-2.115852	1.216785	-1.536393
C	0.330646	1.004968	-2.264895
H	0.043499	0.93274	-3.315506
H	1.389602	0.769607	-2.137776
H	0.156788	2.025456	-1.913343
N	-0.522383	-1.237102	0.662818
O	-1.730418	-1.249526	0.925586
O	0.255037	-2.160367	0.849774
C	-0.509218	1.170561	0.696074
N	-0.914533	2.154446	1.193691
Br	3.436984	0.0	0.0
