17

C	0.0	0.0	0.0
C	-0.569474	0.157687	-1.397252
Cl	1.771481	0.0	0.0
H	-0.440171	1.214609	-1.652142
H	-1.647954	-0.008491	-1.284735
C	-0.535667	1.047728	0.95027
H	-0.132452	0.89745	1.95033
H	-1.627276	0.954276	0.956055
H	-0.25497	2.037257	0.58434
N	-0.378931	-1.371879	0.589528
O	-0.960417	-2.172037	-0.131264
O	-0.052622	-1.569172	1.756732
C	0.025545	-0.702906	-2.504868
H	1.063676	-0.43386	-2.713341
H	-0.020539	-1.761012	-2.254169
H	-0.553734	-0.55138	-3.41993
Cl	-3.874185	0.0	0.0
