17

C	0.0	0.0	0.0
C	-0.425115	0.737766	-1.262277
Cl	1.784169	0.0	0.0
H	0.061958	1.718133	-1.203545
H	0.019261	0.219396	-2.113342
C	-0.574069	0.55868	1.276363
H	-0.34976	1.625739	1.32851
H	-1.660126	0.42331	1.268888
H	-0.154847	0.055036	2.145483
N	-0.362519	-1.48867	-0.095402
O	-0.348581	-2.127478	0.950906
O	-0.584293	-1.947488	-1.209372
C	-1.925769	0.902012	-1.44381
H	-2.119697	1.379414	-2.408174
H	-2.469458	-0.039691	-1.423974
H	-2.38156	1.515477	-0.669784
Cl	-4.828612	0.0	0.0
