16

C	0.0	0.0	0.0
C	-0.296014	0.050519	-1.551486
F	1.364014	0.0	0.0
H	-0.012059	1.065838	-1.845529
N	-0.313168	1.38572	0.662401
O	-0.375775	2.390671	-0.037344
O	-0.401329	1.37164	1.887538
N	-0.612656	-1.048552	0.651884
H	-0.414421	-0.99132	1.645109
H	-1.643122	-0.847448	0.495512
N	-1.594735	-0.263772	-2.100494
H	-1.699774	-1.272861	-2.06016
H	-2.301477	0.064412	-1.40316
C	0.680552	-0.856484	-2.184714
N	1.402422	-1.583963	-2.758294
F	-2.931391	0.0	0.0
