16

C	0.0	0.0	0.0
C	-0.548205	-0.057148	-1.423194
F	1.368217	0.0	0.0
H	-1.625451	0.165243	-1.251224
N	-0.277379	1.445234	0.563074
O	-0.770609	2.307844	-0.152774
O	0.045914	1.601678	1.741156
N	-0.555051	-0.963772	0.818805
H	-0.3329	-0.725301	1.779184
H	-1.591176	-0.83031	0.637732
N	-0.417697	-1.411215	-1.95347
H	0.551014	-1.596743	-2.190298
H	-0.967281	-1.475255	-2.800814
C	0.124364	0.922952	-2.291233
N	0.693213	1.594327	-3.07114
F	-2.807258	0.0	0.0
