16

C	0.0	0.0	0.0
C	-0.568605	0.218537	-1.43591
F	1.347068	0.0	0.0
H	-1.300124	1.017967	-1.343919
N	-0.250587	1.331425	0.815337
O	-0.268973	2.39412	0.203029
O	-0.307746	1.217522	2.036459
N	-0.554107	-1.099241	0.627542
H	-0.27442	-1.090783	1.602096
H	-1.589067	-0.888509	0.545544
N	-1.288709	-0.906689	-2.005936
H	-0.79892	-1.760349	-1.760602
H	-2.15563	-0.877505	-1.454804
C	0.505364	0.663161	-2.337666
N	1.332988	1.019556	-3.090608
F	-2.802687	0.0	0.0
