16

C	0.0	0.0	0.0
C	-0.551148	-0.029461	-1.458202
F	1.381952	0.0	0.0
H	-1.272748	0.782754	-1.520401
N	-0.231374	1.447079	0.573592
O	-0.333631	1.544146	1.793011
O	-0.193822	2.389514	-0.211049
N	-0.546834	-0.979265	0.800384
H	-0.266636	-0.813036	1.760566
H	-1.583701	-0.784428	0.682678
N	-1.277219	-1.233081	-1.827962
H	-2.143773	-1.104847	-1.290179
H	-0.789006	-2.02959	-1.434611
C	0.539832	0.231555	-2.410987
N	1.38767	0.412879	-3.203414
F	-2.785531	0.0	0.0
