19

C	-0.501852	-0.014216	-1.442139
C	0.0	0.0	0.0
F	0.309444	0.70298	-2.268077
H	1.091323	0.0	0.0
N	-0.38258	-1.463229	-1.940251
O	-1.344883	-2.201942	-1.732803
O	0.658554	-1.789381	-2.495062
C	-1.93201	0.423865	-1.670866
H	-1.994388	1.485391	-1.445905
H	-2.199135	0.259171	-2.717656
H	-2.615083	-0.138035	-1.037104
C	-0.362225	-1.204718	0.842201
H	-1.438202	-1.376209	0.926615
H	0.054679	-1.043192	1.834555
H	0.117248	-2.091727	0.425781
N	-0.368285	1.239218	0.640693
O	-0.535919	1.250894	1.876174
O	-0.334234	2.278713	-0.047584
H	2.465853	0.0	0.0
