19

C	-0.465121	0.014211	-1.456082
C	0.0	0.0	0.0
F	0.170595	1.003207	-2.144227
H	1.091366	0.0	0.0
N	0.009786	-1.298785	-2.074365
O	1.093158	-1.30073	-2.638078
O	-0.728326	-2.273348	-1.919181
C	-1.950067	0.153359	-1.699087
H	-2.511022	-0.618954	-1.179046
H	-2.269405	1.134566	-1.34539
H	-2.149037	0.081374	-2.771505
C	-0.486642	-1.175829	0.817394
H	-0.177417	-1.012708	1.851402
H	-1.567545	-1.315986	0.795862
H	0.009762	-2.080579	0.466008
N	-0.456147	1.272897	0.59293
O	-1.488973	1.269579	1.285486
O	0.224259	2.275698	0.366506
H	2.683149	0.0	0.0
