19

C	-0.490716	-0.022875	-1.444902
C	0.0	0.0	0.0
F	0.327944	0.687629	-2.270028
H	1.094355	0.0	0.0
N	-0.366598	-1.476646	-1.928851
O	0.675523	-1.805523	-2.479294
O	-1.327529	-2.216965	-1.714718
C	-1.918849	0.414644	-1.689152
H	-1.981687	1.47739	-1.468005
H	-2.175557	0.246577	-2.738029
H	-2.608357	-0.144807	-1.059825
C	-0.357903	-1.203553	0.845113
H	0.049953	-1.033577	1.839954
H	0.134179	-2.087679	0.436265
H	-1.432856	-1.386517	0.923386
N	-0.367189	1.240867	0.632297
O	-0.330391	2.279338	-0.06096
O	-0.527189	1.259483	1.869346
H	2.451977	0.0	0.0
