19

C	-0.507562	0.031406	-1.438661
C	0.0	0.0	0.0
F	0.302557	0.769299	-2.247399
H	1.091319	0.0	0.0
N	-0.394667	-1.403184	-1.980293
O	0.644689	-1.71824	-2.544098
O	-1.360616	-2.142879	-1.795786
C	-1.937233	0.483242	-1.644366
H	-1.99088	1.53899	-1.388046
H	-2.619106	-0.092291	-1.020712
H	-2.214025	0.34979	-2.693274
C	-0.357939	-1.232005	0.803875
H	0.067889	-1.104523	1.797094
H	-1.433346	-1.405914	0.891456
H	0.117739	-2.104565	0.353716
N	-0.365483	1.217639	0.682114
O	-0.325842	2.281771	0.03087
O	-0.528738	1.185207	1.918423
H	2.463628	0.0	0.0
