19

C	-0.378366	-0.00705	-1.469271
C	0.0	0.0	0.0
F	0.119566	-1.167338	-1.998669
H	1.092609	0.0	0.0
N	-1.903484	-0.140455	-1.585406
O	-2.547462	0.823564	-1.178097
O	-2.378572	-1.176863	-2.03876
C	0.084171	1.134577	-2.334814
H	-0.433918	2.055145	-2.086595
H	1.154347	1.257808	-2.153815
H	-0.094392	0.85916	-3.378951
C	-0.50197	-1.2217	0.733962
H	-1.582784	-1.201703	0.894611
H	-0.230343	-2.110135	0.162829
H	-0.009039	-1.274759	1.705206
N	-0.368476	1.236903	0.689915
O	0.008527	2.306625	0.194997
O	-0.916581	1.151915	1.800843
H	2.579368	0.0	0.0
