19

C	-0.534636	-0.138377	-1.406325
C	0.0	0.0	0.0
F	-1.916335	-0.208568	-1.392737
H	1.091343	0.0	0.0
N	-0.194697	1.047884	-2.307182
O	0.991805	1.171982	-2.580029
O	-1.118358	1.724468	-2.743082
C	0.021685	-1.361246	-2.103222
H	-0.212251	-1.317269	-3.169612
H	-0.443378	-2.252695	-1.68444
H	1.103168	-1.393921	-1.952584
C	-0.373824	-1.188509	0.8647
H	0.03146	-1.023414	1.8615
H	-1.452525	-1.343816	0.934526
H	0.110174	-2.081783	0.466686
N	-0.421886	1.258404	0.616881
O	-0.296131	2.289091	-0.059676
O	-0.76889	1.257273	1.806718
H	2.568008	0.0	0.0
