19

C	-0.506385	-0.029466	-1.439055
C	0.0	0.0	0.0
F	0.291629	0.693421	-2.272474
H	1.0913	0.0	0.0
N	-0.369016	-1.479772	-1.930576
O	-1.315546	-2.23356	-1.704697
O	0.666673	-1.791173	-2.503765
C	-1.944141	0.38699	-1.664288
H	-2.214884	0.210807	-2.708065
H	-2.615827	-0.179394	-1.022366
H	-2.019395	1.449469	-1.446492
C	-0.354742	-1.198698	0.854061
H	0.062479	-1.025431	1.844195
H	-1.429675	-1.377138	0.94128
H	0.130331	-2.08662	0.445435
N	-0.366356	1.244425	0.632566
O	-0.493763	1.268588	1.872535
O	-0.361251	2.277514	-0.068052
H	2.462799	0.0	0.0
