19

C	-0.549935	-0.09313	-1.402129
C	0.0	0.0	0.0
F	-1.931597	-0.032957	-1.384261
H	1.09135	0.0	0.0
N	-0.105608	1.061802	-2.299673
O	1.070454	1.036006	-2.635654
O	-0.948612	1.873219	-2.659751
C	-0.115875	-1.363017	-2.095666
H	-0.654135	-2.204768	-1.658869
H	0.959676	-1.492999	-1.963074
H	-0.359049	-1.30759	-3.158687
C	-0.403258	-1.184017	0.853355
H	-1.483349	-1.339917	0.890825
H	-0.034308	-1.015212	1.86382
H	0.096131	-2.077181	0.473965
N	-0.388692	1.268535	0.631328
O	-0.856418	1.259013	1.777412
O	-0.117693	2.300675	0.005741
H	2.585385	0.0	0.0
