19

C	-0.374647	-0.008817	-1.470175
C	0.0	0.0	0.0
F	0.112	-1.176407	-1.995404
H	1.09259	0.0	0.0
N	-1.900233	-0.124672	-1.589492
O	-2.386704	-1.159291	-2.034514
O	-2.533336	0.850545	-1.191929
C	0.104336	1.126816	-2.333241
H	-0.07335	0.853075	-3.376994
H	-0.403432	2.053246	-2.087665
H	1.174265	1.237589	-2.146846
C	-0.505823	-1.219783	0.734035
H	-1.588755	-1.205458	0.87977
H	-0.026334	-1.263178	1.712248
H	-0.220518	-2.109998	0.172639
N	-0.371581	1.23983	0.684462
O	-0.946119	1.160747	1.779785
O	0.022348	2.305914	0.197945
H	2.58179	0.0	0.0
