15

C	0.0	0.0	0.0
C	-0.392617	0.087097	-1.50094
F	1.370218	0.0	0.0
H	-1.493334	0.141128	-1.445058
C	-0.491458	1.166549	0.759878
N	-0.518484	2.158044	1.40005
C	-0.55326	-1.229245	0.600522
N	-0.527654	-2.302415	1.103183
C	0.072127	-1.145387	-2.270404
H	-0.424949	-2.032078	-1.870738
H	1.153351	-1.27925	-2.193775
H	-0.193842	-1.044301	-3.325065
C	0.13473	1.312603	-2.089023
N	0.514627	2.291515	-2.618567
H	-2.387482	0.0	0.0
