15

C	0.0	0.0	0.0
C	-0.316971	0.056169	-1.534635
F	1.376578	0.0	0.0
H	-1.3905	0.234308	-1.612906
C	-0.456493	1.232961	0.674867
N	-0.490344	2.261921	1.251634
C	-0.706308	-1.143379	0.606159
N	-0.646291	-2.185805	1.18562
C	0.055295	-1.267956	-2.201771
H	-0.110623	-1.204893	-3.280528
H	-0.571786	-2.062452	-1.793903
H	1.102891	-1.514419	-2.020321
C	0.40553	1.167121	-2.149824
N	0.972974	2.048748	-2.680963
H	-2.211511	0.0	0.0
