13
Coordinates from ORCA-job run
  C   1.09417339446545     -0.16273394573690     -0.10819245942684
  C   -0.36225040223974      0.13809256765504      0.30293583135926
  Br  1.74912126518348     -1.77604155249079      0.77585490037053
  H   -0.38079497098550      0.28018041293816      1.38920608662887
  H   1.14306118636982     -0.36641035243867     -1.18085909969834
  C   1.98611071176426      0.94132613990357      0.22081062369646
  N   2.69073108894431      1.84150285356913      0.49266692659732
  C   -1.33764038258278     -0.97107781370938     -0.09881509872772
  H   -2.35601052463335     -0.67965743545567      0.16195759887100
  H   -1.09833986698864     -1.89846969713965      0.41993178179395
  H   -1.29654387952582     -1.14472239370357     -1.17643756683204
  C   -0.75241789129141      1.40205610496108     -0.33050582491644
  N   -1.07719972848008      2.39495511164763     -0.86755369971602
