13
Coordinates from ORCA-job run
  C   1.07177530365086     -0.26923543055799      0.46302393134128
  C   -0.44848448743291     -0.04097669380482      0.50981301667441
  Br  1.93884463481674      0.43145842437048      2.06066390456803
  H   -0.80744102179884     -0.48859689015039      1.44302117289991
  H   1.26592180108460     -1.34455456772528      0.46879291810626
  C   1.66985781247622      0.32228154478982     -0.72626670612839
  N   2.12744112890742      0.80950901529408     -1.69273520491083
  C   -1.13438402488432     -0.71155693645992     -0.68611919630645
  H   -0.90684339931425     -1.78012640648593     -0.70074472692531
  H   -2.21615304241562     -0.59109711160429     -0.61094642853722
  H   -0.80292140112694     -0.26519382681429     -1.62522975915033
  C   -0.75425867170035      1.39018482995939      0.54966824526824
  N   -1.00235463226260      2.53790404918914      0.54805883310039
