19

C	-0.460871	0.130172	-1.455735
C	0.0	0.0	0.0
Br	-0.017085	-1.662821	-2.35818
H	1.089863	0.0	0.0
N	-1.835793	0.439097	-1.588818
H	-2.097288	0.476101	-2.565698
H	-2.398156	-0.250413	-1.104822
C	0.415283	1.139411	-2.176766
H	0.206219	2.136616	-1.779561
H	1.46925	0.901595	-2.022052
H	0.188408	1.137053	-3.245896
N	-0.514808	-1.249451	0.633916
O	0.269642	-1.970911	1.234615
O	-1.734383	-1.450465	0.559646
C	-0.477211	1.15748	0.871557
H	-0.08138	2.094205	0.479184
H	-1.564863	1.213313	0.910295
H	-0.06956	1.023832	1.876614
Cl	3.412615	0.0	0.0
