19

C	-0.295786	0.027112	-1.503085
C	0.0	0.0	0.0
Br	-2.237198	0.379818	-1.859886
H	1.094308	0.0	0.0
N	0.437799	1.163561	-2.010635
H	0.388562	1.170859	-3.023741
H	1.415247	1.05135	-1.727443
C	0.035159	-1.284741	-2.199328
H	-0.09086	-1.157892	-3.277108
H	-0.59922	-2.10755	-1.8707
H	1.078089	-1.525528	-1.974852
N	-0.466676	-1.279082	0.607829
O	-1.564541	-1.288516	1.169428
O	0.263393	-2.263415	0.49836
C	-0.50694	1.185913	0.788137
H	-0.187239	2.092715	0.276474
H	-1.59139	1.175749	0.87778
H	-0.061399	1.169545	1.785245
Cl	3.348867	0.0	0.0
