19

C	-0.473164	-0.006767	-1.460555
C	0.0	0.0	0.0
Br	0.226542	1.766904	-2.271037
H	1.09115	0.0	0.0
N	0.104389	-1.119278	-2.094853
H	1.098883	-1.189846	-1.889982
H	-0.055783	-1.120494	-3.093421
C	-1.973144	0.06244	-1.67909
H	-2.386674	0.976092	-1.252258
H	-2.191277	0.061281	-2.749803
H	-2.446707	-0.802016	-1.210321
N	-0.436205	-1.317072	0.588808
O	0.376858	-2.233836	0.622908
O	-1.600557	-1.399256	0.998868
C	-0.51264	1.118292	0.882887
H	-0.164129	2.072308	0.489657
H	-1.599761	1.119742	0.963348
H	-0.086613	0.994208	1.881271
Cl	3.370557	0.0	0.0
