19

C	-0.479771	0.061215	-1.468622
C	0.0	0.0	0.0
Br	-0.112742	-1.716002	-2.27486
H	1.090721	0.0	0.0
N	-1.876268	0.339064	-1.699811
H	-2.43665	-0.208697	-1.056059
H	-2.045316	1.323829	-1.52348
C	0.386535	1.062631	-2.215945
H	0.144244	1.026356	-3.278928
H	0.181445	2.074419	-1.848205
H	1.443873	0.843655	-2.053912
N	-0.522722	-1.214432	0.686859
O	0.2675	-2.008646	1.180204
O	-1.75556	-1.330721	0.736966
C	-0.464271	1.201812	0.814547
H	-1.55217	1.276734	0.852293
H	-0.078621	1.10458	1.832136
H	-0.039159	2.115713	0.397737
Cl	3.410171	0.0	0.0
