14

C	0.0	0.0	0.0
C	-0.497882	0.15789	-1.425507
Cl	1.766304	0.0	0.0
H	-1.597605	0.210222	-1.384719
H	-0.069282	1.05408	-1.866006
N	-0.399342	1.263338	0.792173
O	-0.50297	1.134209	1.999762
O	-0.468954	2.30028	0.149421
C	-0.457363	-1.177471	0.728211
N	-0.644865	-2.181016	1.311197
N	-0.121009	-0.974213	-2.309806
O	0.244811	-2.036948	-1.815004
O	-0.243825	-0.75532	-3.513121
Cl	-3.270679	0.0	0.0
