14

C	0.0	0.0	0.0
C	-0.174106	0.076738	-1.540685
Cl	1.79545	0.0	0.0
H	0.436284	0.916256	-1.860856
H	0.242082	-0.855339	-1.918936
N	-0.376112	1.267134	0.753323
O	-0.369433	2.300103	0.101248
O	-0.506842	1.150983	1.961156
C	-0.468191	-1.194822	0.678588
N	-0.52419	-2.23798	1.222333
N	-1.442587	0.263416	-2.31962
O	-1.782096	1.418484	-2.543106
O	-1.907995	-0.742137	-2.845544
Cl	-2.907167	0.0	0.0
