14

C	0.0	0.0	0.0
C	-0.60301	-0.287772	-1.36903
Cl	1.795962	0.0	0.0
H	-0.357059	-1.316545	-1.637627
H	-1.6891	-0.145981	-1.264945
N	-0.399203	1.386507	0.512331
O	-0.48744	2.253256	-0.344056
O	-0.497288	1.516691	1.721922
C	-0.428083	-1.015802	0.956695
N	-0.600048	-1.902076	1.708773
N	-0.108194	0.562111	-2.495146
O	-0.941258	1.246405	-3.080889
O	1.077304	0.463519	-2.810072
Cl	-3.449058	0.0	0.0
