18

C	0.0	0.0	0.0
C	-0.246476	0.18164	-1.53688
Br	1.949052	0.0	0.0
H	0.290982	-0.673396	-1.95011
N	-0.560052	1.055181	0.877232
O	-0.564336	0.777588	2.096502
O	-0.568608	2.225424	0.442881
N	-0.260734	-1.347945	0.444862
H	-1.275664	-1.388363	0.529058
H	0.135904	-1.424221	1.376651
C	0.214169	1.46834	-2.210241
H	0.104818	1.345307	-3.292393
H	1.260632	1.663627	-1.988502
H	-0.388489	2.306573	-1.88043
N	-1.653839	-0.090078	-2.0419
O	-1.924934	-1.268815	-2.281158
O	-2.362892	0.862004	-2.358117
H	-2.074194	0.0	0.0
