15

C	-0.493558	0.057372	-1.428418
C	0.0	0.0	0.0
F	-0.274611	-1.142178	-2.107019
H	1.096967	0.0	0.0
H	-1.577055	0.240908	-1.459162
H	0.025336	0.844176	-1.983531
C	-0.509782	-1.246418	0.710045
H	-0.158887	-2.146718	0.20449
H	-1.607501	-1.268699	0.736548
H	-0.13973	-1.272515	1.738284
C	-0.450759	1.272902	0.713514
H	-0.092298	2.166295	0.193273
H	-0.036938	1.301128	1.724025
H	-1.544533	1.329196	0.78695
Cl	3.623985	0.0	0.0
