15

C	-0.387889	-1e-06	-1.456795
C	0.0	0.0	0.0
F	-1.788123	-1e-06	-1.617976
H	1.098871	0.0	0.0
H	-0.008714	0.890923	-1.96476
H	-0.008714	-0.890925	-1.964759
C	-0.493148	-1.261022	0.701988
H	-1.586329	-1.319597	0.689733
H	-0.092775	-2.156066	0.217197
H	-0.155363	-1.273388	1.741404
C	-0.493148	1.261023	0.701986
H	-0.092774	2.156066	0.217194
H	-0.155363	1.27339	1.741402
H	-1.586328	1.319598	0.689731
Cl	3.592831	0.0	0.0
