15

C	-0.304448	0.01138	-1.486444
C	0.0	0.0	0.0
Cl	-0.217347	-1.702098	-2.024923
H	1.088986	0.0	0.0
H	-0.413199	-0.838654	0.548852
N	-1.762983	0.43989	-1.738161
O	-2.598393	-0.051436	-0.98622
O	-1.99093	1.221386	-2.651807
N	0.568315	0.784543	-2.292267
H	0.371498	1.759094	-2.088961
H	1.509308	0.587405	-1.928767
N	-0.430106	1.219498	0.66222
O	-0.594495	1.173873	1.883897
O	-0.525913	2.256246	-0.013424
H	2.615079	0.0	0.0
