15

C	-0.646531	-0.000527	-1.356682
C	0.0	0.0	0.0
Cl	0.027848	1.4828	-2.229494
H	1.085927	0.0	0.0
H	-0.280624	0.916499	0.520597
N	-0.200811	-1.144095	-2.269441
O	-0.982428	-1.430675	-3.17393
O	0.897031	-1.630583	-2.083109
N	-2.049921	-0.021075	-1.315558
H	-2.392962	0.759992	-0.774041
H	-2.444143	-0.023469	-2.247094
N	-0.460742	-1.108264	0.814631
O	-0.532904	-0.907892	2.036187
O	-0.638675	-2.208411	0.275554
H	2.577763	0.0	0.0
