15

C	-0.247969	-0.249174	-1.467145
C	0.0	0.0	0.0
Cl	-1.947684	-0.825711	-1.864128
H	1.092364	0.0	0.0
H	-0.44799	0.918757	0.357922
N	-0.274312	1.181304	-2.166955
O	-0.817964	2.113409	-1.589623
O	0.235415	1.234678	-3.281874
N	0.714981	-1.068322	-2.009378
H	0.782776	-0.977459	-3.01251
H	1.614473	-0.909518	-1.525998
N	-0.456934	-1.088114	0.86187
O	-1.079307	-0.769333	1.883926
O	-0.141526	-2.241222	0.566834
H	2.644859	0.0	0.0
