15

C	-0.273468	-0.233357	-1.479777
C	0.0	0.0	0.0
Cl	-1.852295	-1.152099	-1.759129
H	1.090966	0.0	0.0
H	-0.402791	-0.819281	0.587965
N	-0.560688	1.111223	-2.254478
O	0.268477	1.426461	-3.101423
O	-1.579569	1.726449	-1.980265
N	0.799283	-0.934926	-1.982241
H	0.85543	-0.940474	-2.989332
H	1.687156	-0.663464	-1.513072
N	-0.465683	1.25341	0.578531
O	0.006882	2.294053	0.114417
O	-1.216221	1.197633	1.560715
H	2.650808	0.0	0.0
