15

C	-0.549646	0.238033	-1.385724
C	0.0	0.0	0.0
Cl	0.103613	1.639251	-2.221071
H	1.096866	0.0	0.0
H	-0.339578	-0.975848	0.34309
N	-0.072968	-1.04169	-2.191227
O	-0.604997	-2.081984	-1.805657
O	0.720164	-0.950941	-3.110333
N	-1.969989	0.303104	-1.399718
H	-2.324058	0.413483	-2.342574
H	-2.34607	-0.537887	-0.980228
N	-0.479428	0.964565	0.974948
O	-0.359227	2.167722	0.73067
O	-0.883606	0.51158	2.056654
H	2.594457	0.0	0.0
