15

C	-0.52036	-0.062642	-1.387367
C	0.0	0.0	0.0
Cl	-2.50586	0.071202	-1.31554
H	1.094838	0.0	0.0
H	-0.328147	0.899121	0.508029
N	-0.237689	1.236831	-2.132777
O	0.076784	2.219226	-1.472016
O	-0.358914	1.19321	-3.353616
N	-0.09172	-1.102826	-2.157606
H	-0.503454	-1.137221	-3.077327
H	-0.087854	-1.96959	-1.633708
N	-0.376734	-1.127722	0.807967
O	-0.551129	-0.924809	2.017204
O	-0.354307	-2.267963	0.30285
H	2.458561	0.0	0.0
