17

C	0.0	0.0	0.0
C	-0.505214	-0.228161	-1.428741
Br	1.957696	0.0	0.0
H	-1.601239	-0.196334	-1.320307
C	-0.427411	1.373721	0.505072
H	-1.520353	1.400792	0.497586
H	-0.030287	2.170471	-0.122515
H	-0.071151	1.503812	1.531482
N	-0.467974	-1.110001	0.791882
H	-0.241287	-0.9373	1.765264
H	-1.490006	-1.089209	0.714942
C	-0.130951	-1.566991	-1.922972
N	0.155042	-2.588922	-2.428488
N	-0.10031	0.838122	-2.335626
H	-0.698706	0.816721	-3.150673
H	0.853181	0.680465	-2.63845
Cl	-3.672769	0.0	0.0
