17

C	0.0	0.0	0.0
C	-0.322074	0.507947	-1.452458
Br	2.018454	0.0	0.0
H	0.296261	-0.101434	-2.124887
C	-0.560799	0.887456	1.08272
H	-1.65434	0.84422	1.00637
H	-0.215204	1.915064	0.980028
H	-0.260859	0.520462	2.068566
N	-0.499935	-1.312908	0.126116
H	0.03376	-2.011308	-0.370104
H	-0.68195	-1.590742	1.078218
C	0.139775	1.898795	-1.607297
N	0.472376	3.013616	-1.763955
N	-1.68715	0.40177	-1.890053
H	-1.964227	-0.572759	-1.854862
H	-2.348175	0.840476	-1.25125
Cl	-4.220746	0.0	0.0
