17

C	0.0	0.0	0.0
C	-0.162507	0.246048	-1.542707
Br	2.122932	0.0	0.0
H	0.642429	0.92612	-1.834903
C	-0.41186	1.188213	0.827708
H	-1.504397	1.244316	0.767133
H	0.03153	2.110601	0.44901
H	-0.110832	1.040898	1.865811
N	-0.506646	-1.203069	0.470899
H	-0.503781	-1.872423	-0.293613
H	-1.474368	-1.041671	0.763053
C	-1.364322	0.981367	-1.96966
N	-2.080833	1.732841	-2.520135
N	-0.052895	-1.032647	-2.248792
H	0.888881	-1.148023	-2.597278
H	-0.709217	-1.083606	-3.014738
Cl	-3.603165	0.0	0.0
