15

C	0.0	0.0	0.0
C	-0.458847	-0.114538	-1.456788
Br	1.976019	0.0	0.0
H	-0.123464	0.797128	-1.967359
H	-1.557033	-0.073521	-1.345541
N	-0.565704	1.111477	0.696191
H	-1.599777	0.870635	0.654128
H	-0.446448	1.928392	0.100526
C	-0.331273	-1.238778	0.731847
N	-0.501066	-2.255523	1.296277
C	-0.035693	-1.362789	-2.215608
H	-0.38803	-2.259851	-1.700136
H	1.048349	-1.433853	-2.331573
H	-0.487112	-1.357204	-3.212347
H	-2.994132	0.0	0.0
