15

C	0.0	0.0	0.0
C	-0.448321	-0.010389	-1.465941
Br	1.975815	0.0	0.0
H	-1.543146	0.081557	-1.367981
H	-0.049323	0.90336	-1.924288
N	-0.551989	1.072376	0.766667
H	-0.41618	1.924943	0.227057
H	-1.586771	0.847546	0.70811
C	-0.342214	-1.279097	0.650815
N	-0.511135	-2.325445	1.158665
C	-0.090735	-1.246532	-2.276759
H	-0.600008	-2.122223	-1.867836
H	-0.426512	-1.121341	-3.310418
H	0.983585	-1.443844	-2.289483
H	-2.977758	0.0	0.0
