15

C	0.0	0.0	0.0
C	-0.487415	-0.044774	-1.444266
Br	1.96464	0.0	0.0
H	-1.58495	-0.020445	-1.322021
H	-0.164452	0.892784	-1.907
N	-0.578985	1.138385	0.633687
H	-0.395884	1.096427	1.633228
H	-1.616899	0.946722	0.503883
C	-0.302285	-1.281078	0.68599
N	-0.472827	-2.290758	1.265662
C	-0.068132	-1.259962	-2.255278
H	1.015478	-1.327675	-2.380686
H	-0.522575	-1.208286	-3.249081
H	-0.419512	-2.180532	-1.781567
H	-3.008783	0.0	0.0
