15

C	0.0	0.0	0.0
C	-0.193441	-0.254179	-1.524985
Br	2.049299	0.0	0.0
H	0.690735	-0.752714	-1.93927
H	-1.05146	-0.915064	-1.667736
N	-0.112518	1.35527	0.581033
H	-0.98936	1.412762	1.082202
H	0.668868	1.506967	1.211507
C	-0.241079	-1.169177	0.823922
N	-0.339293	-2.156833	1.46187
C	-0.426	1.054437	-2.26115
H	-1.322885	1.546141	-1.876954
H	0.417984	1.729637	-2.110344
H	-0.546138	0.870973	-3.334985
H	-1.587589	0.0	0.0
