18

C	-0.425994	-0.059368	-1.461833
C	0.0	0.0	0.0
Br	0.010244	1.955481	-2.256731
H	1.090101	0.0	0.0
N	0.413857	-0.954509	-2.114781
H	0.253775	-0.995411	-3.112226
H	1.394222	-0.762119	-1.908074
N	-1.79251	-0.277308	-1.68285
H	-2.321277	0.403692	-1.150538
H	-2.023252	-0.192507	-2.66466
C	-0.498565	-1.213071	0.776088
H	-1.586884	-1.223088	0.845351
H	-0.159695	-2.112675	0.263413
H	-0.058477	-1.193669	1.776089
N	-0.507542	1.214175	0.696171
O	-1.72192	1.43874	0.615022
O	0.278125	1.874355	1.362287
Br	3.493585	0.0	0.0
