18

C	-0.378168	0.029822	-1.487216
C	0.0	0.0	0.0
Br	0.18032	-1.791088	-2.256597
H	1.090711	0.0	0.0
N	-1.793058	0.063157	-1.734155
H	-1.967548	0.038944	-2.731682
H	-2.160964	0.923432	-1.341516
N	0.372448	1.074324	-2.074861
H	1.356279	1.014443	-1.806737
H	0.290236	1.077955	-3.084204
C	-0.615861	-1.097062	0.835976
H	-0.418702	-0.900815	1.893077
H	-0.149455	-2.046121	0.575634
H	-1.691313	-1.154833	0.66631
N	-0.418935	1.331662	0.567218
O	-1.633333	1.527796	0.706886
O	0.451549	2.137419	0.872162
Br	3.525472	0.0	0.0
