18

C	-0.220861	0.008793	-1.528613
C	0.0	0.0	0.0
Br	-2.187875	0.102369	-1.916443
H	1.095365	0.0	0.0
N	0.371575	1.105326	-2.251928
H	1.366733	1.083333	-2.018959
H	0.015644	1.987503	-1.903596
N	0.284461	-1.245644	-2.009929
H	1.221243	-1.363485	-1.620985
H	0.377814	-1.155246	-3.016428
C	-0.54253	-1.202643	0.734684
H	-0.108867	-2.102145	0.301804
H	-1.628551	-1.256901	0.664001
H	-0.25782	-1.145745	1.786511
N	-0.476	1.264331	0.625641
O	0.047337	2.320402	0.266123
O	-1.36987	1.195218	1.470262
Br	3.43037	0.0	0.0
