18

C	-0.388556	-0.104792	-1.490945
C	0.0	0.0	0.0
Br	-0.116435	1.774627	-2.294237
H	1.091508	0.0	0.0
N	0.485398	-1.05085	-2.05107
H	0.359792	-1.104439	-3.05325
H	1.458274	-0.861717	-1.808748
N	-1.738087	-0.440357	-1.84853
H	-2.372435	0.185234	-1.366257
H	-1.904803	-1.391905	-1.53789
C	-0.482612	-1.206494	0.791583
H	-0.083653	-2.108468	0.32754
H	-0.089689	-1.1445	1.809204
H	-1.572536	-1.253143	0.832001
N	-0.555755	1.214393	0.643334
O	0.204524	1.987026	1.21407
O	-1.78564	1.34328	0.595287
Br	3.509254	0.0	0.0
