16

C	-0.510863	-0.027923	-1.432934
C	0.0	0.0	0.0
Cl	0.099772	1.529686	-2.223139
H	1.092068	0.0	0.0
H	-0.341243	0.935644	0.47307
C	0.071447	-1.178899	-2.223519
H	-0.262791	-2.108314	-1.761871
H	1.160992	-1.128551	-2.183197
H	-0.255024	-1.136694	-3.26713
N	-1.947634	-0.057273	-1.445794
H	-2.282205	-0.088872	-2.402387
H	-2.30076	0.797153	-1.027118
N	-0.444009	-1.214701	0.681505
H	0.133888	-1.352915	1.503596
H	-1.412514	-1.125469	0.965589
Br	3.716993	0.0	0.0
