16

C	-0.525552	-0.025211	-1.423827
C	0.0	0.0	0.0
Cl	0.009196	1.587367	-2.226125
H	1.096553	0.0	0.0
H	-0.338974	-0.939238	0.451811
C	0.132686	-1.116692	-2.238835
H	1.217866	-1.002645	-2.201401
H	-0.14687	-2.083316	-1.809194
H	-0.203441	-1.082438	-3.278356
N	-1.943062	-0.123751	-1.405462
H	-2.333525	0.066397	-2.319793
H	-2.286608	0.559314	-0.737014
N	-0.609489	1.107757	0.749938
H	-0.453195	0.936241	1.736096
H	-0.083446	1.944428	0.524511
Br	3.731913	0.0	0.0
