16

C	-0.523095	-0.040188	-1.428934
C	0.0	0.0	0.0
Cl	0.084843	1.518647	-2.234522
H	1.091832	0.0	0.0
H	-0.339918	0.936182	0.470712
C	0.056153	-1.195451	-2.214057
H	-0.268991	-2.120586	-1.736455
H	-0.283323	-1.168258	-3.253817
H	1.145561	-1.138722	-2.188269
N	-1.954624	-0.069684	-1.433474
H	-2.296473	-0.107166	-2.387085
H	-2.310858	0.780917	-1.01055
N	-0.430455	-1.210579	0.698687
H	0.234957	-1.411478	1.433576
H	-1.34821	-1.090533	1.102893
Br	3.722208	0.0	0.0
