16

C	-0.443165	0.013448	-1.460354
C	0.0	0.0	0.0
Cl	-0.16069	-1.645689	-2.147068
H	1.101685	0.0	0.0
H	-0.315394	0.970275	0.408487
C	-1.916631	0.323886	-1.624376
H	-2.108753	1.343905	-1.271175
H	-2.506402	-0.368469	-1.023682
H	-2.200818	0.25484	-2.675294
N	0.363013	0.921293	-2.255012
H	0.190381	1.861235	-1.90989
H	1.34433	0.720647	-2.061275
N	-0.636109	-1.052093	0.796651
H	-0.190909	-1.927559	0.542551
H	-0.383915	-0.888233	1.765468
Br	3.692568	0.0	0.0
