18

C	-0.196845	-0.013757	-1.519779
C	0.0	0.0	0.0
Br	-2.103944	0.036278	-2.061442
H	1.089717	0.0	0.0
N	0.3817	1.284791	-2.125286
O	0.50684	1.300366	-3.345272
O	0.672327	2.214887	-1.386348
C	0.543117	-1.151774	-2.180744
H	0.094749	-2.105938	-1.912556
H	0.535573	-1.029841	-3.261667
H	1.557761	-1.09532	-1.769027
N	-0.504848	-1.315729	0.521631
O	-1.639412	-1.335523	1.00424
O	0.232409	-2.299237	0.446966
N	-0.579257	1.032957	0.78669
H	-1.50355	1.291142	0.464262
H	0.037777	1.829341	0.743327
F	2.565511	0.0	0.0
