18

C	-0.650845	0.003308	-1.386642
C	0.0	0.0	0.0
Br	-0.007911	1.592188	-2.328686
H	1.096328	0.0	0.0
N	-0.160594	-1.14943	-2.261935
O	1.036054	-1.382594	-2.268002
O	-1.010676	-1.730554	-2.934176
C	-2.161001	0.038847	-1.348222
H	-2.453944	0.879088	-0.716673
H	-2.576993	0.164142	-2.345962
H	-2.536579	-0.898989	-0.9335
N	-0.434622	-1.217358	0.726571
O	-0.581958	-2.256552	0.075032
O	-0.584681	-1.154735	1.951282
N	-0.365772	1.195178	0.731963
H	-0.893268	0.93209	1.559009
H	0.511184	1.593997	1.050569
F	2.491351	0.0	0.0
