18

C	-0.366008	0.058266	-1.487726
C	0.0	0.0	0.0
Br	-0.365352	-1.631827	-2.471381
H	1.091331	0.0	0.0
N	-1.800072	0.549215	-1.633948
O	-2.621409	0.073728	-0.853975
O	-2.050266	1.368633	-2.512812
C	0.613377	1.002749	-2.15105
H	1.6103	0.671602	-1.843131
H	0.446771	2.000492	-1.744791
H	0.487487	1.015954	-3.231895
N	-0.494246	-1.196212	0.758068
O	-1.255222	-1.006914	1.711587
O	-0.061838	-2.297238	0.430188
N	-0.428631	1.238232	0.585212
H	0.280046	1.520074	1.249289
H	-1.308278	1.113059	1.068772
F	2.579146	0.0	0.0
