18

C	-0.309755	-0.078451	-1.5132
C	0.0	0.0	0.0
Br	-2.18257	-0.551733	-1.892368
H	1.089761	0.0	0.0
N	-0.10136	1.361188	-2.000932
O	-1.050765	2.140425	-2.019553
O	1.059344	1.653	-2.272472
C	0.646784	-0.979031	-2.264543
H	0.38424	-2.016384	-2.07636
H	1.637852	-0.775883	-1.844452
H	0.602777	-0.77311	-3.336088
N	-0.493546	-1.268024	0.636651
O	-1.330739	-1.19794	1.532483
O	-0.018327	-2.323771	0.215986
N	-0.476605	1.12878	0.705981
H	-1.362428	1.491758	0.388359
H	0.236946	1.840611	0.719316
F	2.564998	0.0	0.0
