13

C	-0.493451	0.187155	-1.415911
C	0.0	0.0	0.0
Br	-2.521265	0.249108	-1.480708
H	1.107786	0.0	0.0
H	-0.332327	0.861652	0.591575
C	-0.055091	1.46027	-1.98416
N	0.278846	2.500895	-2.417311
C	-0.116331	-0.924918	-2.284905
N	0.180621	-1.797351	-3.014039
N	-0.41596	-1.294867	0.506702
H	0.402337	-1.728128	0.922712
H	-1.138112	-1.211356	1.20823
H	2.722877	0.0	0.0
