13

C	-0.527575	-0.036821	-1.441917
C	0.0	0.0	0.0
Br	0.217784	1.456602	-2.49411
H	1.096996	0.0	0.0
H	-0.3365	-0.932319	0.473594
C	-0.165522	-1.28505	-2.115081
N	0.080878	-2.306225	-2.642728
C	-1.983567	0.112168	-1.469045
N	-3.157389	0.187026	-1.464246
N	-0.476752	1.200182	0.665617
H	0.332125	1.65931	1.068188
H	-1.12316	0.979873	1.408121
H	2.797068	0.0	0.0
