13

C	-0.532078	0.085118	-1.437881
C	0.0	0.0	0.0
Br	0.221317	-1.363548	-2.543955
H	1.098503	0.0	0.0
H	-0.337127	0.913813	0.507982
C	-1.987273	-0.074779	-1.464741
N	-3.160792	-0.1596	-1.461283
C	-0.18334	1.360994	-2.066509
N	0.048948	2.398734	-2.56747
N	-0.471491	-1.225209	0.622985
H	-1.115485	-1.034141	1.3772
H	0.340338	-1.695995	1.006903
H	2.797701	0.0	0.0
