13

C	-0.530252	-0.067172	-1.439998
C	0.0	0.0	0.0
Br	0.196699	-1.645683	-2.371534
H	1.096387	0.0	0.0
H	-0.335942	0.964005	0.40539
C	-1.987725	-0.205262	-1.448925
N	-3.160869	-0.272839	-1.402505
C	-0.157405	1.122784	-2.206985
N	0.103553	2.100063	-2.807589
N	-0.476592	-1.148819	0.75013
H	0.332369	-1.582997	1.18227
H	-1.123563	-0.876241	1.475857
H	2.797495	0.0	0.0
