13

C	-0.488799	-0.044184	-1.434597
C	0.0	0.0	0.0
Br	-2.504649	-0.016613	-1.507951
H	1.095259	0.0	0.0
H	-0.340382	0.943924	0.442425
C	-0.056212	1.124783	-2.198009
N	0.279524	2.080407	-2.793893
C	-0.092268	-1.276922	-2.113707
N	0.209233	-2.252095	-2.695723
N	-0.418862	-1.197515	0.703871
H	-1.148234	-1.00903	1.376224
H	0.395826	-1.561539	1.185734
H	2.749088	0.0	0.0
