17

C	0.0	0.0	0.0
C	-0.396996	-0.002033	-1.502758
Cl	1.804718	0.0	0.0
H	0.341286	-0.6677	-1.983176
C	-0.388917	1.230565	0.695065
N	-0.591151	2.193158	1.336169
C	-0.518135	-1.216469	0.744421
H	-0.098009	-1.242976	1.753034
H	-0.243409	-2.122194	0.201957
H	-1.610026	-1.133753	0.785877
N	-0.241866	1.378912	-1.999674
H	-0.553043	1.396095	-2.964885
H	0.743234	1.632075	-1.993082
N	-1.691953	-0.573125	-1.678048
H	-2.009317	-0.444236	-2.633174
H	-2.450298	-0.220219	-1.017647
H	-3.595167	0.0	0.0
