17

C	0.0	0.0	0.0
C	-0.508934	0.101571	-1.47521
Cl	1.791793	0.0	0.0
H	0.334191	-0.202296	-2.103467
C	-0.374297	1.166493	0.810194
N	-0.586834	2.072199	1.527222
C	-0.473749	-1.26204	0.713394
H	-1.562293	-1.20655	0.799403
H	-0.202067	-2.138113	0.125997
H	-0.015348	-1.312871	1.704293
N	-0.747666	1.520627	-1.77275
H	-1.619228	1.777288	-1.311473
H	-0.925326	1.594855	-2.768599
N	-1.58814	-0.835093	-1.690395
H	-1.871909	-0.764915	-2.664128
H	-2.410206	-0.547424	-1.095483
H	-3.481446	0.0	0.0
