17

C	0.0	0.0	0.0
C	-0.561036	-0.008228	-1.414662
Cl	1.80998	0.0	0.0
H	-1.655398	0.019699	-1.211669
C	-0.350739	1.269549	0.657314
N	-0.516735	2.266662	1.255572
C	-0.525364	-1.168811	0.804945
H	-0.165556	-1.121438	1.835378
H	-1.622395	-1.063859	0.768424
H	-0.218125	-2.098688	0.33017
N	-0.233233	-1.270816	-2.063622
H	-0.861185	-1.405173	-2.846899
H	0.717265	-1.232624	-2.422872
N	-0.180555	1.218583	-2.101571
H	-0.764718	1.336401	-2.919824
H	0.788787	1.167844	-2.398957
H	-3.257693	0.0	0.0
