17

C	0.0	0.0	0.0
C	-0.621967	0.056516	-1.394494
Cl	1.796014	0.0	0.0
H	-1.675394	0.317131	-1.161177
C	-0.341839	1.255288	0.693243
N	-0.52656	2.247323	1.294165
C	-0.525863	-1.181658	0.791864
H	-0.173467	-1.139129	1.82444
H	-1.625036	-1.09979	0.757301
H	-0.179873	-2.105908	0.326546
N	-0.545624	-1.271248	-2.026395
H	-1.340302	-1.800069	-1.66892
H	-0.74073	-1.126968	-3.01236
N	-0.010995	1.102382	-2.176811
H	0.873157	0.778136	-2.553761
H	-0.624786	1.361475	-2.938613
H	-3.305491	0.0	0.0
