17

C	0.0	0.0	0.0
C	-0.610944	0.007022	-1.402945
Cl	1.794422	0.0	0.0
H	-1.69403	-0.091525	-1.172267
C	-0.368466	1.240197	0.701062
N	-0.571449	2.256017	1.255125
C	-0.510714	-1.20563	0.770708
H	-1.60803	-1.113891	0.789342
H	-0.209506	-2.105277	0.234163
H	-0.1034	-1.21324	1.784426
N	-0.158714	-1.148413	-2.145004
H	-0.87185	-1.412853	-2.812377
H	0.68493	-0.892557	-2.64711
N	-0.289852	1.25356	-2.110507
H	-0.851616	1.246607	-2.957874
H	-0.646594	2.031178	-1.56098
H	-3.305579	0.0	0.0
