17

C	0.0	0.0	0.0
C	-0.527097	-0.018033	-1.469594
Cl	1.795735	0.0	0.0
H	0.309626	0.289263	-2.106492
C	-0.321219	1.290854	0.638885
N	-0.457165	2.273287	1.269345
C	-0.535429	-1.1197	0.875148
H	-1.630084	-1.023065	0.884218
H	-0.237508	-2.080348	0.455807
H	-0.146711	-1.013756	1.890132
N	-1.580039	0.965022	-1.591856
H	-2.391351	0.670522	-0.992255
H	-1.905928	0.963439	-2.55473
N	-0.841438	-1.409021	-1.828879
H	-0.976264	-1.429886	-2.833977
H	-1.755029	-1.605046	-1.420334
H	-3.540662	0.0	0.0
