17

C	0.0	0.0	0.0
C	-0.400207	0.278791	-1.487196
Cl	1.808955	0.0	0.0
H	0.226101	-0.426302	-2.060284
C	-0.391362	1.096834	0.886389
N	-0.615773	1.945224	1.667691
C	-0.536901	-1.325	0.501061
H	-1.629694	-1.232443	0.547118
H	-0.135826	-1.554074	1.49196
H	-0.256049	-2.123166	-0.193
N	-0.080397	1.672034	-1.781789
H	-0.647281	1.922487	-2.580961
H	0.901869	1.786443	-2.001925
N	-1.771771	0.041272	-1.82598
H	-1.902313	-0.940152	-2.044115
H	-2.4793	0.223963	-1.055526
H	-3.627353	0.0	0.0
