16

C	-0.35831	0.003264	-1.487199
C	0.0	0.0	0.0
F	-0.12407	-1.276226	-1.997901
H	1.096426	0.0	0.0
N	-1.774994	0.222671	-1.719562
H	-1.990223	-0.082965	-2.663585
H	-1.939151	1.221442	-1.664275
N	0.491396	0.966425	-2.104302
H	0.453128	0.861888	-3.112224
H	1.451796	0.814432	-1.776767
N	-0.48393	-1.174565	0.7
H	0.148363	-1.356498	1.471288
H	-1.415734	-1.020098	1.059818
C	-0.45486	1.261587	0.593902
N	-0.836903	2.240618	1.122718
H	2.800973	0.0	0.0
