16

C	-0.350047	-0.016015	-1.487702
C	0.0	0.0	0.0
F	-0.104056	1.274333	-1.995681
H	1.104418	0.0	0.0
N	0.549783	-0.954646	-2.093126
H	0.518829	-0.847039	-3.102574
H	1.49974	-0.733022	-1.768908
N	-1.742639	-0.286795	-1.697352
H	-1.878642	-0.688707	-2.614926
H	-1.996066	-0.979667	-1.002304
N	-0.492594	-1.25854	0.607879
H	-0.2827	-1.207975	1.600804
H	0.129413	-1.975527	0.232911
C	-0.565196	1.144312	0.693149
N	-0.999899	2.035521	1.32551
H	2.798837	0.0	0.0
