16

C	-0.288778	-0.011267	-1.508515
C	0.0	0.0	0.0
F	-0.0228	-1.323868	-1.962807
H	1.096773	0.0	0.0
N	-1.694125	0.167093	-1.806967
H	-1.917643	1.141704	-1.639494
H	-1.841224	-0.023975	-2.792824
N	0.587149	0.923401	-2.11706
H	0.600165	0.791827	-3.121739
H	1.531014	0.781377	-1.73584
N	-0.508757	-1.149702	0.726087
H	0.18304	-1.882429	0.615759
H	-1.366176	-1.457313	0.278394
C	-0.506653	1.246001	0.567745
N	-0.940921	2.242374	1.015385
H	2.795825	0.0	0.0
