16

C	-0.596711	0.054953	-1.404866
C	0.0	0.0	0.0
F	-0.121591	1.250174	-1.984867
H	1.093085	0.0	0.0
N	-0.170001	-1.048495	-2.197239
H	0.304327	-1.704769	-1.589851
H	-0.975264	-1.520707	-2.584727
N	-2.039409	0.131764	-1.353648
H	-2.376009	0.238647	-2.307033
H	-2.291872	0.984344	-0.863233
N	-0.299165	-1.279936	0.638353
H	-1.164573	-1.262592	1.15991
H	0.476779	-1.485793	1.261028
C	-0.454729	1.156581	0.771464
N	-0.856508	2.058212	1.412683
H	2.728352	0.0	0.0
