18

C	-0.260173	-0.055998	-1.507568
C	0.0	0.0	0.0
Cl	-2.015363	-0.441677	-1.887089
H	1.097855	0.0	0.0
C	-0.01235	1.245593	-2.131698
N	0.181279	2.293066	-2.628298
C	0.649906	-1.110426	-2.120379
H	0.345704	-2.08148	-1.730933
H	1.654618	-0.875386	-1.742363
H	0.601376	-1.104784	-3.211646
N	-0.387563	-1.282901	0.585594
H	-1.275279	-1.206098	1.069688
H	0.331041	-1.532282	1.254525
C	-0.597355	1.20629	0.696994
H	-0.299069	1.187588	1.749357
H	-0.234728	2.142673	0.266989
H	-1.694746	1.201495	0.647363
F	2.679568	0.0	0.0
