18

C	-0.27344	0.055069	-1.514655
C	0.0	0.0	0.0
Cl	0.084456	-1.571765	-2.240347
H	1.102795	0.0	0.0
C	-1.670077	0.344429	-1.842911
N	-2.781424	0.6231	-2.108506
C	0.713039	1.036173	-2.147319
H	0.425168	2.062139	-1.903066
H	0.731065	0.928007	-3.23295
H	1.686812	0.805911	-1.690865
N	-0.652975	-1.16542	0.611044
H	-0.584244	-1.040968	1.616623
H	-0.074689	-1.972524	0.401345
C	-0.512101	1.25804	0.68291
H	-0.193624	1.235872	1.73024
H	-0.080017	2.1591	0.245817
H	-1.605894	1.323566	0.652807
F	2.724109	0.0	0.0
