18

C	-0.255644	-0.067065	-1.508036
C	0.0	0.0	0.0
Cl	-2.014043	-0.440168	-1.889145
H	1.098195	0.0	0.0
C	0.00332	1.227344	-2.142877
N	0.198347	2.270085	-2.648895
C	0.646391	-1.132604	-2.110502
H	1.647954	-0.904303	-1.724448
H	0.331227	-2.099883	-1.720173
H	0.607753	-1.128419	-3.200587
N	-0.38852	-1.278287	0.594037
H	0.337391	-1.53139	1.253175
H	-1.268626	-1.196608	1.089231
C	-0.598299	1.210559	0.687904
H	-1.696084	1.205211	0.642756
H	-0.295904	1.203357	1.739129
H	-0.238139	2.143133	0.247582
F	2.677876	0.0	0.0
