18

C	-0.211096	0.051085	-1.546354
C	0.0	0.0	0.0
Cl	0.154853	-1.580869	-2.249013
H	1.096725	0.0	0.0
C	-1.596936	0.340216	-1.918776
N	-2.719753	0.598641	-2.15977
C	0.797347	1.029651	-2.14782
H	0.842972	0.929332	-3.234487
H	0.509175	2.054594	-1.90244
H	1.759041	0.791207	-1.663967
N	-0.538627	-1.160796	0.682625
H	-1.464959	-1.394804	0.338419
H	0.070929	-1.946143	0.500378
C	-0.53473	1.267755	0.649359
H	-0.098377	2.169675	0.21529
H	-0.254528	1.233189	1.703368
H	-1.628585	1.338474	0.586362
F	2.710716	0.0	0.0
