18

C	-0.440881	-0.004529	-1.435269
C	0.0	0.0	0.0
F	-0.187934	-1.171643	-2.045029
H	1.100725	0.0	0.0
N	-1.934028	0.260409	-1.588251
O	-2.293315	1.407952	-1.823738
O	-2.662002	-0.709878	-1.396644
N	0.217469	1.081452	-2.284347
O	0.249052	0.85974	-3.490056
O	0.635304	2.077414	-1.713483
C	-0.455815	-1.260962	0.713195
H	-0.191967	-2.155931	0.150802
H	-1.533799	-1.256615	0.902206
H	0.082262	-1.303238	1.665498
N	-0.546888	1.182891	0.676452
H	-0.556584	0.976221	1.668597
H	0.123007	1.934187	0.54692
H	2.775541	0.0	0.0
