18

C	-0.494543	-0.000994	-1.40991
C	0.0	0.0	0.0
F	0.055016	-0.975768	-2.148827
H	1.095717	0.0	0.0
N	-2.018506	-0.175672	-1.56293
O	-2.722973	0.103701	-0.598458
O	-2.412758	-0.586153	-2.65034
N	-0.222559	1.320031	-2.117821
O	0.891523	1.434852	-2.603555
O	-1.128214	2.146947	-2.127741
C	-0.381283	-1.288168	0.721091
H	-0.185475	-2.164806	0.096093
H	0.267398	-1.36971	1.598325
H	-1.428764	-1.297804	1.038478
N	-0.360231	1.240641	0.658911
H	0.426666	1.509491	1.241548
H	-1.194548	1.14296	1.221557
H	2.733796	0.0	0.0
