18

C	-0.455926	0.007944	-1.427648
C	0.0	0.0	0.0
F	0.183356	0.919241	-2.158152
H	1.095819	0.0	0.0
N	-0.284753	-1.335116	-2.130021
O	0.684787	-1.467426	-2.86028
O	-1.139239	-2.181474	-1.876345
N	-1.956347	0.302458	-1.622871
O	-2.706855	0.148757	-0.66782
O	-2.284847	0.659208	-2.749958
C	-0.40453	-1.196822	0.842571
H	0.077898	-1.063316	1.815272
H	-0.017239	-2.129184	0.4263
H	-1.484462	-1.285975	0.976667
N	-0.380042	1.306247	0.534529
H	0.445463	1.690512	0.984999
H	-1.122527	1.212047	1.216286
H	2.752335	0.0	0.0
