18

C	-0.398919	0.013277	-1.455919
C	0.0	0.0	0.0
F	-0.142379	1.197687	-2.032584
H	1.094873	0.0	0.0
N	0.263744	-1.043036	-2.337123
O	0.243503	-0.794968	-3.541238
O	0.750163	-2.02872	-1.799078
N	-1.887918	-0.23949	-1.622388
O	-2.622369	0.738222	-1.480421
O	-2.252645	-1.406221	-1.758675
C	-0.541149	-1.183529	0.780018
H	-1.622438	-1.095182	0.944967
H	-0.327187	-2.135001	0.295956
H	-0.046411	-1.164437	1.752202
N	-0.376467	1.246372	0.65523
H	-1.2762	1.588943	0.336438
H	0.331945	1.938639	0.439132
H	2.719155	0.0	0.0
