18

C	-0.616881	-0.045969	-1.361848
C	0.0	0.0	0.0
F	-1.97087	-0.158672	-1.329422
H	1.090182	0.0	0.0
N	-0.297527	1.207733	-2.159496
O	-1.193738	2.020843	-2.320008
O	0.856333	1.27836	-2.559479
N	-0.145927	-1.174141	-2.264008
O	0.690137	-1.958887	-1.834719
O	-0.6726	-1.198345	-3.376517
C	-0.456637	-1.167579	0.864656
H	-0.229857	-2.129524	0.40343
H	0.105664	-1.112695	1.800533
H	-1.528854	-1.117273	1.08617
N	-0.342674	1.309527	0.555755
H	0.482756	1.640549	1.048096
H	-1.117134	1.24746	1.20568
H	2.747473	0.0	0.0
