18

C	-0.395038	0.039129	-1.453013
C	0.0	0.0	0.0
F	0.103481	-0.998033	-2.139808
H	1.094892	0.0	0.0
N	-1.902846	-0.003013	-1.619419
O	-2.494436	1.052544	-1.374801
O	-2.424043	-1.087786	-1.861381
N	0.01113	1.287542	-2.233397
O	0.566159	2.208076	-1.648432
O	-0.247048	1.234246	-3.434451
C	-0.463888	-1.315136	0.610956
H	-1.546158	-1.330464	0.784373
H	-0.189558	-2.172939	-0.005129
H	0.042515	-1.403273	1.57298
N	-0.434347	1.118962	0.814006
H	0.215316	1.881172	0.668759
H	-1.363636	1.435048	0.561724
H	2.722618	0.0	0.0
