18

C	-0.462704	0.00987	-1.423915
C	0.0	0.0	0.0
F	0.190897	0.903899	-2.162964
H	1.095771	0.0	0.0
N	-0.315924	-1.342903	-2.110409
O	0.675615	-1.509953	-2.803067
O	-1.200243	-2.163829	-1.877446
N	-1.956944	0.329246	-1.620348
O	-2.275579	0.708994	-2.742464
O	-2.714669	0.167948	-0.673121
C	-0.409496	-1.196371	0.839658
H	-1.489773	-1.285603	0.966779
H	0.066786	-1.06684	1.815215
H	-0.020158	-2.128196	0.423931
N	-0.367643	1.310452	0.536957
H	-1.090343	1.220006	1.24059
H	0.472012	1.694935	0.962291
H	2.745083	0.0	0.0
