18

C	-0.418822	-0.003218	-1.437978
C	0.0	0.0	0.0
F	0.069737	1.069689	-2.083761
H	1.099396	0.0	0.0
N	0.031585	-1.207023	-2.250027
O	-0.368419	-1.216716	-3.414535
O	0.784938	-2.018541	-1.727988
N	-1.927386	0.020425	-1.630785
O	-2.448587	1.062036	-2.000566
O	-2.499509	-1.029343	-1.343144
C	-0.506995	-1.154733	0.838858
H	-0.270406	-2.116091	0.388266
H	0.018776	-1.108091	1.797318
H	-1.584149	-1.089408	1.014118
N	-0.505093	1.27652	0.540623
H	0.178861	1.984365	0.290202
H	-0.452076	1.195727	1.549197
H	2.799551	0.0	0.0
