18

C	-0.456203	0.008232	-1.428152
C	0.0	0.0	0.0
F	-0.517444	-1.21871	-1.987139
H	1.10541	0.0	0.0
N	-1.861119	0.581059	-1.634894
O	-2.075305	1.247676	-2.642746
O	-2.698833	0.236188	-0.80937
N	0.460822	0.857324	-2.305084
O	1.014824	0.288682	-3.236266
O	0.579269	2.027356	-1.976558
C	-0.408462	-1.254556	0.753407
H	-0.093882	-2.156337	0.225069
H	-1.486359	-1.301039	0.934932
H	0.124133	-1.23581	1.708595
N	-0.410833	1.248396	0.628541
H	-1.095184	1.073298	1.353649
H	0.416297	1.668335	1.039951
H	2.722469	0.0	0.0
