18

C	-0.531385	-0.026842	-1.397453
C	0.0	0.0	0.0
F	-1.890511	0.086376	-1.456118
H	1.102665	0.0	0.0
N	-0.012575	1.066065	-2.318903
O	-0.483845	1.04369	-3.456486
O	0.805476	1.866509	-1.882279
N	-0.170152	-1.314602	-2.116336
O	-1.006872	-2.211225	-2.098874
O	0.952676	-1.354574	-2.60102
C	-0.447487	-1.237738	0.766942
H	-0.00349	-2.148078	0.358692
H	-0.077071	-1.111409	1.784295
H	-1.535529	-1.35012	0.794079
N	-0.406747	1.216744	0.698463
H	0.297771	1.922479	0.520865
H	-1.307247	1.555799	0.382114
H	2.771619	0.0	0.0
