18

C	-0.573866	-0.119195	-1.384101
C	0.0	0.0	0.0
F	-1.870886	-0.515765	-1.4038
H	1.099526	0.0	0.0
N	-0.49272	1.196546	-2.138107
O	-1.477091	1.519251	-2.796393
O	0.559622	1.805187	-2.039475
N	0.158053	-1.136006	-2.263837
O	0.762475	-0.735062	-3.251062
O	0.040039	-2.302914	-1.908725
C	-0.422418	-1.156036	0.893553
H	0.124235	-1.04432	1.833943
H	-0.15504	-2.120563	0.464078
H	-1.499568	-1.14317	1.093737
N	-0.451393	1.293733	0.527152
H	0.385102	1.81798	0.764878
H	-0.988909	1.152732	1.374252
H	2.759435	0.0	0.0
