18

C	-0.453679	0.046173	-1.428524
C	0.0	0.0	0.0
F	-0.093861	-1.053228	-2.108405
H	1.107056	0.0	0.0
N	-1.963727	0.175398	-1.557585
O	-2.43171	1.306174	-1.633413
O	-2.596735	-0.875888	-1.49237
N	0.084628	1.233404	-2.221484
O	0.581724	2.167002	-1.608799
O	-0.034063	1.135657	-3.439019
C	-0.439221	-1.296903	0.658673
H	0.128015	-1.39183	1.589397
H	-1.511265	-1.301545	0.881502
H	-0.201384	-2.162044	0.040643
N	-0.5368	1.151333	0.731494
H	-0.645458	0.87439	1.699446
H	0.174424	1.874291	0.710632
H	2.753746	0.0	0.0
