16

C	-0.527249	0.001673	-1.42177
C	0.0	0.0	0.0
Br	0.097833	-1.640912	-2.290243
H	1.090441	0.0	0.0
H	0.016212	0.798772	-1.928253
C	-2.025795	0.135946	-1.64012
H	-2.559938	-0.73059	-1.255941
H	-2.233774	0.239527	-2.707621
H	-2.391114	1.028332	-1.126366
N	-0.527788	-1.142222	0.801133
O	-1.753907	-1.228153	0.935619
O	0.284251	-1.935403	1.268441
N	-0.406899	1.232746	0.704556
O	-0.477917	2.261986	0.027175
O	-0.553388	1.186366	1.924954
F	2.472464	0.0	0.0
