16

C	-0.527267	-0.050496	-1.417408
C	0.0	0.0	0.0
Br	0.156466	1.49982	-2.402328
H	1.087528	0.0	0.0
H	-1.614319	0.050515	-1.448658
C	-0.007264	-1.308045	-2.095671
H	-0.212834	-1.279043	-3.167078
H	-0.489398	-2.194584	-1.675172
H	1.068316	-1.369083	-1.914864
N	-0.497482	-1.231085	0.698385
O	0.267685	-2.185083	0.783538
O	-1.66688	-1.224588	1.09724
N	-0.555491	1.117791	0.80457
O	-1.407725	1.858599	0.310667
O	-0.118143	1.210619	1.950293
F	2.502226	0.0	0.0
