16

C	-0.635587	-0.006935	-1.368374
C	0.0	0.0	0.0
Br	0.046618	1.541878	-2.357892
H	1.087543	0.0	0.0
H	-1.710312	0.156748	-1.295675
C	-0.276209	-1.277754	-2.113119
H	0.805949	-1.414864	-2.081718
H	-0.622014	-1.221195	-3.14662
H	-0.764072	-2.133075	-1.636168
N	-0.497898	-1.220364	0.719592
O	0.317915	-2.095977	0.992319
O	-1.708311	-1.281558	0.969081
N	-0.49652	1.149617	0.824261
O	0.208427	1.471702	1.783257
O	-1.566313	1.689029	0.526398
F	2.512105	0.0	0.0
