16

C	-0.554043	-0.039078	-1.405745
C	0.0	0.0	0.0
Br	0.133552	1.500725	-2.402742
H	1.087533	0.0	0.0
H	-1.639539	0.079684	-1.412021
C	-0.076247	-1.305927	-2.096354
H	-0.564473	-2.182189	-1.661283
H	-0.311549	-1.2743	-3.161263
H	1.002537	-1.389302	-1.947263
N	-0.495713	-1.233508	0.696514
O	-1.674544	-1.237614	1.066917
O	0.277183	-2.178802	0.805337
N	-0.543674	1.113524	0.819813
O	-0.095255	1.195023	1.962234
O	-1.398061	1.861883	0.341431
F	2.500662	0.0	0.0
