16

C	-0.509621	-0.069352	-1.423433
C	0.0	0.0	0.0
Br	0.16047	1.485912	-2.410606
H	1.087547	0.0	0.0
H	-1.597619	0.011133	-1.470542
C	0.046948	-1.321423	-2.083359
H	-0.425752	-2.214807	-1.667201
H	-0.135384	-1.302703	-3.158782
H	1.119118	-1.358339	-1.877616
N	-0.498893	-1.22305	0.709476
O	0.263731	-2.179374	0.799816
O	-1.666509	-1.208938	1.113981
N	-0.561648	1.127622	0.784751
O	-1.420161	1.853731	0.279
O	-0.122539	1.244926	1.927398
F	2.503857	0.0	0.0
