16

C	-0.459476	-0.050312	-1.443305
C	0.0	0.0	0.0
Br	0.201262	1.547482	-2.368988
H	1.087541	0.0	0.0
H	-1.546231	-0.002336	-1.533895
C	0.172989	-1.265154	-2.10584
H	1.233607	-1.26403	-1.841268
H	-0.286043	-2.185259	-1.735308
H	0.047013	-1.22585	-3.188348
N	-0.509938	-1.236188	0.674922
O	-1.683888	-1.227909	1.061831
O	0.250864	-2.195407	0.758692
N	-0.58278	1.112608	0.788954
O	-0.162253	1.221676	1.938971
O	-1.442644	1.83304	0.279592
F	2.51002	0.0	0.0
