16

C	-0.493332	0.004968	-1.435492
C	0.0	0.0	0.0
Br	0.100048	-1.663691	-2.274638
H	1.090433	0.0	0.0
H	0.087591	0.779911	-1.934666
C	-1.980471	0.181209	-1.691062
H	-2.549914	-0.662016	-1.304657
H	-2.158143	0.27145	-2.76525
H	-2.326274	1.095949	-1.204025
N	-0.551366	-1.136339	0.788905
O	-1.780892	-1.203526	0.902534
O	0.243443	-1.941369	1.26602
N	-0.400894	1.237909	0.697312
O	-0.552516	1.195649	1.916507
O	-0.454776	2.2665	0.018037
F	2.471462	0.0	0.0
