16

C	-0.521177	-0.048915	-1.419444
C	0.0	0.0	0.0
Br	0.167011	1.500401	-2.402261
H	1.087529	0.0	0.0
H	-1.608224	0.051124	-1.454757
C	0.001655	-1.306872	-2.09541
H	-0.200774	-1.2787	-3.167477
H	1.077266	-1.366355	-1.911973
H	-0.480504	-2.193744	-1.675611
N	-0.499175	-1.232869	0.694187
O	0.267143	-2.18653	0.78516
O	-1.672235	-1.228905	1.081611
N	-0.557203	1.116465	0.804529
O	-1.400171	1.865156	0.306556
O	-0.131657	1.199792	1.955101
F	2.501979	0.0	0.0
