17

C	-0.529473	0.066127	-1.423379
C	0.0	0.0	0.0
Cl	0.144391	1.458327	-2.28678
H	1.091254	0.0	0.0
H	-0.332066	-0.95658	0.413126
N	-0.100561	-1.220783	-2.148092
O	0.567402	-1.166323	-3.168331
O	-0.53458	-2.249025	-1.630281
C	-2.045592	0.106488	-1.532594
H	-2.475408	-0.724111	-0.970996
H	-2.349952	0.033653	-2.579328
H	-2.415701	1.049582	-1.132229
C	-0.484565	1.146724	0.880838
H	-1.564139	1.124295	1.057271
H	-0.217264	2.112704	0.448814
H	0.018556	1.07539	1.847283
Br	3.645189	0.0	0.0
