17

C	-0.398523	0.052957	-1.466443
C	0.0	0.0	0.0
Cl	0.013365	-1.455106	-2.304955
H	1.093751	0.0	0.0
H	-0.317493	0.955845	0.431071
N	-1.92123	0.235912	-1.524986
O	-2.314347	1.353605	-1.194576
O	-2.651171	-0.703671	-1.816887
C	0.273368	1.208382	-2.180498
H	1.352362	1.06134	-2.092837
H	-0.017197	1.238952	-3.233358
H	0.001485	2.146703	-1.698653
C	-0.571789	-1.159389	0.79882
H	-0.210381	-1.093197	1.827263
H	-0.240572	-2.115606	0.393031
H	-1.666407	-1.152006	0.820137
Br	3.626098	0.0	0.0
