16

C	0.0	0.0	0.0
C	-0.526627	-0.002028	-1.45754
F	1.391447	0.0	0.0
H	0.367804	0.017146	-2.096402
H	-0.299859	-0.948155	0.451537
C	-0.487946	1.131344	0.871859
H	-1.580199	1.064828	0.868666
H	-0.146063	2.100595	0.493793
H	-0.100188	1.004523	1.887717
N	-1.413135	1.100504	-1.843474
H	-1.004186	1.993781	-1.581206
H	-2.236684	0.941445	-1.234948
N	-1.234355	-1.269243	-1.640501
H	-1.578378	-1.259906	-2.596891
H	-2.067164	-1.120358	-1.047761
F	-3.060073	0.0	0.0
