16

C	0.0	0.0	0.0
C	-0.277372	-0.133848	-1.522355
F	1.403559	0.0	0.0
H	0.184827	0.77487	-1.94469
H	-0.325953	-0.908997	0.516754
C	-0.601031	1.220654	0.630115
H	-1.689748	1.06141	0.584925
H	-0.320934	2.119574	0.071775
H	-0.275689	1.332544	1.669252
N	-1.652186	-0.27145	-1.908976
H	-1.899507	0.44814	-2.572084
H	-2.345508	-0.216061	-1.101625
N	0.46981	-1.281309	-2.091373
H	1.265675	-1.505265	-1.506452
H	-0.191648	-2.048327	-2.073612
F	-3.297871	0.0	0.0
