12
Coordinates from ORCA-job run
  C   -0.20187919119489     -0.19391485476379      0.25392296833605
  C   -0.31548285338900      1.30528745430067      0.12189128591840
  Br  -0.62899628088245     -0.76774797378553      2.07328893292704
  H   0.01491403440342      1.60529615026363     -0.87787205733879
  H   0.30529928958528      1.80895892684750      0.85763191378400
  H   -1.35898977402120      1.58755855270559      0.25695060544797
  N   -1.03036200523572     -0.88004324878547     -0.64923137442291
  H   -0.89899822318279     -0.53156278312895     -1.59132793571503
  H   -0.86197622752334     -1.87753585111649     -0.62906870551135
  N   1.30551983507647     -0.58743466208969      0.09838898002520
  O   2.13813053646880      0.15752068652073      0.59743850908438
  O   1.53382085989541     -1.62638239696819     -0.51201312253495
