12
Coordinates from ORCA-job run
  C   -0.20654481356699     -0.19795902418095      0.24989882338006
  C   -0.30656166051739      1.30452093636273      0.14582814377499
  Br  -0.65120779249504     -0.80378869403443      2.05311473271854
  H   0.02847543703361      1.62008163604085     -0.84762614554492
  H   -1.34779927484540      1.59374489750757      0.28355444594045
  H   0.31739977190385      1.78835718048311      0.89215186618327
  N   -1.03398124838712     -0.85996012655237     -0.67259653289479
  H   -0.88350278178724     -0.50126730726337     -1.60808443156549
  H   -0.87774598009850     -1.85965073005781     -0.66493843885580
  N   1.29967232458120     -0.59694439587702      0.09467079540259
  O   1.52798870577352     -1.61027531471782     -0.55780375271622
  O   2.13280731240551      0.12114094228950      0.63083049417732
