12
Coordinates from ORCA-job run
  C   -0.11067563744457     -0.28432637482352      0.29149598695746
  C   -0.32318374753835      1.20796061152059      0.08469781809702
  Br  -0.59892650126432     -0.76469524628171      2.10571250943996
  H   -1.38060535992555      1.44450525277751      0.20892925195045
  H   0.25962723573763      1.79135012616001      0.79906782112751
  H   -0.01525201385638      1.46502565048060     -0.93314794200919
  N   -0.77766383915269     -1.18107321647349     -0.59857727456270
  H   -0.55072420640095     -0.95431864977233     -1.55894533910951
  H   -1.77736629264952     -1.13827370748135     -0.45278709390943
  N   1.39781956726656     -0.50796217574898      0.09069219182477
  O   1.72254868950669     -0.74766798283193     -1.06881877785311
  O   2.15440210572145     -0.33052428752540      1.03268084804677
