16

C	0.0	0.0	0.0
C	-0.367067	0.088285	-1.500359
Cl	1.769391	0.0	0.0
H	0.337275	0.789523	-1.959667
N	-0.369075	1.288346	0.722771
O	-0.454537	1.239795	1.946495
O	-0.361632	2.313828	0.042663
C	-0.656628	-1.096669	0.687974
N	-0.635046	-2.131364	1.278487
C	-1.723403	0.611244	-1.722228
N	-2.592076	1.149677	-2.327377
C	-0.243867	-1.295867	-2.142443
H	-1.005468	-1.958896	-1.726789
H	-0.401035	-1.214773	-3.219671
H	0.738543	-1.733299	-1.958395
H	-2.037308	0.0	0.0
