16

C	0.0	0.0	0.0
C	-0.42003	0.025164	-1.476613
Cl	1.772253	0.0	0.0
H	0.126133	0.841358	-1.957311
N	-0.368398	1.330075	0.663716
O	-0.452464	1.339138	1.888678
O	-0.38116	2.320009	-0.065493
C	-0.663975	-1.060854	0.739399
N	-0.704593	-2.09133	1.339143
C	-1.893755	0.312169	-1.507596
N	-2.755147	0.620824	-2.285824
C	-0.126946	-1.308002	-2.161651
H	-0.730756	-2.098671	-1.710458
H	0.926966	-1.585239	-2.088857
H	-0.401982	-1.223929	-3.214019
H	-2.071837	0.0	0.0
