16

C	0.0	0.0	0.0
C	-0.359284	0.004715	-1.498713
Br	1.953323	0.0	0.0
H	0.171803	-0.813205	-1.989951
H	-0.302275	0.94543	0.451677
C	-0.598391	-1.189522	0.712456
H	-0.299012	-2.1245	0.230768
H	-0.281258	-1.218989	1.756275
H	-1.689048	-1.092569	0.678804
N	0.245521	1.251996	-2.128631
O	-0.029146	2.326043	-1.600559
O	0.913916	1.110788	-3.14957
N	-1.728069	-0.006743	-1.870144
H	-2.068407	-0.950575	-1.986205
H	-2.366026	0.435813	-1.20798
Cl	-4.248451	0.0	0.0
