16

C	0.0	0.0	0.0
C	-0.396526	-0.148015	-1.47677
Br	1.952188	0.0	0.0
H	0.121842	-1.009352	-1.902096
H	-0.297814	0.986238	0.357215
C	-0.575068	-1.11003	0.850152
H	-0.233378	-1.022874	1.882654
H	-1.666676	-1.030098	0.831036
H	-0.275674	-2.088905	0.466067
N	0.193369	1.03173	-2.246683
O	-0.037717	2.154248	-1.80674
O	0.80042	0.784629	-3.285764
N	-1.774525	-0.189914	-1.792504
H	-2.106014	-1.1329	-1.924001
H	-2.417469	0.255059	-1.135248
Cl	-4.336647	0.0	0.0
