16

C	0.0	0.0	0.0
C	-0.57523	-0.167626	-1.414637
Br	1.958229	0.0	0.0
H	-1.648631	-0.345403	-1.263071
H	-0.283608	1.008	0.306484
C	-0.49561	-1.009521	1.015449
H	-0.167075	-2.016721	0.762187
H	-1.587556	-0.968407	1.012152
H	-0.122025	-0.752174	2.009018
N	-0.015553	-1.418581	-2.039527
O	0.895823	-1.301828	-2.853497
O	-0.488872	-2.489321	-1.657003
N	-0.39673	0.927059	-2.317688
H	0.533434	1.317883	-2.243843
H	-1.085695	1.628594	-2.09085
Cl	-3.703804	0.0	0.0
