16

C	0.0	0.0	0.0
C	-0.553661	-0.074616	-1.416419
Br	1.958786	0.0	0.0
H	-1.641611	-0.183585	-1.298116
H	-0.284233	0.991721	0.349944
C	-0.493815	-1.066816	0.957775
H	-1.583971	-1.09694	0.891537
H	-0.203685	-0.798693	1.975727
H	-0.082092	-2.045367	0.716751
N	-0.076156	-1.366751	-2.090928
O	0.715029	-1.266916	-3.030221
O	-0.512639	-2.428082	-1.653899
N	-0.233434	1.080996	-2.175687
H	0.749976	1.08268	-2.41534
H	-0.775854	1.09852	-3.028789
Cl	-3.740759	0.0	0.0
