16

C	0.0	0.0	0.0
C	-0.578172	0.097777	-1.417651
Br	1.955004	0.0	0.0
H	-1.651164	-0.105037	-1.301925
H	-0.289138	0.930931	0.491553
C	-0.493881	-1.185273	0.80715
H	-0.168298	-2.12645	0.364334
H	-0.117784	-1.123848	1.829885
H	-1.58641	-1.143177	0.813538
N	-0.020284	-1.015803	-2.267418
O	0.884294	-0.748581	-3.05445
O	-0.487703	-2.139945	-2.083517
N	-0.396231	1.34015	-2.100435
H	0.526057	1.72304	-1.935017
H	-1.110737	1.983506	-1.787483
Cl	-3.713653	0.0	0.0
