15

C	0.0	0.0	0.0
C	-0.620026	-0.061747	-1.373473
Br	1.937822	0.0	0.0
H	-0.570129	0.928844	-1.819438
H	-1.713258	-0.267737	-1.143715
N	-0.573063	1.106806	0.637012
H	-1.615882	0.919149	0.544706
H	-0.321309	1.089029	1.620623
N	-0.342794	-1.314932	0.799661
O	-0.816454	-2.269266	0.202097
O	-0.135331	-1.254256	2.008644
N	-0.09057	-0.998244	-2.38016
O	0.649812	-1.923711	-2.053518
O	-0.473972	-0.78635	-3.535432
H	-2.936214	0.0	0.0
