15

C	0.0	0.0	0.0
C	-0.535596	-8e-06	-1.42845
Br	1.937429	0.0	0.0
H	-0.235883	-0.873732	-1.995226
H	-1.653568	0.034019	-1.235202
N	-0.538261	0.945436	0.883764
H	-0.369244	1.859288	0.478362
H	-1.573181	0.758054	0.799323
N	-0.354847	-1.41321	0.573468
O	-0.328365	-2.350657	-0.218227
O	-0.562302	-1.489376	1.773148
N	-0.109611	1.17299	-2.195753
O	-0.150625	2.287199	-1.666111
O	0.230297	0.984387	-3.368053
H	-2.897312	0.0	0.0
