14

C	-0.505664	0.010668	-1.446507
C	0.0	0.0	0.0
Cl	0.183882	-1.333557	-2.388108
H	1.098713	0.0	0.0
H	-0.179793	0.930591	-1.938671
C	-1.966481	-0.061194	-1.48779
N	-3.139413	-0.122079	-1.510589
N	-0.477147	-1.170774	0.684836
H	0.186372	-1.453838	1.393761
H	-1.383214	-0.988238	1.102812
N	-0.520731	1.241273	0.609572
H	-0.252068	1.205779	1.589597
H	0.003671	2.021876	0.221316
Br	3.594982	0.0	0.0
