14

C	-0.575842	-0.019108	-1.422429
C	0.0	0.0	0.0
Cl	0.141408	1.252884	-2.439436
H	1.099131	0.0	0.0
H	-1.643775	0.199825	-1.341237
C	-0.42363	-1.314286	-2.083087
N	-0.298212	-2.356517	-2.609157
N	-0.544621	-1.184904	0.689733
H	-0.106393	-2.014275	0.296843
H	-0.195668	-1.130264	1.642843
N	-0.451956	1.213063	0.643846
H	-1.30234	1.018019	1.164046
H	0.266319	1.55043	1.273116
Br	3.583386	0.0	0.0
