14

C	-0.425696	-0.067873	-1.46313
C	0.0	0.0	0.0
Cl	-2.208228	-0.285102	-1.644405
H	1.101611	0.0	0.0
H	0.036313	-0.934413	-1.944363
C	-0.039163	1.136465	-2.192284
N	0.240001	2.080709	-2.831445
N	-0.49797	-1.192357	0.706791
H	-0.211058	-2.020062	0.190001
H	0.029522	-1.229376	1.574401
N	-0.479737	1.214401	0.609852
H	-1.355076	1.025984	1.082665
H	0.203136	1.555097	1.272665
Br	3.525818	0.0	0.0
