14

C	-0.428517	-0.00711	-1.465954
C	0.0	0.0	0.0
Cl	-2.188879	-0.333302	-1.664335
H	1.102483	0.0	0.0
H	0.094681	-0.830311	-1.952471
C	-0.122615	1.247454	-2.147477
N	0.123856	2.259907	-2.688123
N	-0.409118	-1.247568	0.604886
H	0.257884	-1.49466	1.325272
H	-1.329416	-1.132847	1.014247
N	-0.570761	1.161078	0.69093
H	-0.208777	2.007786	0.258721
H	-0.174617	1.151318	1.626027
Br	3.543625	0.0	0.0
