14

C	-0.597508	-0.005519	-1.412274
C	0.0	0.0	0.0
Cl	-0.036368	1.375353	-2.397696
H	1.093713	0.0	0.0
H	-1.6838	0.106664	-1.320393
C	-0.334586	-1.247799	-2.135348
N	-0.145652	-2.223978	-2.758768
N	-0.416406	-1.256409	0.622125
H	-1.225859	-1.123926	1.216273
H	0.346476	-1.615548	1.181222
N	-0.414142	1.228536	0.665353
H	-1.247017	1.078746	1.222882
H	0.334015	1.535916	1.27358
Br	3.524176	0.0	0.0
