15

C	-0.274634	0.138202	-1.460632
C	0.0	0.0	0.0
Cl	-2.012852	0.248853	-1.93046
H	1.095652	0.0	0.0
H	0.214585	1.031742	-1.839999
N	0.31048	-0.9848	-2.276132
O	0.108857	-2.131806	-1.898373
O	0.923558	-0.65345	-3.288697
C	-0.60091	-1.15056	0.637472
N	-1.081262	-2.029974	1.253788
C	-0.356409	1.288896	0.741361
H	0.213434	2.111636	0.301316
H	-1.424916	1.525538	0.71814
H	-0.033467	1.192445	1.779483
F	2.507487	0.0	0.0
