15

C	-0.261311	0.015313	-1.469692
C	0.0	0.0	0.0
Cl	-1.995641	0.032863	-1.964856
H	1.095067	0.0	0.0
H	0.204346	0.891332	-1.914263
N	0.369823	-1.149151	-2.188391
O	0.936553	-0.884826	-3.246336
O	0.24609	-2.262208	-1.695401
C	-0.600786	-1.100804	0.720193
N	-1.104927	-1.927427	1.388331
C	-0.373168	1.340908	0.631285
H	-0.066796	1.330347	1.678885
H	-1.442749	1.567606	0.573723
H	0.198253	2.130245	0.135476
F	2.508425	0.0	0.0
