15

C	-0.479895	0.004087	-1.443104
C	0.0	0.0	0.0
Cl	0.254184	-1.279346	-2.407334
H	1.095059	0.0	0.0
H	-1.561381	-0.072611	-1.560255
N	-0.153965	1.340841	-2.071581
O	1.023839	1.635572	-2.22949
O	-1.130076	2.06942	-2.299487
C	-0.501886	-1.20963	0.623443
N	-0.930842	-2.172116	1.148418
C	-0.503251	1.234654	0.746742
H	-0.211287	1.143869	1.794084
H	-0.006436	2.122654	0.35014
H	-1.592234	1.374356	0.693908
F	2.518878	0.0	0.0
