16

C	-0.52119	0.011816	-1.426696
C	0.0	0.0	0.0
F	-0.145031	1.260614	-1.964423
H	1.099199	0.0	0.0
H	-0.342045	-0.930312	0.468876
C	0.131657	-1.054006	-2.27564
H	-0.220743	-0.957984	-3.304829
H	1.21499	-0.928321	-2.235343
H	-0.11518	-2.051665	-1.900722
N	-1.962858	-0.036506	-1.517687
H	-2.320642	0.450997	-0.701191
H	-2.265554	-1.002513	-1.468175
N	-0.602457	1.131876	0.72351
H	-0.285669	1.085068	1.684445
H	-0.181132	1.969316	0.335292
Cl	3.645118	0.0	0.0
