16

C	-0.402881	0.155467	-1.454785
C	0.0	0.0	0.0
F	-0.12569	-1.096752	-2.080286
H	1.096427	0.0	0.0
H	-0.383918	-0.950489	0.373805
C	-1.878113	0.406113	-1.686057
H	-2.183273	1.32604	-1.193919
H	-2.455381	-0.423357	-1.274498
H	-2.082122	0.470585	-2.758454
N	0.394148	1.188167	-2.022169
H	1.376921	0.997853	-1.833504
H	0.24927	1.238457	-3.023159
N	-0.555419	1.10565	0.800216
H	-0.22335	0.975614	1.747894
H	-0.094934	1.946793	0.472532
Cl	3.590182	0.0	0.0
