16

C	-0.509273	0.050173	-1.425709
C	0.0	0.0	0.0
F	-1.938678	0.258849	-1.328709
H	1.092233	0.0	0.0
H	-0.340196	-0.94939	0.448311
C	0.041795	1.216808	-2.204914
H	-0.38671	1.236634	-3.211949
H	1.126001	1.117866	-2.262082
H	-0.209222	2.138458	-1.683246
N	-0.260967	-1.17728	-2.090664
H	-0.628222	-1.953375	-1.554293
H	-0.685527	-1.173497	-3.010058
N	-0.455737	1.180709	0.732016
H	-1.411552	1.050073	1.039005
H	0.136633	1.304465	1.5435
Cl	3.640831	0.0	0.0
