16

C	-0.397491	-0.049042	-1.465113
C	0.0	0.0	0.0
F	-1.814325	-0.01649	-1.514235
H	1.095722	0.0	0.0
H	-0.356587	0.93844	0.448642
C	0.118749	1.151771	-2.223824
H	-0.321685	2.065924	-1.818785
H	1.205618	1.211582	-2.124115
H	-0.157118	1.058007	-3.276165
N	0.008714	-1.271608	-2.107528
H	-0.124341	-2.001965	-1.41138
H	1.010898	-1.209204	-2.264601
N	-0.476779	-1.200888	0.688581
H	-1.407261	-1.049562	1.053395
H	0.144558	-1.405311	1.460082
Cl	3.531447	0.0	0.0
