16

C	-0.432837	-0.053012	-1.458549
C	0.0	0.0	0.0
F	-0.236035	-1.381759	-1.882431
H	1.09635	0.0	0.0
H	-0.325215	0.966482	0.405387
C	-1.899376	0.259045	-1.674818
H	-2.154753	0.076601	-2.719398
H	-2.498542	-0.37846	-1.023108
H	-2.109753	1.305813	-1.433332
N	0.406787	0.757957	-2.313827
H	1.377556	0.55836	-2.071637
H	0.254012	1.7344	-2.088954
N	-0.622466	-1.074208	0.785608
H	-0.250758	-1.939287	0.415836
H	-0.25572	-1.001789	1.730099
Cl	3.578279	0.0	0.0
