16

C	-0.437491	-0.132832	-1.45498
C	0.0	0.0	0.0
F	-0.326386	-1.505096	-1.776139
H	1.100933	0.0	0.0
H	-0.317208	0.992982	0.343101
C	-1.88474	0.240315	-1.689948
H	-2.042034	1.305946	-1.505765
H	-2.161842	0.012806	-2.720483
H	-2.505671	-0.328369	-0.999661
N	0.434917	0.559531	-2.361439
H	0.187278	1.538393	-2.424329
H	1.393537	0.478673	-2.029133
N	-0.629887	-1.016207	0.849743
H	-0.250953	-0.90912	1.784881
H	-0.297404	-1.91186	0.511325
Cl	3.591194	0.0	0.0
