16

C	-0.50071	-0.070439	-1.439555
C	0.0	0.0	0.0
F	-0.261799	1.192508	-2.007345
H	1.097372	0.0	0.0
H	-0.380741	0.931462	0.42424
C	0.303403	-1.054478	-2.268735
H	1.366021	-0.810098	-2.211712
H	-0.029243	-1.014239	-3.311511
H	0.152932	-2.06952	-1.891422
N	-1.920435	-0.291968	-1.443824
H	-2.110273	-0.916451	-0.666212
H	-2.207271	-0.738905	-2.306373
N	-0.517647	-1.14953	0.776305
H	0.204191	-1.861939	0.777653
H	-0.615377	-0.862416	1.742238
Cl	3.595258	0.0	0.0
