16

C	-0.45056	-0.216593	-1.438724
C	0.0	0.0	0.0
F	-0.147163	-1.544551	-1.75717
H	1.092097	0.0	0.0
H	-0.366333	-0.81794	0.633602
C	-1.941987	-0.04178	-1.636402
H	-2.240098	0.977042	-1.381886
H	-2.183917	-0.241564	-2.681148
H	-2.486879	-0.74451	-0.99898
N	0.27877	0.609344	-2.377783
H	1.267589	0.415134	-2.221947
H	0.140719	1.567756	-2.071372
N	-0.431138	1.335517	0.446999
H	-1.238728	1.265621	1.053438
H	0.320256	1.746691	0.986538
Cl	3.540198	0.0	0.0
