16

C	-0.515679	-0.003669	-1.434876
C	0.0	0.0	0.0
F	-0.313719	1.286542	-1.93599
H	1.093263	0.0	0.0
H	-0.350997	0.92355	0.480276
C	0.243613	-0.978989	-2.296661
H	1.302281	-0.722498	-2.273153
H	-0.142866	-0.936742	-3.316674
H	0.12842	-1.988212	-1.899945
N	-1.942856	-0.242349	-1.543995
H	-2.415083	0.430661	-0.946395
H	-2.108607	-1.15714	-1.137077
N	-0.464912	-1.218576	0.687347
H	-1.209125	-0.99358	1.334455
H	0.304061	-1.586261	1.23094
Cl	3.632109	0.0	0.0
