16

C	0.0	0.0	0.0
C	-0.50869	-0.087348	-1.440376
Br	1.93753	0.0	0.0
H	-0.268824	0.898682	-1.854081
H	-1.597385	-0.135865	-1.282444
N	-0.611355	1.057784	0.648168
H	-0.413536	1.010662	1.642022
H	-1.657807	0.809204	0.47907
N	-0.295118	-1.370203	0.750393
O	-0.764317	-1.281791	1.878877
O	-0.017397	-2.425202	0.189206
C	-0.008464	-1.180553	-2.373653
H	-0.400228	-2.15596	-2.093269
H	-0.356222	-0.954192	-3.387224
H	1.081779	-1.249102	-2.399341
F	-2.854676	0.0	0.0
