16

C	0.0	0.0	0.0
C	-0.527099	-0.363631	-1.389463
Br	1.937249	0.0	0.0
H	-0.407249	0.567662	-1.951318
H	-1.60468	-0.480079	-1.188458
N	-0.595486	1.177906	0.434632
H	-0.406036	1.303536	1.422976
H	-1.634998	0.927297	0.309516
N	-0.287599	-1.179694	1.02278
O	-0.522367	-0.846125	2.177541
O	-0.20281	-2.339251	0.63353
C	0.074276	-1.519164	-2.174428
H	1.160134	-1.426055	-2.290701
H	-0.368998	-1.519681	-3.176248
H	-0.138565	-2.480915	-1.706045
F	-2.85384	0.0	0.0
