16

C	0.0	0.0	0.0
C	-0.205366	0.147373	-1.549351
Br	1.955473	0.0	0.0
H	0.199282	1.147759	-1.752181
H	0.473655	-0.555111	-2.032991
N	-0.651283	0.878876	0.853457
H	-1.709307	0.586671	0.650064
H	-0.506881	1.81713	0.492909
N	-0.370225	-1.432232	0.430965
O	-0.635752	-1.622217	1.607873
O	-0.321531	-2.300821	-0.435938
C	-1.566901	0.022109	-2.219315
H	-1.972073	-0.978374	-2.08636
H	-2.303659	0.695086	-1.79902
H	-1.40756	0.210568	-3.290603
F	-2.85284	0.0	0.0
