16

C	0.0	0.0	0.0
C	-0.507299	-0.220324	-1.418053
Br	2.016501	0.0	0.0
H	-1.586242	-0.354511	-1.238306
H	-0.385078	0.76355	-1.882538
N	-0.574601	1.137591	0.542337
H	-1.620921	0.90123	0.390554
H	-0.378494	1.167098	1.536923
N	-0.272218	-1.247324	0.915256
O	-0.315483	-1.027879	2.12158
O	-0.412642	-2.349997	0.401484
C	0.084722	-1.293147	-2.317199
H	-0.047101	-2.286881	-1.895971
H	-0.445864	-1.25827	-3.275158
H	1.14684	-1.13251	-2.516978
F	-2.822298	0.0	0.0
