12
Coordinates from ORCA-job run
  C   -0.40632414021062      0.27204578211891      0.47564044326425
  C   0.72646642701584     -0.75161674171934      0.47389427135602
  Cl  -1.33447401378487      0.12264452499573      1.97518458709206
  H   1.38649631930626     -0.53690537278183      1.31829115963593
  H   0.29620124036690     -1.74571269925336      0.60644725605857
  N   -1.37693788081999     -0.04837821716382     -0.68282147037287
  O   -1.55709213557578     -1.23674981785499     -0.90037610900687
  O   -1.89965875396081      0.90494497041918     -1.23877416378535
  C   0.08011753886473      1.63453033547277      0.31591007144816
  N   0.53526385197063      2.71439919767804      0.22254911974925
  C   1.47653035456645     -0.69287508163485     -0.77763899584224
  N   2.07241119226126     -0.63832688027644     -1.78730616959689
