16

C	0.0	0.0	0.0
C	-0.405474	0.022661	-1.495148
Br	1.952734	0.0	0.0
H	-0.15627	1.03439	-1.840432
H	0.256885	-0.665456	-2.022465
C	-0.61585	1.083012	0.836989
H	-0.272422	1.041688	1.868647
H	-0.368387	2.054181	0.405088
H	-1.702897	0.940378	0.815535
N	-0.340306	-1.368883	0.595543
O	-0.275947	-2.336441	-0.157526
O	-0.610837	-1.415925	1.789943
N	-1.760094	-0.300067	-1.834793
H	-2.47793	0.189773	-1.303915
H	-1.935489	-1.283199	-1.678893
Cl	-4.351397	0.0	0.0
