16

C	0.0	0.0	0.0
C	-0.5305	0.199117	-1.426477
Br	1.949242	0.0	0.0
H	-0.316571	1.245965	-1.66667
H	-1.618493	0.095764	-1.331188
C	-0.519214	1.061731	0.938905
H	-0.139439	0.912432	1.94794
H	-1.612994	0.988546	0.930444
H	-0.209475	2.04254	0.574403
N	-0.38094	-1.37226	0.561697
O	-0.68196	-2.257336	-0.233235
O	-0.329752	-1.509067	1.778354
N	-0.04316	-0.632857	-2.507872
H	0.970025	-0.632512	-2.515412
H	-0.351412	-1.579582	-2.337974
Cl	-3.786112	0.0	0.0
