16

C	0.0	0.0	0.0
C	-0.403855	-0.076807	-1.4911
Br	1.950172	0.0	0.0
H	0.193922	-0.86675	-1.948975
H	-0.067982	0.871523	-1.926435
C	-0.600969	1.154969	0.753442
H	-0.335141	2.085678	0.24785
H	-1.691156	1.032494	0.746925
H	-0.251671	1.185628	1.783478
N	-0.357549	-1.311644	0.699921
O	-0.411296	-2.321008	0.003484
O	-0.521188	-1.276116	1.914326
N	-1.782495	-0.297022	-1.806949
H	-2.096162	-1.204162	-1.48982
H	-2.432279	0.362546	-1.392045
Cl	-4.410506	0.0	0.0
