16

C	0.0	0.0	0.0
C	-0.415051	0.154243	-1.484835
Br	1.942399	0.0	0.0
H	0.233099	-0.498774	-2.071878
H	-0.147173	1.185836	-1.745118
C	-0.596952	1.023222	0.929085
H	-0.237436	0.896603	1.948272
H	-0.340499	2.021232	0.570002
H	-1.686028	0.895154	0.912378
N	-0.345295	-1.402144	0.494575
O	-0.469307	-1.560393	1.704004
O	-0.422715	-2.289949	-0.35047
N	-1.77594	-0.109193	-1.85108
H	-2.482189	0.363606	-1.291496
H	-1.981065	-1.093529	-1.751838
Cl	-4.375656	0.0	0.0
