18

C	0.015802	0.126078	0.013741
C	-0.485227	0.174614	-1.429933
F	1.453359	0.005364	-0.029674
H	-1.56851	0.335509	-1.35256
C	-0.161859	1.453079	0.676354
N	-0.334291	2.473452	1.234706
N	-0.553823	-0.935543	0.709418
H	-1.583432	-1.153955	0.382783
H	-0.538689	-0.788385	1.71168
C	-0.272342	-1.181773	-2.09686
H	0.76926	-1.498465	-1.99904
H	-0.519981	-1.109743	-3.161846
H	-0.924459	-1.925059	-1.63911
C	0.173853	1.301583	-2.219332
H	1.251889	1.13868	-2.292675
H	-0.237794	1.33601	-3.232641
H	0.006934	2.278524	-1.756914
H	-2.910576	-1.377435	-0.075166
