18

C	0.013358	0.115252	0.025887
C	-0.507517	0.302075	-1.399233
F	1.449134	-0.011001	-0.049426
H	-1.587813	0.465497	-1.291177
C	-0.144346	1.375744	0.811745
N	-0.303035	2.343189	1.461072
N	-0.554813	-1.003672	0.627471
H	-1.592829	-1.17742	0.300897
H	-0.52301	-0.950543	1.638812
C	-0.319168	-0.988674	-2.191967
H	0.719831	-1.32399	-2.138578
H	-0.5798	-0.815579	-3.242107
H	-0.973787	-1.764377	-1.795783
C	0.15256	1.490857	-2.091138
H	0.006598	2.421759	-1.535896
H	-0.276218	1.62521	-3.088937
H	1.226956	1.323184	-2.199413
H	-2.930708	-1.341688	-0.153759
