13
Coordinates from ORCA-job run
  C   1.13257512913756      0.20025003103240     -0.19084864391511
  C   -0.39674686282452      0.12958270281873     -0.25913318530964
  H   1.41991011729159      0.68048977733557      0.74954040598231
  H   -0.67318060844447     -0.29843161124895     -1.23403672945956
  H   1.49786439001678      0.81405479802040     -1.01613799632629
  C   1.73879468070650     -1.12842306397467     -0.25233370815524
  N   2.17071006608181     -2.21858406677639     -0.30208032829447
  N   -0.90292120973681      1.48699504534211     -0.23708904248492
  H   -0.87811492781046      1.81662630555344      0.72250283214362
  H   -1.86773631112117      1.50673328350348     -0.54389868256885
  N   -0.87543545904988     -0.65227908710839      0.87875352114149
  H   -0.48209164766733     -1.58774838136802      0.86558083441598
  H   -1.88262735657959     -0.74926573312970      0.81918072283067
