15

C	-0.495867	-0.133257	-1.431778
C	0.0	0.0	0.0
F	-1.826475	-0.46348	-1.45828
H	1.089535	0.0	0.0
H	0.078382	-0.903334	-1.945694
N	-0.33238	1.123633	-2.245792
O	-1.276815	1.903381	-2.265069
O	0.742429	1.248141	-2.817764
N	-0.411591	-1.088945	0.815808
H	-1.277461	-1.520726	0.535973
H	0.342737	-1.749351	0.926831
N	-0.527411	1.30575	0.556207
O	-1.546298	1.270445	1.239962
O	0.091538	2.318462	0.238179
Br	3.414623	0.0	0.0
