15

C	-0.604999	-0.111396	-1.381175
C	0.0	0.0	0.0
F	-1.970213	-0.133988	-1.282288
H	1.09027	0.0	0.0
H	-0.257395	-1.034612	-1.843899
N	-0.226365	0.995703	-2.333039
O	-1.089243	1.806198	-2.649908
O	0.929718	0.946389	-2.731819
N	-0.440528	-1.119549	0.759834
H	-1.372994	-0.970995	1.119249
H	0.197863	-1.266801	1.528494
N	-0.418752	1.336911	0.608526
O	-1.045355	1.32132	1.666935
O	-0.080556	2.344459	-0.003666
Br	3.401033	0.0	0.0
