15

C	-0.553006	-0.004785	-1.411005
C	0.0	0.0	0.0
F	-0.037719	1.026242	-2.127952
H	1.089863	0.0	0.0
H	-1.641843	0.038119	-1.44181
N	-0.176768	-1.298515	-2.07927
O	0.975381	-1.413791	-2.467818
O	-1.078301	-2.127106	-2.185067
N	-0.495174	-1.118486	0.722073
H	-1.47169	-1.010045	0.960414
H	0.064095	-1.282913	1.546745
N	-0.482553	1.323538	0.590249
O	-1.708565	1.425478	0.720015
O	0.336041	2.169928	0.920167
Br	3.483327	0.0	0.0
