15

C	-0.555321	-0.003503	-1.410588
C	0.0	0.0	0.0
F	-0.048466	1.032108	-2.127258
H	1.089865	0.0	0.0
H	-1.644797	0.035206	-1.435399
N	-0.177075	-1.291983	-2.088833
O	0.971933	-1.398832	-2.489717
O	-1.077427	-2.127531	-2.181116
N	-0.495844	-1.118486	0.720778
H	0.071554	-1.290711	1.538972
H	-1.470452	-1.00529	0.967949
N	-0.483048	1.328236	0.58153
O	-1.707185	1.415002	0.74584
O	0.331371	2.1974	0.857244
Br	3.475268	0.0	0.0
