15

C	-0.545376	-0.077782	-1.416915
C	0.0	0.0	0.0
F	-0.078355	0.949405	-2.160886
H	1.090437	0.0	0.0
H	-1.635008	-0.077222	-1.438564
N	-0.129898	-1.373381	-2.067599
O	-0.768195	-2.359912	-1.697571
O	0.756434	-1.352677	-2.904641
N	-0.461549	-1.019623	0.888661
H	0.316029	-1.609405	1.14849
H	-1.20996	-1.57809	0.50726
N	-0.503081	1.329507	0.536164
O	-1.675229	1.61947	0.277305
O	0.248114	1.982841	1.245315
Br	3.441285	0.0	0.0
