15

C	-0.608616	-0.113409	-1.380994
C	0.0	0.0	0.0
F	-1.970501	-0.184404	-1.275518
H	1.090073	0.0	0.0
H	-0.229948	-1.015351	-1.859201
N	-0.278512	1.020573	-2.320402
O	-1.161768	1.82858	-2.579718
O	0.860779	0.99848	-2.765438
N	-0.428572	-1.128651	0.755354
H	-1.34843	-0.97802	1.146258
H	0.232736	-1.292104	1.502456
N	-0.42643	1.33036	0.615004
O	-0.076801	2.343058	0.018153
O	-1.070578	1.30569	1.662801
Br	3.401861	0.0	0.0
