13

C	-0.618931	-0.0085	-1.375852
C	0.0	0.0	0.0
Br	0.073756	1.396576	-2.513559
H	1.091693	0.0	0.0
H	-1.700337	0.108067	-1.334414
H	-0.324883	0.936735	0.464319
N	-0.419549	-1.322963	-2.087441
O	0.535929	-2.016753	-1.764234
O	-1.251056	-1.59981	-2.949606
N	-0.58516	-1.135894	0.731654
H	-0.654514	-0.889329	1.709036
H	0.080364	-1.896229	0.67439
Cl	3.522197	0.0	0.0
