16

C	0.0	0.0	0.0
C	-0.373044	0.283372	-1.472038
F	1.397386	0.0	0.0
H	-1.414318	0.59541	-1.57051
H	0.267561	1.126474	-1.757881
C	-0.399837	1.070789	0.917794
N	-0.474201	1.950802	1.692256
C	-0.346897	-1.380913	0.575936
H	0.137742	-2.128611	-0.050882
H	0.072893	-1.436405	1.585597
H	-1.422149	-1.57457	0.610927
C	-0.115037	-0.904561	-2.390417
H	-0.863073	-1.685243	-2.217997
H	0.885708	-1.323757	-2.250426
H	-0.210892	-0.583111	-3.436392
Br	-3.623532	0.0	0.0
