16

C	0.0	0.0	0.0
C	-0.160888	0.154251	-1.560746
F	1.396368	0.0	0.0
H	0.254129	-0.792112	-1.92244
H	0.59414	0.913236	-1.788147
C	-0.414119	1.202344	0.749135
N	-0.609369	2.176845	1.377257
C	-0.532396	-1.271066	0.589415
H	-1.626444	-1.229411	0.60929
H	-0.181041	-2.114433	-0.012674
H	-0.146264	-1.385357	1.60573
C	-1.418633	0.518734	-2.343114
H	-1.232667	0.245378	-3.392633
H	-1.631208	1.58891	-2.264934
H	-2.314947	0.00554	-2.011294
Br	-3.917568	0.0	0.0
