17

C	0.0	0.0	0.0
C	-0.49455	-0.005098	-1.471634
Cl	1.796307	0.0	0.0
H	-0.213333	-0.954692	-1.933935
N	-0.543142	1.12303	0.696677
H	-0.186362	1.968264	0.254509
H	-0.199403	1.112862	1.65468
N	-0.419977	-1.24797	0.718651
O	-0.30648	-1.203688	1.984034
O	-0.209006	-2.329809	0.095667
N	0.095961	1.079791	-2.201885
H	0.01667	0.87128	-3.188778
H	-0.440082	1.928404	-2.045979
N	-2.005566	0.107339	-1.455593
O	-2.593938	-0.81515	-0.750791
O	-2.506307	0.397251	-2.597642
H	-1.570322	0.0	0.0
