16

C	0.0	0.0	0.0
C	-0.525147	-0.078323	-1.443888
F	1.378637	0.0	0.0
H	-1.630893	-0.040182	-1.382256
C	-0.417375	1.299272	0.560176
N	-0.608031	2.376407	0.98803
C	-0.470475	-1.162522	0.84913
H	-0.006672	-2.080342	0.48269
H	-1.558751	-1.232659	0.802308
H	-0.149671	-0.991932	1.878226
N	-0.132442	-1.415663	-2.019856
O	-0.964168	-2.313886	-1.936971
O	1.000019	-1.516141	-2.489443
C	0.041161	0.972932	-2.278319
N	0.47828	1.822196	-2.961659
Br	-3.695588	0.0	0.0
