16

C	0.0	0.0	0.0
C	-0.227573	-0.230497	-1.5349
F	1.390421	0.0	0.0
H	0.52123	0.412387	-2.008396
C	-0.420425	1.348884	0.402689
N	-0.611393	2.433401	0.811678
C	-0.5485	-1.066678	0.908305
H	-1.642094	-1.052257	0.831918
H	-0.248836	-0.846249	1.935505
H	-0.152062	-2.040421	0.612879
N	-1.515208	0.223315	-2.199714
O	-1.681084	1.435773	-2.185248
O	-2.190547	-0.621234	-2.766436
C	0.065693	-1.61557	-1.883887
N	0.340133	-2.725025	-2.152227
Br	-3.865309	0.0	0.0
