16

C	0.0	0.0	0.0
C	-0.264618	-0.0666	-1.535534
F	1.382347	0.0	0.0
H	0.072035	-1.061234	-1.849145
C	-0.421455	1.256593	0.638003
N	-0.626946	2.232516	1.25736
C	-0.471018	-1.228535	0.742708
H	-0.106249	-1.163155	1.771181
H	-1.561727	-1.286972	0.740524
H	-0.030596	-2.108862	0.266748
N	0.744067	0.871643	-2.199395
O	1.532333	0.364325	-2.995677
O	0.676887	2.05591	-1.893735
C	-1.535109	0.236048	-2.202974
N	-2.255826	0.458135	-3.115321
Br	-3.614423	0.0	0.0
