16
Coordinates from ORCA-job run
  C   0.54628089428388     -0.67228827675298      0.00304291854549
  C   -0.85950141776165     -0.06802974029171     -0.08349582746415
  Cl  0.54330634065948     -2.41180976939469     -0.31201994079695
  H   -1.51962764233062     -0.64940933600915      0.56486971898219
  N   1.00453812777019     -0.56055006294974      1.49352349362414
  O   2.20479307344014     -0.41023821461310      1.68350826409076
  O   0.14195836714718     -0.64981944126987      2.36177168097317
  N   1.42300291497145     -0.00249818440211     -0.86519675353269
  H   2.36498771182115     -0.36401310056820     -0.79440888841736
  H   1.40132964816598      0.98390950288490     -0.62689582800847
  N   -1.31158883620194     -0.20686010329224     -1.43639397962882
  H   -0.70148780170504      0.28674785061913     -2.07447892735895
  H   -2.26849300703230      0.10048349937763     -1.54119392348000
  N   -0.70742894303225      1.32747662514649      0.36615378213460
  H   -0.86700652637573      1.39536379543622      1.36500841867867
  H   -1.39506290381992      1.90253495607941     -0.10279420834162
