16
Coordinates from ORCA-job run
  C   0.45137434858796     -0.60234630957181      0.42850166140684
  C   -0.77847294356300      0.29298588052652      0.24225175482129
  Cl  0.24224121746302     -1.75253383576335      1.75481713894789
  H   -1.01791639388358      0.74631801723965      1.20730070803844
  N   1.62137650993672      0.31606136156489      0.90803705308405
  O   2.74800568218514     -0.01041507308461      0.55666159357336
  O   1.33580081413346      1.27942059218271      1.61254871257705
  N   0.76291892398377     -1.26388101668936     -0.76998950456013
  H   0.89343890360095     -0.55878232870747     -1.48831733571038
  H   1.59369233683366     -1.83308688883303     -0.67612216822933
  N   -1.87255279686072     -0.54475335274054     -0.15187992761008
  H   -1.67152970165306     -1.01513225521022     -1.02448352290875
  H   -2.73561738473914     -0.02277279123913     -0.21363424979910
  N   -0.38028809589948      1.28875421999006     -0.76909770023460
  H   0.00476455676130      2.11217848109770     -0.32017919400634
  H   -1.19723597688701      1.56998529923798     -1.29541501939021
