16
Coordinates from ORCA-job run
  C   0.49156796935519     -0.59626659642466      0.09337037037922
  C   -0.58044562446050      0.47084019865550     -0.17388227959740
  Cl  -0.21786990096435     -2.14703421798880      0.50861711862065
  H   -0.01115348540781      1.38504814590770     -0.39916448119235
  N   1.28275694349160     -0.06525618463015      1.32558619831791
  O   1.95225354989521      0.93244831224563      1.06012526448046
  O   1.20315693224212     -0.61431577645243      2.40876634461907
  N   1.34051937287492     -0.74195934406108     -1.04031597620177
  H   1.88839057082405      0.10415354961762     -1.15298774057399
  H   1.96233811190046     -1.53450141244482     -0.93383784983684
  N   -1.30829946060153      0.72104000114343      1.04371887316926
  H   -1.75964320869716      1.62521484932297      1.01278968451181
  H   -2.02071119738765      0.00781338378363      1.15101551165175
  N   -1.41375532100344      0.00614566742821     -1.26913447636684
  H   -0.82781000429740     -0.32579746375364     -2.02738507537633
  H   -1.97929524776370      0.77442688765088     -1.60928148660463
