16
Coordinates from ORCA-job run
  C   0.64044115620705     -0.67750695288125      0.13991452329763
  C   -0.77786348912781     -0.10300471210549     -0.08757226439606
  Cl  0.59124142075432     -2.43568717145142     -0.03238656581919
  H   -1.48565247195988     -0.72803126653650      0.46679883629124
  N   0.97825385904715     -0.36629718893786      1.60450896462034
  O   0.16579359129862     -0.77538240037111      2.43017647280746
  O   1.96587185111840      0.31542497481314      1.83895748831706
  N   1.67007250651719     -0.15289262014412     -0.67688967131578
  H   1.50872517620897     -0.44744593924028     -1.63164926196845
  H   1.67029207729191      0.85868247438279     -0.60902242032904
  N   -1.05996494867907     -0.20873453523059     -1.49830978746214
  H   -0.73247721156044      0.62269390111731     -1.97503346847222
  H   -2.04925826521696     -0.32048083948500     -1.66840646501881
  N   -0.74293644488280      1.29285628101325      0.34803229892556
  H   -0.77638940158531      1.35828824714327      1.35993426895075
  H   -1.56514940543134      1.76551774791384     -0.00805294842836
