15

C	0.0	0.0	0.0
C	-0.560383	-0.031507	-1.414503
Br	1.952861	0.0	0.0
H	-1.663125	0.010176	-1.189031
H	-0.255274	-0.95928	0.467646
N	-0.525823	1.151451	0.666647
H	-1.555668	1.008271	0.576122
H	-0.308735	1.090179	1.655315
C	-0.261126	-1.317483	-2.175938
H	0.811019	-1.458949	-2.333353
H	-0.758989	-1.302427	-3.148351
H	-0.654999	-2.165292	-1.608231
C	-0.178197	1.146246	-2.180932
N	0.101601	2.054342	-2.87393
H	-2.99555	0.0	0.0
