15

C	0.0	0.0	0.0
C	-0.562168	0.005233	-1.412856
Br	1.952933	0.0	0.0
H	-1.666007	0.030818	-1.183368
H	-0.254353	-0.972509	0.440064
N	-0.527401	1.130617	0.701737
H	-1.558315	0.984078	0.610029
H	-0.301152	1.041658	1.68815
C	-0.252976	-1.256061	-2.212166
H	-0.755312	-1.219635	-3.181428
H	-0.633041	-2.124597	-1.667527
H	0.81975	-1.379477	-2.378617
C	-0.193127	1.206523	-2.148333
N	0.07746	2.134538	-2.818211
H	-2.996722	0.0	0.0
