15

C	0.0	0.0	0.0
C	-0.441989	-0.22995	-1.484417
Br	1.939643	0.0	0.0
H	0.45313	-0.492446	-2.0569
H	-0.242056	-0.902088	0.571299
N	-0.559278	1.200818	0.53431
H	-1.591685	0.967828	0.451042
H	-0.350747	1.225195	1.529888
C	-1.068599	0.993762	-2.15078
H	-2.042266	1.172467	-1.691152
H	-1.191529	0.795949	-3.220704
H	-0.425414	1.864226	-2.009892
C	-1.295278	-1.420034	-1.611567
N	-1.773777	-2.457156	-1.892039
H	-2.86717	0.0	0.0
