15

C	0.0	0.0	0.0
C	-0.543558	0.044407	-1.431994
Br	1.957364	0.0	0.0
H	-1.646857	0.041989	-1.19747
H	-0.290564	-0.967887	0.414599
N	-0.514453	1.019782	0.859719
H	-1.539477	0.830276	0.834919
H	-0.367924	1.924188	0.418558
C	-0.191948	-1.163273	-2.293266
H	0.881	-1.222952	-2.491983
H	-0.506617	-2.072481	-1.771877
H	-0.726449	-1.119996	-3.245911
C	-0.208014	1.299003	-2.087525
N	0.064166	2.312302	-2.620113
H	-2.986387	0.0	0.0
