16

C	0.0	0.0	0.0
C	-0.601664	-0.188625	-1.408207
Br	1.954882	0.0	0.0
H	-1.703777	-0.067747	-1.122636
C	-0.477166	1.303029	0.635026
H	-0.122279	2.149458	0.041178
H	-0.093689	1.394864	1.653865
H	-1.571946	1.216432	0.614825
C	-0.390997	-1.150727	0.819792
N	-0.593049	-2.092506	1.492873
N	-0.389153	-1.480037	-2.035443
H	0.579222	-1.770217	-1.933497
H	-0.979619	-2.154732	-1.562219
C	-0.167163	0.891626	-2.289041
N	0.156218	1.777422	-2.990031
F	-2.822334	0.0	0.0
