16

C	0.0	0.0	0.0
C	-0.341529	-0.007643	-1.563939
Br	1.953442	0.0	0.0
H	0.402861	0.674247	-1.991461
C	-0.582196	1.231598	0.661838
H	-0.256503	1.300429	1.702114
H	-1.674344	1.082499	0.597731
H	-0.260764	2.128873	0.124738
C	-0.435527	-1.216908	0.675907
N	-0.707169	-2.206498	1.249741
N	-1.646111	0.399346	-1.988427
H	-2.371673	0.108396	-1.248771
H	-1.661694	1.41284	-1.994961
C	-0.018415	-1.344022	-2.104141
N	0.23889	-2.391783	-2.568822
F	-3.098214	0.0	0.0
