16

C	0.0	0.0	0.0
C	-0.35495	-0.033495	-1.540425
Br	1.959893	0.0	0.0
H	0.490686	0.448678	-2.042669
C	-0.536323	1.250471	0.675096
H	-1.628857	1.130482	0.647296
H	-0.16688	1.303392	1.702189
H	-0.225664	2.135805	0.119162
C	-0.429329	-1.197567	0.716108
N	-0.675976	-2.166867	1.333534
N	-1.549936	0.703755	-1.862149
H	-1.787584	0.514622	-2.829719
H	-2.32982	0.385653	-1.195413
C	-0.324018	-1.440446	-2.016572
N	-0.319069	-2.515306	-2.4942
F	-3.039174	0.0	0.0
