16

C	0.0	0.0	0.0
C	-0.539333	0.115	-1.471195
Br	1.952228	0.0	0.0
H	0.331348	0.129342	-2.137059
C	-0.42718	1.143112	0.924221
H	-0.111644	2.096279	0.501803
H	0.032959	0.996672	1.906508
H	-1.516906	1.070249	0.97787
C	-0.37961	-1.263905	0.635499
N	-0.560137	-2.258768	1.234014
N	-1.274457	1.355874	-1.641282
H	-2.137411	1.131988	-1.105813
H	-1.49573	1.447417	-2.628596
C	-1.326035	-1.080358	-1.848144
N	-1.870809	-2.000241	-2.334563
F	-2.740126	0.0	0.0
