15

C	0.0	0.0	0.0
C	-0.604181	-0.000917	-1.386791
Cl	1.797741	0.0	0.0
H	-0.558766	1.0095	-1.793376
H	-1.669446	-0.279548	-1.285584
N	-0.539675	1.07405	0.70868
H	-0.387418	1.973753	0.284675
H	-0.328026	1.041588	1.694166
N	-0.400003	-1.250091	0.796292
O	-0.939657	-2.163763	0.198492
O	-0.141045	-1.204174	1.993373
N	0.051219	-0.862528	-2.406858
O	0.643415	-1.878103	-2.057715
O	-0.08991	-0.491125	-3.572328
Cl	-3.752099	0.0	0.0
