15

C	0.0	0.0	0.0
C	-0.617545	0.030812	-1.380071
Cl	1.797387	0.0	0.0
H	-1.679036	-0.251305	-1.262316
H	-0.576945	1.046566	-1.77112
N	-0.535252	1.05196	0.745593
H	-0.287191	1.005743	1.722166
H	-0.395735	1.962702	0.339307
N	-0.385101	-1.275424	0.76816
O	-0.101383	-1.26591	1.961155
O	-0.939926	-2.171358	0.155548
N	0.026235	-0.816239	-2.419763
O	0.624802	-1.835248	-2.093039
O	-0.128234	-0.42707	-3.577972
Cl	-3.752379	0.0	0.0
