15

C	0.0	0.0	0.0
C	-0.533063	-0.18221	-1.410964
Cl	1.776731	0.0	0.0
H	-1.628037	-0.163783	-1.352609
H	-0.151325	-1.099927	-1.842759
N	-0.527638	1.108472	0.643228
H	-0.284678	1.095702	1.626229
H	-1.549393	1.077795	0.533777
N	-0.313409	-1.354838	0.764247
O	-0.457259	-1.247856	1.974204
O	-0.330167	-2.396687	0.122637
N	-0.080738	0.928021	-2.289768
O	-0.63804	2.015336	-2.176862
O	0.818429	0.671959	-3.095219
Cl	-3.532125	0.0	0.0
