15

C	0.0	0.0	0.0
C	-0.5126	-0.011459	-1.426339
Cl	1.826332	0.0	0.0
H	-1.607981	0.027148	-1.379516
H	-0.149821	-0.88679	-1.951359
N	-0.515433	1.021407	0.775086
H	-0.28761	0.87265	1.750614
H	-1.536713	1.020424	0.650877
N	-0.289787	-1.435527	0.598982
O	-0.416961	-1.474713	1.814644
O	-0.313309	-2.39256	-0.162747
N	-0.023773	1.174796	-2.176824
O	0.831131	0.972768	-3.043176
O	-0.514029	2.26749	-1.909737
Cl	-3.507428	0.0	0.0
