15

C	0.0	0.0	0.0
C	-0.503488	-0.042121	-1.429078
Cl	1.827498	0.0	0.0
H	-1.596725	0.036231	-1.397389
H	-0.17176	-0.950651	-1.917525
N	-0.517875	1.029594	0.758344
H	-1.538403	1.03016	0.62735
H	-0.299011	0.892274	1.737774
N	-0.285349	-1.432153	0.624374
O	-0.277191	-2.405962	-0.11563
O	-0.437763	-1.445003	1.837629
N	0.039105	1.090692	-2.223818
O	0.835697	0.808594	-3.122518
O	-0.353925	2.222468	-1.95731
Cl	-3.497894	0.0	0.0
