15

C	0.0	0.0	0.0
C	-0.534235	-0.107976	-1.417624
Cl	1.776895	0.0	0.0
H	-1.629123	-0.122015	-1.354567
H	-0.127545	-0.983357	-1.911532
N	-0.527415	1.075081	0.697618
H	-0.303198	1.002884	1.681974
H	-1.548046	1.063343	0.574881
N	-0.310713	-1.393022	0.694177
O	-0.445289	-1.350689	1.908608
O	-0.333146	-2.397825	-0.003721
N	-0.118315	1.072236	-2.220563
O	0.823453	0.914542	-3.003547
O	-0.746443	2.115797	-2.070959
Cl	-3.545378	0.0	0.0
