17

C	-0.414229	-0.000879	-1.464805
C	0.0	0.0	0.0
Br	-2.643685	-0.053337	-1.432727
H	1.097013	0.0	0.0
N	0.013248	1.11364	-2.115912
H	-0.053569	1.931226	-1.519739
H	-0.263529	1.227245	-3.077423
C	-0.177513	-1.236802	-2.194018
N	0.023519	-2.233108	-2.785784
C	-0.469582	-1.206295	0.793571
H	0.029092	-1.189232	1.765794
H	-1.552416	-1.196489	0.940376
H	-0.18968	-2.139378	0.297918
N	-0.376559	1.301725	0.548927
H	-1.287729	1.250496	0.989369
H	0.316787	1.569533	1.236145
Cl	3.354507	0.0	0.0
