17

C	-0.543701	0.021686	-1.436394
C	0.0	0.0	0.0
Br	0.226726	1.532368	-2.419631
H	1.093994	0.0	0.0
N	-0.214686	-1.176822	-2.175291
H	-0.653387	-1.975161	-1.731848
H	-0.557955	-1.104463	-3.125613
C	-2.000874	0.275833	-1.390188
N	-3.175062	0.346633	-1.359743
C	-0.454453	-1.263468	0.728728
H	-0.073436	-1.216626	1.751177
H	-0.030611	-2.163063	0.277956
H	-1.548197	-1.345374	0.766081
N	-0.465899	1.21587	0.668513
H	-1.107921	0.997144	1.419548
H	0.333389	1.698902	1.057383
Cl	3.452313	0.0	0.0
