17

C	-0.299771	-0.003041	-1.509394
C	0.0	0.0	0.0
Br	-0.084583	1.932237	-2.234947
H	1.096472	0.0	0.0
N	0.588638	-0.889112	-2.134539
H	0.531187	-0.873121	-3.143273
H	1.544553	-0.727467	-1.81056
C	-1.69662	-0.296954	-1.833652
N	-2.820146	-0.572095	-2.042801
C	-0.486032	-1.307991	0.611606
H	-0.127046	-2.162554	0.038574
H	-1.579214	-1.326536	0.659809
H	-0.084947	-1.390847	1.626522
N	-0.636274	1.114116	0.687512
H	-0.549634	0.941164	1.683244
H	-0.106753	1.956734	0.494555
Cl	3.437827	0.0	0.0
