17

C	-0.542088	0.030171	-1.433344
C	0.0	0.0	0.0
Br	0.337924	-1.443363	-2.511011
H	1.093683	0.0	0.0
N	-1.966333	-0.098906	-1.45195
H	-2.323748	0.025541	-2.392165
H	-2.226592	-1.023343	-1.130533
C	-0.177951	1.266646	-2.129321
N	0.064712	2.21679	-2.775889
C	-0.464211	-1.233707	0.771492
H	-0.208369	-2.162529	0.256802
H	0.049594	-1.239478	1.735184
H	-1.543268	-1.207529	0.966357
N	-0.419554	1.263429	0.597967
H	0.243523	1.525998	1.318322
H	-1.350278	1.187555	0.993884
Cl	3.444242	0.0	0.0
