14
Coordinates from ORCA-job run
  C   -0.83248785543543     -0.33204500978766     -0.43654554473227
  C   0.44762453129135     -0.17923515796945      0.38559248400062
  F   -0.80895093641407      0.65779148160461     -1.43824456164027
  H   0.45989888665371     -1.01123348664824      1.09746069161787
  H   -0.80992178340707     -1.28911554079493     -0.96507787081514
  N   -1.98597482409721     -0.26770144583926      0.37433909794318
  H   -2.06423888423874      0.63340543352890      0.83098944292576
  H   -2.82370320206149     -0.43780898857050     -0.16596655861471
  C   0.37939366526665      1.06354514456994      1.15949506994525
  N   0.30181512834039      2.06362175983578      1.76915398355623
  C   1.70219074149253     -0.21412260207119     -0.48914238271237
  H   1.70381759735885      0.62361411495721     -1.18504020371743
  H   1.72655632421788     -1.14377232943526     -1.06244239727779
  H   2.60198061103264     -0.16494337337994      0.12542874952106
