14
Coordinates from ORCA-job run
  C   -1.00386688315980     -0.13516865695076      0.19401799594653
  C   0.51435423701030     -0.26570899088768      0.31206143111797
  F   -1.57071070243816     -1.06020346920978      1.08608837813069
  H   0.77746260409327     -1.28141487652024     -0.00999628477015
  H   -1.33214380331667      0.85185545075031      0.53046503058969
  N   -1.42482467736534     -0.34328542353232     -1.14121242635152
  H   -1.22543161354427     -1.29260566834092     -1.43332889118399
  H   -2.41735686687182     -0.17488175699022     -1.23880294672911
  C   0.91237966481130     -0.13579024641722      1.71583724878608
  N   1.25512339543349      0.00927102187168      2.82881991226713
  C   1.24608675497487      0.76372100529039     -0.55266436265820
  H   2.32628124573725      0.65105914257663     -0.44952760900400
  H   0.96559253896089      0.63460275250266     -1.59668714232925
  H   0.97805410567470      1.77654971585747     -0.24407033381187
