14
Coordinates from ORCA-job run
  C   -0.86060505780418     -0.70602092652954     -0.07971422693688
  C   0.54513170912748     -0.35552042455477      0.42428297826962
  F   -0.71328393198666     -1.60306441147162     -1.12728754670285
  H   0.99996474220195     -1.29757527783621      0.74921779789599
  H   -1.40663948792145     -1.25928250431133      0.69690155709620
  N   -1.53163493873034      0.45162160858290     -0.58479387611731
  H   -1.52286664474687      1.20190512375176      0.09504479236523
  H   -2.49321093235254      0.23158048304262     -0.81073434766956
  C   0.42328861718740      0.51379907586414      1.59554947558501
  N   0.28755511070981      1.23679016998329      2.51105877265386
  C   1.41041401285518      0.28457096444931     -0.66431008372888
  H   1.45645379115453     -0.38559323263713     -1.52246488346341
  H   0.98459994511987      1.23217758461893     -0.98994906415382
  H   2.42183306518583      0.45461176704763     -0.29180134509322
