14
Coordinates from ORCA-job run
  C   -1.01326477055413     -0.06050503934615      0.16679107427177
  C   0.48823405358150     -0.29153871826193      0.33528754882875
  F   -1.66895603010062     -0.92362854038875      1.05968098572917
  H   0.68928378680735     -1.33280662050065      0.05239118404404
  H   -1.28224998776204      0.95423091451483      0.47180927655009
  N   -1.40755867703687     -0.27033097826122     -1.17633725583832
  H   -2.38286566707353     -0.03690520387475     -1.30793325086301
  H   -1.26590492919771     -1.23772825928649     -1.44173437247753
  C   0.84999776989552     -0.14562708026489      1.74729649092880
  N   1.13174753300892      0.00292180403664      2.87675613073727
  C   1.31503036001239      0.65701511487894     -0.53609037622637
  H   2.38143081713567      0.47957826310203     -0.38931903771869
  H   1.06356197567344      0.50884867492386     -1.58498590939412
  H   1.10251376561009      1.69547566872851     -0.27261248857185
