14
Coordinates from ORCA-job run
  C   -0.92948947395951     -0.62122843993521      0.07665309144197
  C   0.52549748997749     -0.35481398953151      0.47207032218769
  F   -0.87936069472733     -1.64272180809645     -0.89837033429079
  H   0.95902813115312     -1.32781673164038      0.72613368190608
  H   -1.48247186160215     -1.04135085204615      0.91950570132879
  N   -1.58543686926365      0.54028905173094     -0.38035874996004
  H   -1.18493329143858      0.87978080396648     -1.24443037166033
  H   -2.57380858342237      0.37800547525773     -0.51617400966820
  C   0.55869667581531      0.47869430069430      1.67466854561273
  N   0.60216370342199      1.14798690618957      2.63777027030030
  C   1.34136459418506      0.27600096158974     -0.65969288068524
  H   2.39702963845013      0.31268061784554     -0.38797177336854
  H   1.01403650001360      1.29798178735076     -0.85656951841615
  H   1.23768404139690     -0.32348808337536     -1.56523397472828
