14
Coordinates from ORCA-job run
  C   -0.90779021993095     -0.64680974897249      0.11625336020249
  C   0.55331717810296     -0.33701414269670      0.45299904606655
  F   -0.86679463386746     -1.67143428738376     -0.85563368958742
  H   1.02387424756993     -1.29551225692493      0.69627453609682
  H   -1.41497882229209     -1.07797823516617      0.98198709757279
  N   -1.61410433236928      0.49329241829632     -0.31913711579084
  H   -1.25779182487591      0.83991645359972     -1.19963479800474
  H   -2.60213472016460      0.30298535064526     -0.41434393994610
  C   0.60949582483069      0.50588402802967      1.64828963295916
  N   0.67080992723609      1.18320905290220      2.60477957103004
  C   1.30659954803063      0.30802472170259     -0.71358589720089
  H   0.94162462910990      1.31821582314229     -0.90576896137764
  H   1.18662040462030     -0.30225992250266     -1.61000727994070
  H   2.37025279399977      0.37848074532866     -0.48247156207952
