14
Coordinates from ORCA-job run
  C   -0.82756015816318     -0.36414756647699     -0.42005185620550
  C   0.46286175595245     -0.16093437743989      0.37439806360172
  F   -0.87035813945163      0.63338820414626     -1.41351038824465
  H   0.52556240885722     -0.99437410857453      1.08192044901235
  H   -0.77490847329579     -1.31510785609916     -0.95737140085539
  N   -1.96434265473158     -0.35737937135726      0.41638699255594
  H   -2.07271591167898      0.53639487174346      0.88126016260304
  H   -2.80505932925729     -0.56157786158983     -0.10712274638662
  C   0.36118020749223      1.07455634571177      1.15601800290516
  N   0.25864083832883      2.06893439343718      1.77139122891641
  C   1.69846358021547     -0.13953494453139     -0.52760757628652
  H   1.64216903589567      0.69242943813799     -1.22840055051480
  H   2.60756939586451     -0.04044826094060      0.06710070378407
  H   1.75749744397207     -1.07119890616701     -1.09541108488521
