14
Coordinates from ORCA-job run
  C   -1.00488924109995     -0.16809229232902      0.21511364860179
  C   0.50242727277167     -0.31984879670095      0.40349578655109
  F   -1.63750385775483     -1.06079421623848      1.05660408048940
  H   0.71738785192172     -1.37978407413910      0.23312093173685
  H   -1.32867072143942      0.83532473593833      0.52864993357013
  N   -1.37599292592945     -0.52808109844484     -1.13367201090237
  H   -1.26525844007581      0.26778204845647     -1.75029327277248
  H   -2.35917601590531     -0.77501217437545     -1.12957078137688
  C   0.85782439828507      0.01747848948925      1.78366284593896
  N   1.13305849429475      0.32049127148942      2.88369095984424
  C   1.29059418679805      0.53921541372548     -0.58803995761270
  H   1.09426290646916      0.20078177777515     -1.60580999681069
  H   1.01537324425739      1.59323128370817     -0.49505280291955
  H   2.36156284740697      0.45530763164557     -0.40089936433780
