14
Coordinates from ORCA-job run
  C   -0.92161414533513     -0.72459008292144     -0.04594618911158
  C   0.50416281953866     -0.37807087247040      0.42943871833055
  F   -0.74657644044838     -1.66654123499763     -1.05615728629201
  H   0.96319900940801     -1.31135764822700      0.77391591896173
  H   -1.46517636439628     -1.22019122375500      0.76268661706739
  N   -1.71257728138882      0.34801402222965     -0.53077615498777
  H   -1.18875920351244      1.04821549799128     -1.03389851237033
  H   -2.27375313897119      0.77388837171560      0.19014079515193
  C   0.39904294525931      0.52851700028149      1.57327050971338
  N   0.27924039502508      1.27379235525528      2.47253248083281
  C   1.37421447266301      0.22155571336446     -0.67858755545565
  H   1.00731710883102      1.20058659677557     -0.99294378441908
  H   2.39781646029641      0.35403076210442     -0.32588160140748
  H   1.38246336303073     -0.44884925734630     -1.53779395601387
