14
Coordinates from ORCA-job run
  C   -0.87144137760159     -0.69142943993385     -0.09112500220166
  C   0.52512312881922     -0.35689493278940      0.44779700435327
  F   -0.71093696850046     -1.61285743854809     -1.11534727419354
  H   0.95264681748378     -1.30015080758936      0.80482220961644
  H   -1.45073533873715     -1.21823933419896      0.67981965580304
  N   -1.50420990028680      0.46776230287989     -0.63965807932726
  H   -1.49993148463562      1.23267019397394      0.02367475656931
  H   -2.46261787674551      0.26154572144655     -0.89093061447709
  C   0.38522860099041      0.53885613946749      1.59690763589957
  N   0.23535436136449      1.28301570496838      2.49290009058706
  C   1.43433578126418      0.24438182632735     -0.62716986269661
  H   1.48745938796920     -0.44076019538384     -1.47284462717630
  H   2.43902428474910      0.39699276067642     -0.22988878245352
  H   1.04070058386675      1.19610749870347     -0.97995711030271
