14
Coordinates from ORCA-job run
  C   -0.91540035859725     -0.73541531434112     -0.01267189315405
  C   0.51019367741373     -0.35804894182731      0.43758945647568
  F   -0.73851523836965     -1.71305890125698     -0.98922648715850
  H   0.98179786581049     -1.27502810258988      0.80762901326476
  H   -1.44747944357227     -1.20722085365297      0.81770076896055
  N   -1.72009006647456      0.31143899394519     -0.52906969530208
  H   -1.20698208758352      1.00650237433613     -1.04992871438406
  H   -2.29394135751395      0.74637892328718      0.17605316864507
  C   0.40890598323049      0.58585342958841      1.55121637132400
  N   0.31551670812350      1.36687613463424      2.42287232765753
  C   1.36377450244191      0.21331952649160     -0.69794625064269
  H   1.37010338249723     -0.48436522799995     -1.53510861139272
  H   2.38928075859572      0.36634128272194     -0.35937646505845
  H   0.98483567399814      1.17842667666353     -1.03973298923507
