17

C	-0.25527	-0.012747	-1.521862
C	0.0	0.0	0.0
F	-1.628281	-0.14391	-1.753436
H	1.091705	0.0	0.0
C	0.247835	1.219792	-2.232922
H	-0.336584	2.093773	-1.962755
H	0.16991	1.029835	-3.302043
H	1.287129	1.389408	-1.95296
N	0.385055	-1.17843	-2.087967
H	1.366315	-1.129103	-1.799179
H	-0.011048	-2.007008	-1.649661
C	-0.515217	-1.208737	0.612508
N	-0.866347	-2.249649	1.033812
N	-0.461771	1.182036	0.736359
O	-0.001614	2.270093	0.375096
O	-1.210351	1.033514	1.710285
H	2.516728	0.0	0.0
