17

C	-0.457203	-0.027833	-1.467553
C	0.0	0.0	0.0
F	-0.125848	1.24014	-1.996306
H	1.090787	0.0	0.0
C	0.351801	-1.050698	-2.229034
H	0.130847	-0.961545	-3.296871
H	1.412684	-0.859095	-2.047461
H	0.095443	-2.056482	-1.891689
N	-1.859991	-0.253875	-1.573901
H	-2.150761	-0.131064	-2.536857
H	-2.370851	0.392171	-0.982809
C	-0.487945	-1.162634	0.718813
N	-0.788737	-2.132854	1.310176
N	-0.510023	1.240917	0.646436
O	-1.640941	1.208325	1.154796
O	0.212692	2.230284	0.608271
H	2.650804	0.0	0.0
