17

C	-0.327	0.039712	-1.509764
C	0.0	0.0	0.0
F	-0.112903	-1.309188	-1.932536
H	1.092017	0.0	0.0
C	-1.776073	0.331618	-1.832086
H	-2.421085	-0.408468	-1.356359
H	-2.041593	1.331354	-1.488768
H	-1.922869	0.281208	-2.915407
N	0.572042	0.919454	-2.141443
H	0.576769	0.747396	-3.138598
H	1.508415	0.786125	-1.747388
C	-0.557116	-1.172743	0.640386
N	-0.960284	-2.152199	1.150577
N	-0.443745	1.223431	0.693542
O	-1.280954	1.127024	1.603791
O	0.08748	2.276919	0.34144
H	2.569066	0.0	0.0
