17

C	-0.442299	-0.047634	-1.47176
C	0.0	0.0	0.0
F	-0.123533	1.236726	-1.982402
H	1.090796	0.0	0.0
C	0.411642	-1.044897	-2.217209
H	1.463033	-0.833814	-2.003871
H	0.169386	-2.056793	-1.887598
H	0.212465	-0.959539	-3.289777
N	-1.832598	-0.307994	-1.616643
H	-2.090613	-0.211479	-2.592087
H	-2.371967	0.341406	-1.055658
C	-0.504434	-1.136209	0.74731
N	-0.839459	-2.083709	1.357062
N	-0.515995	1.261824	0.619859
O	0.283274	2.158957	0.847363
O	-1.73266	1.326582	0.840408
H	2.694182	0.0	0.0
