17

C	-0.335087	0.058915	-1.505377
C	0.0	0.0	0.0
F	-0.207062	-1.309219	-1.917981
H	1.092041	0.0	0.0
C	-1.757319	0.4373	-1.853384
H	-2.455189	-0.241546	-1.358144
H	-1.950284	1.464974	-1.551844
H	-1.894909	0.346305	-2.935132
N	0.627902	0.862066	-2.146723
H	1.552395	0.658398	-1.757462
H	0.611651	0.698523	-3.145589
C	-0.522662	-1.186138	0.642744
N	-0.929957	-2.167601	1.145697
N	-0.374933	1.187427	0.779697
O	-0.45935	1.045124	2.005564
O	-0.459099	2.272308	0.197658
H	2.517347	0.0	0.0
