15

C	-0.331409	-0.018228	-1.484009
C	0.0	0.0	0.0
F	0.089516	1.154855	-2.080378
H	1.1044	0.0	0.0
C	0.347973	-1.151279	-2.148048
N	0.813536	-2.071044	-2.710262
C	-1.785849	-0.143372	-1.744692
N	-2.946839	-0.244586	-1.898087
C	-0.431896	-1.283612	0.704001
H	0.11876	-2.126262	0.279246
H	-0.146465	-1.210703	1.754763
H	-1.508781	-1.478993	0.644735
C	-0.574974	1.179874	0.60917
N	-1.041119	2.119949	1.141872
F	2.493176	0.0	0.0
