15

C	-0.342388	-0.274023	-1.444269
C	0.0	0.0	0.0
F	-1.69648	-0.601349	-1.639646
H	1.10769	0.0	0.0
C	-0.06945	0.896932	-2.298132
N	0.083693	1.834049	-2.989466
C	0.438183	-1.425036	-1.943487
N	0.961373	-2.383174	-2.374955
C	-0.392099	-1.159038	0.913399
H	0.124865	-2.063085	0.583527
H	-1.47014	-1.341782	0.946026
H	-0.033958	-0.937307	1.920956
C	-0.55577	1.265457	0.427505
N	-0.984451	2.298585	0.79365
F	2.481707	0.0	0.0
