15

C	-0.403307	-0.093895	-1.464404
C	0.0	0.0	0.0
F	0.187669	-1.209658	-2.032347
H	1.106141	0.0	0.0
C	-1.867309	-0.263265	-1.629018
N	-3.027707	-0.43537	-1.70129
C	0.024811	1.095013	-2.226525
N	0.322093	2.038018	-2.859943
C	-0.427098	-1.237723	0.784742
H	-0.007165	-2.11931	0.298168
H	-1.512688	-1.349371	0.882021
H	0.017227	-1.173058	1.779665
C	-0.530622	1.219413	0.56996
N	-0.95897	2.199406	1.062018
F	2.49081	0.0	0.0
