15

C	-0.338906	0.062128	-1.484967
C	0.0	0.0	0.0
F	0.1747	-1.059595	-2.114444
H	1.105439	0.0	0.0
C	-1.799419	0.057837	-1.74044
N	-2.963651	0.030016	-1.898503
C	0.250491	1.258744	-2.11676
N	0.671833	2.215277	-2.651838
C	-0.49116	-1.290552	0.646436
H	-0.036679	-2.136141	0.129858
H	-0.139849	-1.308135	1.67948
H	-1.581884	-1.396774	0.641943
C	-0.518343	1.180185	0.658306
N	-0.936123	2.125321	1.22238
F	2.494277	0.0	0.0
