14

C	0.0	0.0	0.0
C	-0.427158	0.181624	-1.445297
F	1.415725	0.0	0.0
H	0.043383	-0.6496	-1.985672
H	-0.288662	0.874899	0.597098
N	-0.424741	-1.265197	0.512851
H	-0.154068	-1.316744	1.491118
H	-1.45258	-1.168127	0.487873
N	0.088331	1.439598	-2.00739
H	1.004537	1.600912	-1.601731
H	-0.522944	2.189691	-1.701106
C	-1.911023	0.095594	-1.699558
N	-2.635538	0.100142	-2.652323
H	-2.579668	0.0	0.0
