14

C	0.0	0.0	0.0
C	-0.470226	-0.02629	-1.452643
F	1.404493	0.0	0.0
H	-1.5755	0.015011	-1.324701
H	-0.329869	0.935768	0.45625
N	-0.50109	-1.089245	0.762962
H	-0.430162	-1.913797	0.17384
H	-1.513694	-0.879981	0.824411
N	-0.076049	-1.284303	-2.082965
H	0.91033	-1.254046	-2.312922
H	-0.601217	-1.421059	-2.938213
C	-0.012314	1.152951	-2.201683
N	0.34664	2.07259	-2.840254
H	-3.034163	0.0	0.0
