14

C	0.0	0.0	0.0
C	-0.531437	0.238539	-1.411642
F	1.381263	0.0	0.0
H	-1.60826	0.443921	-1.226686
H	-0.284533	0.868052	0.613244
N	-0.519679	-1.241447	0.480249
H	-0.31261	-1.302122	1.47308
H	-1.549136	-1.090429	0.410804
N	-0.431291	-0.902135	-2.317113
H	0.413185	-1.412591	-2.082736
H	-1.202426	-1.513088	-2.071251
C	0.114007	1.414592	-2.000677
N	0.634335	2.358818	-2.467399
H	-3.013316	0.0	0.0
