17

C	0.0	0.0	0.0
C	-0.534277	-0.044712	-1.471113
Cl	1.771092	0.0	0.0
H	0.349923	-0.073015	-2.116907
N	-0.345541	1.327469	0.683814
O	-0.739754	1.295361	1.839951
O	-0.107567	2.346412	0.042352
C	-0.457053	-1.144251	0.873035
H	-1.540474	-1.032845	0.957309
H	-0.200105	-2.076892	0.37433
H	0.037408	-1.080941	1.841911
C	-1.28731	1.148144	-1.914167
N	-1.842855	1.993131	-2.514644
N	-1.30966	-1.261579	-1.676405
H	-1.570206	-1.282725	-2.657438
H	-2.16027	-1.033226	-1.109464
F	-2.780299	0.0	0.0
