17

C	-0.357676	0.077091	-1.493778
C	0.0	0.0	0.0
Br	-0.252018	-1.820766	-2.099598
H	1.089089	0.0	0.0
H	-0.437194	-0.858987	0.502217
C	-1.77039	0.541375	-1.804877
H	-1.869607	1.589102	-1.51043
H	-2.5109	-0.052364	-1.263132
H	-1.974969	0.458689	-2.875237
C	0.722487	0.836598	-2.251731
H	0.616808	1.898588	-2.015535
H	1.693598	0.507635	-1.866943
H	0.631038	0.690862	-3.331437
N	-0.452868	1.180661	0.75071
O	-0.881841	1.002463	1.8954
O	-0.343979	2.297725	0.233321
F	2.602675	0.0	0.0
