17

C	-0.182145	0.028134	-1.503911
C	0.0	0.0	0.0
Br	-2.115852	0.08781	-2.024243
H	1.092968	0.0	0.0
H	-0.419877	-0.900844	0.442556
C	0.555575	1.181559	-2.163427
H	1.564246	1.144476	-1.735594
H	0.104271	2.143459	-1.937418
H	0.589096	1.035592	-3.246086
C	0.411611	-1.290726	-1.986632
H	0.406953	-1.346351	-3.077331
H	1.438997	-1.296814	-1.604589
H	-0.134724	-2.147332	-1.585941
N	-0.549915	1.124798	0.761522
O	-1.161509	0.855945	1.801535
O	-0.352502	2.275148	0.366829
F	2.617905	0.0	0.0
