17

C	-0.183465	0.024859	-1.501655
C	0.0	0.0	0.0
Br	-2.117039	0.083352	-2.0192
H	1.092972	0.0	0.0
H	-0.409448	-0.90252	0.44743
C	0.550449	1.180386	-2.163066
H	0.580546	1.034048	-3.248496
H	0.095557	2.140722	-1.93427
H	1.563708	1.144871	-1.740232
C	0.41399	-1.292974	-1.981778
H	1.441459	-1.297365	-1.596981
H	0.412177	-1.349412	-3.072879
H	-0.130481	-2.151111	-1.579985
N	-0.543184	1.121427	0.767674
O	-1.051157	0.853366	1.862284
O	-0.438167	2.267008	0.328354
F	2.614421	0.0	0.0
