14

C	0.0	0.0	0.0
C	-0.440688	-0.242952	-1.443631
Br	2.025989	0.0	0.0
H	-0.07839	0.578888	-2.063597
H	-1.539787	-0.223081	-1.436839
N	-0.410162	1.335026	0.362157
H	-0.137888	1.506169	1.325402
H	-1.435633	1.315741	0.334066
N	-0.414841	-1.110261	0.810231
H	-1.437807	-1.130781	0.75006
H	-0.162875	-0.936352	1.777227
C	0.023141	-1.51331	-1.988721
N	0.403789	-2.512762	-2.470932
Br	-3.686506	0.0	0.0
