14

C	0.0	0.0	0.0
C	-0.400201	0.651537	-1.317713
Br	2.138405	0.0	0.0
H	0.037654	0.09213	-2.143983
H	-1.499608	0.574744	-1.344655
N	-0.406054	0.767374	1.08662
H	-0.321489	0.301062	1.978066
H	-0.035032	1.707409	1.108556
N	-0.42719	-1.353337	0.004222
H	-1.456066	-1.305683	-0.022864
H	-0.151316	-1.797601	0.873121
C	-0.018231	2.053934	-1.388709
N	0.281358	3.188327	-1.420945
Br	-3.713734	0.0	0.0
