14

C	0.0	0.0	0.0
C	-0.434592	0.172296	-1.462959
Br	2.039048	0.0	0.0
H	-0.040317	-0.649326	-2.064572
H	-1.534799	0.117837	-1.427674
N	-0.490904	1.050174	0.767427
H	-0.256937	1.975074	0.442391
H	-0.336972	0.917237	1.754563
N	-0.435129	-1.219263	0.600943
H	-1.460319	-1.16775	0.6165
H	-0.143695	-2.014374	0.04519
C	-0.025676	1.443685	-2.045766
N	0.278602	2.481586	-2.503997
Br	-3.775954	0.0	0.0
