14

C	0.0	0.0	0.0
C	-0.041716	0.086138	-1.547977
Br	2.171693	0.0	0.0
H	0.521574	-0.757861	-1.951067
H	0.502694	0.981554	-1.855718
N	-0.510078	1.109911	0.604735
H	-0.165883	2.01153	0.334537
H	-0.984007	1.043031	1.486758
N	-0.505041	-1.17185	0.483121
H	-1.010549	-1.186921	1.349875
H	-0.149729	-2.041336	0.136811
C	-1.344634	0.106998	-2.21923
N	-2.21773	0.136506	-3.003554
Br	-4.057854	0.0	0.0
