15
Coordinates from ORCA-job run
  C   -0.53683157459161      0.14211020789375     -0.35379912740866
  C   0.98253593392602      0.40391475166457     -0.41485591488695
  H   -0.93198049935504      0.20291519668952     -1.37363009259471
  H   1.15339583644408      1.39414202327707     -0.84742293617318
  N   -1.18062394969625      1.31082693647365      0.36914764934364
  O   -0.61187539612246      2.39742763732326      0.29594561938732
  O   -2.25035351391705      1.09735856395667      0.92626487198739
  C   -0.90703564257541     -1.17090146403636      0.30152395578736
  H   -1.98505898169156     -1.31511494050370      0.27635971953964
  H   -0.57934444527729     -1.18968823892598      1.34239471963492
  H   -0.43130572847229     -1.99351777183258     -0.23598723366471
  C   1.61555197071730     -0.60640712270476     -1.26771504011840
  N   2.08914137355742     -1.42201749013857     -1.96686420292239
  C   1.56638098771850      0.38518927268166      0.93112733662943
  N   2.00840362933563      0.36276243818180      2.01851067545931
