15
Coordinates from ORCA-job run
  C   -0.39785928523141      0.14678521574673     -0.30723238750582
  C   1.03158664386276     -0.00083665160267      0.24735384293305
  H   -0.36737903878255      0.47156026206661     -1.34850633323537
  H   0.96161715253115     -0.21159299065402      1.32025783226947
  N   -1.06597528890841      1.26810521251534      0.43941751162388
  O   -0.85358790654572      1.33734478794052      1.64799962073127
  O   -1.81490857242142      1.98920395024732     -0.21069072038919
  C   -1.23550799424312     -1.10685741444842     -0.12827516406988
  H   -2.25168260132516     -0.92181837442556     -0.48119017619794
  H   -1.27245641599018     -1.39239661372356      0.92548054598415
  H   -0.81364571527731     -1.92928213638720     -0.70782488218775
  C   1.79066771217014      1.24221927036871      0.07086505853806
  N   2.37228317031984      2.25038017003706     -0.08287853266723
  C   1.70665612435588     -1.11655331931957     -0.42098171984027
  N   2.20919201548550     -2.02826136836129     -0.96379449598644
