15

C	0.0	0.0	0.0
C	-0.536633	0.067502	-1.413264
Br	2.039391	0.0	0.0
H	-1.624699	-0.088926	-1.292951
H	-0.216206	-0.96683	0.44485
N	-0.528878	1.040704	0.722096
H	-0.518063	1.938981	0.269675
H	-0.408975	1.033749	1.718243
N	-0.023477	-1.134344	-2.198721
O	-0.14477	-2.234236	-1.669794
O	0.452384	-0.93301	-3.315534
N	-0.263362	1.315365	-2.029926
H	-0.895681	1.475076	-2.800997
H	0.690516	1.344466	-2.367194
Br	-3.870586	0.0	0.0
