15

C	0.0	0.0	0.0
C	-0.513721	0.03365	-1.437639
Br	1.9442	0.0	0.0
H	-1.58872	-0.193575	-1.369439
H	-0.270959	-0.960514	0.439249
N	-0.508612	1.163087	0.68035
H	-0.244094	1.117363	1.657727
H	-1.532312	1.080136	0.632774
N	0.051696	-1.149116	-2.202115
O	0.001521	-2.236815	-1.628231
O	0.444667	-0.975802	-3.350528
N	-0.188707	1.261291	-2.086216
H	-0.922368	1.517278	-2.732542
H	-0.12694	1.971855	-1.364603
Br	-3.707608	0.0	0.0
