15

C	0.0	0.0	0.0
C	-0.398342	-0.21397	-1.466872
Br	2.015052	0.0	0.0
H	0.066266	-1.129859	-1.834137
H	-0.248941	-0.910337	0.543588
N	-0.608871	1.09765	0.587777
H	-0.595636	1.12116	1.593183
H	-0.410566	1.980638	0.144829
N	0.259771	0.864947	-2.336699
O	0.147169	2.036332	-1.978639
O	0.790154	0.49703	-3.380294
N	-1.78343	-0.176732	-1.716429
H	-2.181639	-1.074481	-1.940843
H	-2.361485	0.255853	-0.996168
Br	-4.640458	0.0	0.0
