15

C	0.0	0.0	0.0
C	-0.538239	0.102293	-1.42719
Br	2.016014	0.0	0.0
H	-1.598605	-0.171751	-1.308918
H	-0.27008	-0.968365	0.414618
N	-0.51878	1.042684	0.771303
H	-0.629715	0.827122	1.747821
H	-0.08363	1.9374	0.617761
N	0.106465	-0.981975	-2.250878
O	-0.076272	-2.130429	-1.847455
O	0.784798	-0.673576	-3.22524
N	-0.445486	1.359499	-2.078111
H	0.456795	1.799656	-1.953183
H	-1.198073	1.947206	-1.746129
Br	-3.782393	0.0	0.0
