15

C	0.0	0.0	0.0
C	-0.584721	0.142997	-1.38879
Br	2.001402	0.0	0.0
H	-1.668656	-0.01112	-1.227888
H	-0.236407	-0.982561	0.399622
N	-0.519068	1.016881	0.788906
H	-0.27582	0.984712	1.763596
H	-0.454214	1.929036	0.366314
N	-0.110703	-1.019144	-2.25055
O	-0.218585	-2.143765	-1.772989
O	0.328704	-0.765515	-3.37231
N	-0.328686	1.418178	-1.957566
H	-1.025808	1.63362	-2.656404
H	0.589275	1.443646	-2.383308
Br	-3.893776	0.0	0.0
