15

C	0.0	0.0	0.0
C	-0.397383	0.104715	-1.501708
Br	1.947432	0.0	0.0
H	0.341152	-0.457331	-2.072685
H	-0.247997	-1.023112	0.302805
N	-0.557651	1.03025	0.809795
H	-0.596956	0.731357	1.775631
H	-1.511325	1.222974	0.507702
N	-0.206738	1.538217	-1.939688
O	0.832953	1.828138	-2.531583
O	-1.115609	2.31779	-1.675293
N	-1.699048	-0.298067	-1.900733
H	-2.466233	0.022329	-1.303179
H	-1.755279	-1.305677	-1.953923
Br	-4.361617	0.0	0.0
