12
Coordinates from ORCA-job run
  C   0.03265097599357      0.06078650362558      0.42691178244276
  C   -0.95892629656430     -0.66236351734814     -0.46973171990883
  Cl  -0.26283789988492     -0.37497376710640      2.11163951079168
  H   -1.97091519436245     -0.34885119685388     -0.21008497074357
  H   -0.75493750038516     -0.40126288135643     -1.51019082616851
  H   -0.88105604187907     -1.74392623879840     -0.34440227957942
  N   0.09527940374451      1.48810524871994      0.32971536655260
  H   -0.74643464434959      1.89962620136330      0.71029246711982
  H   0.21223141650388      1.76270662262983     -0.63750264467939
  N   1.42486230044633     -0.43968648911640     -0.00188543006221
  O   1.99392102744363     -1.30041790417771      0.64879878618638
  O   1.81616245329357      0.06125741841870     -1.05256004195132
