12
Coordinates from ORCA-job run
  C   -0.08305074200630      0.09311475461105      0.37210853469355
  C   -1.00203824085970     -0.78664452617495     -0.43809750560291
  Cl  -0.23821649688949     -0.25429083836548      2.11477059754683
  H   -0.82518288052081     -1.83512415804886     -0.21470888425036
  H   -0.82389674902247     -0.62054581756493     -1.50447614576773
  H   -2.03096352257987     -0.52134105184173     -0.19783644124712
  N   -0.30988179908411      1.46210249438295      0.15189417458533
  H   0.37866264816908      2.03289311085948      0.62501933134622
  H   -0.30181996193660      1.67299733720461     -0.83807082595196
  N   1.39566399937891     -0.32066194558357      0.04934215693096
  O   1.63026242020888     -1.51391268270284     -0.08662403146521
  O   2.21046132514248      0.59241332322429     -0.03232096081760
