12
Coordinates from ORCA-job run
  C   0.03671224356819      0.07731747032415      0.42392182351835
  C   -0.94983541407480     -0.69985830531543     -0.43221913363230
  Cl  -0.22777154258806     -0.30183672091152      2.12724115328603
  H   -0.76453198597656     -0.47312894845315     -1.48421753540303
  H   -0.84629433107857     -1.77404426350104     -0.26813480292153
  H   -1.96529601746363     -0.39893769012222     -0.17123725931147
  N   0.06665271169745      1.50098275623692      0.27323694737408
  H   -0.77865956013944      1.90867744678887      0.64985304411327
  H   0.16605326633130      1.74236785147755     -0.70468535919094
  N   1.43373978018118     -0.40921827218443     -0.00493227864688
  O   2.02444440480537     -1.24008689953918      0.66505231710235
  O   1.80578644473756      0.06676557519949     -1.07387891628793
