12
Coordinates from ORCA-job run
  C   0.02700076880228      0.10765323517344      0.25532260224628
  C   -1.03356609212806     -0.80201993878158     -0.30630233841497
  Cl  0.01193253454966     -0.05075940084180      2.08414548628003
  H   -2.01217689187778     -0.44254004329268      0.01686727279772
  H   -0.97910834797544     -0.78222842101298     -1.39525285580385
  H   -0.89752282041425     -1.81998389945545      0.04812044649435
  N   -0.07724158868737      1.42420167605690     -0.21453551213793
  H   0.64649047455600      2.01957578877953      0.16648220864927
  H   -0.99370670848205      1.81055155681112     -0.03651556602879
  N   1.42981172134725     -0.37489791984927     -0.12283962165821
  O   1.54729572081106     -1.53252117892891     -0.50264808998533
  O   2.33079122949870      0.44396854534170      0.00715596756142
