12
Coordinates from ORCA-job run
  C   -0.09830707429575      0.00546429930972      0.37964649970381
  C   -0.99758063166927     -0.62655828860300     -0.65339760598816
  Cl  -0.34736389145616     -0.73673539149271      1.98238787819392
  H   -2.03032505743621     -0.39051733344695     -0.39953075415880
  H   -0.76465342906072     -0.21972714548730     -1.64169827043751
  H   -0.85615388832670     -1.70354680608012     -0.67805302467851
  N   -0.28299306910288      1.39504275140772      0.48052429816581
  H   0.39563092639414      1.81433375829784      1.10305586640502
  H   -0.22092605917693      1.83196737302123     -0.43048643453430
  N   1.38363587982200     -0.37064138788845      0.03090875390961
  O   2.22232371585079      0.50781953265669      0.20162382277109
  O   1.59671257845770     -1.50590136169467     -0.37298102935198
