12
Coordinates from ORCA-job run
  C   -0.08295180814188      0.10049749579232      0.37001754350750
  C   -0.99697101120270     -0.80405069569859     -0.41835391313119
  Cl  -0.23199802107455     -0.20961714134782      2.12009944535096
  H   -0.82450600529378     -0.65836303334737     -1.48864327352006
  H   -2.02738603404446     -0.54322738720734     -0.17962585890733
  H   -0.80971470590381     -1.84600585253289     -0.17384394199730
  N   -0.32169875883672      1.46273194473486      0.12017587752838
  H   -0.31553402613541      1.65108554844842     -0.87441420296328
  H   0.36395430182707      2.04868173767409      0.57891901675991
  N   1.39789377524363     -0.30814615362148      0.05305554669280
  O   2.20484767729861      0.60960610797710     -0.05112167937738
  O   1.64206461626397     -1.50219257087128     -0.05626455994301
