16

C	-0.468409	0.007858	-1.447729
C	0.0	0.0	0.0
Cl	0.228412	-1.320563	-2.307824
H	1.090673	0.0	0.0
N	-2.006427	0.022606	-1.583661
O	-2.568559	-0.937637	-2.077137
O	-2.512551	1.05444	-1.162416
N	-0.065069	1.317485	-2.135178
O	0.637304	2.088506	-1.500482
O	-0.496609	1.450223	-3.272582
N	-0.483969	-1.294781	0.628313
O	-1.705802	-1.430436	0.697804
O	0.360211	-2.07959	1.032645
C	-0.514143	1.086873	0.818073
N	-0.876458	1.937503	1.543423
Cl	3.139188	0.0	0.0
