16

C	-0.525289	0.010406	-1.427739
C	0.0	0.0	0.0
Cl	0.203601	1.32804	-2.293507
H	1.095453	0.0	0.0
N	-0.23584	-1.298303	-2.202344
O	-1.211615	-1.946267	-2.553139
O	0.938209	-1.532095	-2.40337
N	-2.057479	0.139944	-1.450996
O	-2.574351	0.640244	-2.436716
O	-2.627822	-0.326482	-0.471875
N	-0.391038	-1.219123	0.787187
O	-0.369693	-2.284659	0.182639
O	-0.6178	-1.064104	1.978962
C	-0.462175	1.199434	0.681054
N	-0.811167	2.198342	1.19182
Cl	3.076534	0.0	0.0
