16

C	-0.4423	-0.016464	-1.458609
C	0.0	0.0	0.0
Cl	0.185982	1.394174	-2.259628
H	1.097231	0.0	0.0
N	0.051802	-1.270971	-2.228962
O	1.251181	-1.34193	-2.391557
O	-0.815171	-2.048388	-2.602329
N	-1.971196	-0.062902	-1.601598
O	-2.570042	-0.534045	-0.641563
O	-2.453414	0.31944	-2.656019
N	-0.381297	-1.25086	0.743542
O	-0.141518	-2.305982	0.166563
O	-0.823267	-1.129918	1.878437
C	-0.516818	1.17726	0.669879
N	-0.896332	2.154157	1.200908
Cl	3.06545	0.0	0.0
