16

C	-0.478111	0.00023	-1.446309
C	0.0	0.0	0.0
Cl	0.181134	1.388572	-2.261556
H	1.095491	0.0	0.0
N	-0.036539	-1.263753	-2.227523
O	-0.931511	-1.967603	-2.673356
O	1.164703	-1.403896	-2.339501
N	-2.010312	0.00833	-1.545604
O	-2.509883	0.427595	-2.577672
O	-2.599151	-0.448021	-0.572061
N	-0.383037	-1.240093	0.756205
O	-0.632523	-1.114699	1.946697
O	-0.331421	-2.291596	0.129798
C	-0.505365	1.178195	0.680151
N	-0.888979	2.156513	1.205008
Cl	3.087737	0.0	0.0
