16

C	-0.616107	0.047318	-1.391766
C	0.0	0.0	0.0
Cl	-2.362104	0.07222	-1.344237
H	1.092688	0.0	0.0
N	-0.139698	1.303823	-2.140363
O	-0.481774	1.354892	-3.314502
O	0.5248	2.118028	-1.515389
N	-0.110073	-1.082805	-2.320287
O	-0.921496	-1.850957	-2.800389
O	1.096152	-1.033248	-2.501085
N	-0.365504	-1.29369	0.684312
O	-0.527306	-1.259782	1.896741
O	-0.394333	-2.294634	-0.024227
C	-0.486809	1.110019	0.805445
N	-0.901369	2.000777	1.450388
Cl	3.080049	0.0	0.0
