16

C	-0.378497	0.212721	-1.460914
C	0.0	0.0	0.0
Cl	0.150528	1.78793	-1.962309
H	1.114418	0.0	0.0
N	0.276057	-0.876601	-2.32808
O	0.317378	-1.982056	-1.805071
O	0.63614	-0.569517	-3.450102
N	-1.887044	0.105404	-1.751925
O	-2.23736	-0.709726	-2.594003
O	-2.589918	0.881992	-1.129684
N	-0.527027	-1.295402	0.563997
O	-1.687507	-1.584312	0.278395
O	0.218116	-1.92032	1.30021
C	-0.494608	1.062114	0.86062
N	-0.863988	1.895463	1.602168
Cl	3.099266	0.0	0.0
