15

C	-0.528551	0.022786	-1.4404
C	0.0	0.0	0.0
F	0.088883	-1.063786	-2.091454
H	1.098685	0.0	0.0
N	-1.936169	-0.096519	-1.442552
H	-2.174592	-0.865252	-0.824045
H	-2.287822	-0.25282	-2.378494
C	-0.127583	1.233217	-2.18181
N	0.13774	2.187873	-2.810891
N	-0.503237	-1.249479	0.613707
H	0.18454	-1.960722	0.382404
H	-0.465916	-1.14037	1.620958
C	-0.506503	1.157003	0.732732
N	-0.889409	2.078642	1.351334
Cl	3.287943	0.0	0.0
