15

C	-0.263003	-0.043115	-1.527646
C	0.0	0.0	0.0
F	-0.079142	1.253283	-2.03936
H	1.098213	0.0	0.0
N	0.619524	-0.99025	-2.084594
H	1.572991	-0.803741	-1.763888
H	0.573424	-0.996484	-3.095675
C	-1.668268	-0.396516	-1.834881
N	-2.789624	-0.686713	-2.029152
N	-0.438162	-1.175561	0.725231
H	-1.386972	-1.431657	0.475604
H	0.182927	-1.938968	0.49394
C	-0.564415	1.212504	0.588659
N	-1.059026	2.16261	1.069499
Cl	3.296306	0.0	0.0
