15

C	-0.369163	0.087603	-1.485308
C	0.0	0.0	0.0
F	-1.742786	0.306204	-1.590264
H	1.094803	0.0	0.0
N	0.300194	1.140272	-2.19645
H	0.123065	2.013475	-1.706939
H	1.303794	0.964748	-2.140439
C	-0.084895	-1.20464	-2.14651
N	0.137286	-2.203576	-2.719972
N	-0.49607	-1.211241	0.621993
H	0.153749	-1.507222	1.337349
H	-1.409619	-1.073837	1.029992
C	-0.449274	1.239868	0.653812
N	-0.849964	2.205747	1.190901
Cl	3.251286	0.0	0.0
