18

C	-0.332371	0.098475	-1.505082
C	0.0	0.0	0.0
Cl	0.080795	-1.50617	-2.236234
H	1.095155	0.0	0.0
N	-1.717431	0.351866	-1.871755
H	-2.309876	-0.323253	-1.395086
H	-1.969141	1.276151	-1.534454
C	0.598433	1.125594	-2.129088
H	0.572764	1.04276	-3.217203
H	0.277209	2.135469	-1.853059
H	1.598389	0.936899	-1.722878
C	-0.637122	-1.141102	0.621661
N	-1.215926	-2.029068	1.132276
C	-0.36977	1.278059	0.763299
H	-1.4227	1.564668	0.666057
H	-0.157629	1.128587	1.823826
H	0.27034	2.0926	0.424351
F	2.613133	0.0	0.0
