18

C	-0.337171	0.088863	-1.491476
C	0.0	0.0	0.0
Cl	0.19378	-1.533294	-2.243442
H	1.094491	0.0	0.0
N	-1.727597	0.308369	-1.739392
H	-2.265957	-0.441666	-1.317729
H	-1.90652	0.300514	-2.736954
C	0.55337	1.135748	-2.138067
H	1.562832	0.970162	-1.745476
H	0.535651	1.047666	-3.227472
H	0.195658	2.130744	-1.860494
C	-0.622925	-1.153063	0.618957
N	-1.183389	-2.054978	1.126866
C	-0.393497	1.279372	0.751859
H	-0.220753	1.128903	1.819713
H	-1.435313	1.567101	0.591817
H	0.266241	2.087145	0.433785
F	2.60806	0.0	0.0
