16
Coordinates from ORCA-job run
  C   -0.62130390766707      0.41282313143695      0.09166182143989
  C   0.70249529034022      0.40238821916674     -0.70200517271586
  H   -1.30966925569125      1.00258397996719     -0.53644520644590
  H   1.04136122601535      1.42768750812322     -0.86978851632910
  N   -0.33552590432729      1.01694170557370      1.38322992693436
  H   -0.15065188277639      2.00953858495749      1.29727705197061
  H   -1.12563145108711      0.89787596933287      2.00438405032688
  C   -1.22236582739782     -0.96875880393118      0.29567954772323
  H   -1.35016101304159     -1.49615940588022     -0.65068035259140
  H   -0.59123683330402     -1.56773685393554      0.95142506028746
  H   -2.20803762867870     -0.86360488915744      0.75713321362920
  C   0.57397469220620     -0.29098899288226     -1.97782355762676
  N   0.43705636286615     -0.81657278896730     -3.01876210726649
  N   1.79368957989281     -0.23617307498690      0.11858797023509
  O   2.60380886319024      0.52728644100820      0.62895937238151
  O   1.76319768946027     -1.45713072982553      0.22716689804726
