16
Coordinates from ORCA-job run
  C   -0.57198037680164      0.25700638914281      0.07297527930597
  C   0.90727536435668      0.19426497356908     -0.35561065205158
  H   -1.16183074840048      0.27509976174136     -0.84844413450998
  H   1.55776855637937      0.25832759866819      0.51943601369391
  N   -0.73058733146943      1.53721744061172      0.74736725323702
  H   -0.57587332338301      1.43812138673413      1.74362009100355
  H   -1.65998252266980      1.90844003140705      0.60731694273180
  C   -0.95902515687620     -0.96102049447388      0.90552205860157
  H   -1.99121003670799     -0.85045339257021      1.24477243112367
  H   -0.89077161870747     -1.89257399629753      0.33981366665722
  H   -0.31479604767523     -1.04851576599489      1.78608179481058
  C   1.22919282633255      1.24595753363878     -1.31245181620523
  N   1.48448292111122      2.08668915276255     -2.09071296338800
  N   1.17893565705785     -1.14780077993043     -0.97802953280657
  O   1.85995845951825     -1.93296902029320     -0.32474428951131
  O   0.63844337793531     -1.36879081871552     -2.05691214269261
