16
Coordinates from ORCA-job run
  C   -0.48059792036989      0.41547920507356      0.22426555753683
  C   0.61817274841570      0.05230344783739     -0.78260071243402
  H   -0.64491395345424      1.49443465060982      0.11796825942327
  H   0.38208323286216      0.44513785063925     -1.77864325224524
  N   -0.00004629021725      0.04504077246334      1.54681746221298
  H   -0.76472396319679     -0.23340614280164      2.14665939721988
  H   0.48441223084087      0.81790684968441      1.98445983022176
  C   -1.76250697003241     -0.32974167813170     -0.11510904159149
  H   -2.57439976129942      0.02559308240927      0.52394315737723
  H   -2.05855201784205     -0.16864019682510     -1.15432072580077
  H   -1.63525511182008     -1.40237370060311      0.04732579246255
  C   0.83891919448257     -1.38651752805696     -0.86031049823091
  N   0.92554135254915     -2.55350465092826     -0.95254684112872
  N   1.91376356516939      0.74440300938097     -0.39673174514246
  O   2.96351437803241      0.14803480746681     -0.59144433937476
  O   1.79658928587989      1.88485022178196      0.04126769949388
