16
Coordinates from ORCA-job run
  C   -0.59827106455852      0.09507433528395      0.10546609655171
  C   0.85829373381913      0.28187956686944     -0.35999996201778
  H   -1.18622432738445     -0.16837391974800     -0.78533341835005
  H   1.49529267382146      0.49062455632391      0.50053664782598
  N   -0.98262244944243      1.36103275754364      0.71636145037889
  H   -1.80419447634318      1.23132249174781      1.29339757917980
  H   -1.21040694521298      2.04782765686436      0.00640956850025
  C   -0.68909601505582     -1.02454934187971      1.12862650043439
  H   -0.07443855113039     -0.78981801926966      2.00089115945717
  H   -1.72545609921986     -1.14030406788283      1.45629546894097
  H   -0.36816332571780     -1.98214934929583      0.71612183388044
  C   0.95532390721626      1.34960649934544     -1.34901931657322
  N   0.98181687230863      2.23466667498244     -2.12019634912748
  N   1.34583206951093     -1.00433609964363     -0.96540554156743
  O   0.83789110692625     -1.33656366604202     -2.03175131845847
  O   2.16342289046278     -1.64494007519929     -0.31140039905516
