16
Coordinates from ORCA-job run
  C   -0.48182964162869      0.41836764958318      0.21526685183268
  C   0.63559906155831      0.05180522216391     -0.77058849823466
  H   -0.63474067410750      1.49909629700119      0.11074885384408
  H   0.42536292889266      0.45658244331358     -1.76752247711352
  N   -0.03077394085719      0.03858844902325      1.54554556404403
  H   -0.80799194235795     -0.24473646202153      2.12665411493350
  H   0.44399870687966      0.80780331926140      1.99997900987376
  C   -1.76219493248009     -0.31478001867336     -0.15417089414378
  H   -1.64669392806930     -1.38936016133956      0.00435270063550
  H   -2.58412800888906      0.04322673158861      0.47040269197962
  H   -2.03569263587664     -0.14536819427837     -1.19823160860569
  C   0.84393493935750     -1.38829816911607     -0.85553269633442
  N   0.92604289146373     -2.55441398743618     -0.96238769979584
  N   1.92629817405603      0.72950354753116     -0.34613488555986
  O   2.97341982840054      0.11220662291863     -0.47999964226126
  O   1.80838917365799      1.88077671048017      0.06261861490587
