16
Coordinates from ORCA-job run
  C   -0.46744606496100      0.35056581977768      0.19061824206448
  C   0.93821554835090     -0.12330888393958     -0.22494130901492
  H   -0.86710229646895      0.93633758255470     -0.64950575533052
  H   1.35826039242572     -0.75943797241405      0.55540521805811
  N   -0.27923857709628      1.11982767114736      1.41383975325999
  H   -1.16199994165163      1.21772515961108      1.89968958108157
  H   0.06107217457985      2.05132247033739      1.20372717624940
  C   -1.37131086025090     -0.84093064173377      0.45937330726300
  H   -0.96017243669152     -1.45220880131475      1.26625464318011
  H   -2.36181349533918     -0.49036757438415      0.76077421351316
  H   -1.50098050651479     -1.46355573320249     -0.42696297892141
  C   1.81230119772256      1.01343668242256     -0.49298385879849
  N   2.48089982402952      1.96240100065699     -0.66973149767431
  N   0.82243676803467     -0.96592922421520     -1.46388440665431
  O   1.00090644372009     -2.17271594358416     -1.32736493799496
  O   0.49597183011094     -0.38516161171962     -2.49430739028090
