16
Coordinates from ORCA-job run
  C   -0.64953810718372      0.19222500364794      0.08143528390764
  C   0.86326054756320      0.16057578840364     -0.27347159976193
  H   -1.18625237526033      0.22012405749773     -0.87213901668505
  H   1.46796876080289      0.08927381116528      0.63373193865968
  N   -1.01551755983585      1.37384898215757      0.83270710192346
  H   -0.52733971669719      1.41561882372166      1.71940448384103
  H   -0.83335654244453      2.22520493953995      0.31543721798694
  C   -1.03750496754542     -1.05887824869780      0.85329147536401
  H   -0.45749025241368     -1.14178469699966      1.77786915619941
  H   -0.88004086946380     -1.96838808147200      0.27168850884190
  H   -2.09367997938166     -0.99157142426521      1.11502838396839
  C   1.23648970019066      1.33666245950278     -1.04954952045843
  N   1.48642833287856      2.32159424936339     -1.63827762944551
  N   1.15736564022448     -1.08062283732999     -1.06901401954677
  O   0.68399440397929     -1.12737981383107     -2.19997712081888
  O   1.78421298458711     -1.96750301240420     -0.49716464397589
