12
Coordinates from ORCA-job run
  C   0.38328009528795      0.13461829363920     -0.40026425362684
  C   -0.84505799560734      0.52732336733462      0.44108380071260
  H   0.06647271674012      0.03848552612528     -1.45020441820695
  H   -0.52813128886874      0.65639918804091      1.47869876193067
  H   -1.27257571710692      1.46745361966687      0.08319166276882
  N   0.97636548478370     -1.07435999128941      0.15981516010764
  H   0.34562577726376     -1.85546441428941      0.01368625306790
  H   1.84767955310175     -1.28811089711652     -0.31089233685935
  C   1.36127074159071      1.22831232993416     -0.34109635325162
  N   2.13817199940682      2.10718791346784     -0.30511204547435
  C   -1.85152722272925     -0.52934676696501      0.36503456586581
  N   -2.62057414386254     -1.41049816854852      0.26805920296567
