12
Coordinates from ORCA-job run
  C   0.44447496685902      0.19998007401228     -0.44117096838431
  C   -0.82328067219374      0.45389932285936      0.41692839367575
  H   0.16722282646673      0.30512001444442     -1.49542565195599
  H   -0.55943991694877      0.42000160944867      1.47826902422149
  H   -1.23963302075266      1.44409083627384      0.20896196311717
  N   1.07120997372605     -1.09772199753054     -0.28211409079768
  H   1.31353648800787     -1.26712605915825      0.68683906444453
  H   0.44478650803061     -1.82992468850565     -0.59427208245948
  C   1.41686151901701      1.25844668833553     -0.13195279341861
  N   2.16409181815918      2.11506675574885      0.15960594888392
  C   -1.82094739984146     -0.57337386623508      0.13103946170160
  N   -2.57888309052984     -1.42845868969344     -0.13670826902839
