12
Coordinates from ORCA-job run
  C   0.35110821277653      0.19899796467105     -0.40404509125468
  C   -0.79731697815657      0.44440668628395      0.59198154095323
  H   -0.05353352605440      0.27918890882131     -1.42469790061523
  H   -0.39285783065247      0.39748070015083      1.60584884651098
  H   -1.23980592468765      1.43130865448108      0.43400360019595
  N   0.97309151858352     -1.08586153852760     -0.10533554587694
  H   0.32214166941364     -1.83186620330453     -0.32643010870194
  H   1.79912999009773     -1.21694920854600     -0.67697665683919
  C   1.34331328099022      1.26982115065645     -0.24543385252206
  N   2.12695201126680      2.13521267387225     -0.12613836205874
  C   -1.82175026719783     -0.58438161585856      0.42596047782628
  N   -2.60947215637953     -1.43635817270023      0.25026305238233
