14

C	-0.16113	0.02595	-1.499452
C	0.0	0.0	0.0
F	-0.186104	-1.278506	-2.001798
H	1.09441	0.0	0.0
H	-0.338224	0.945752	0.423142
N	-1.521689	0.553886	-1.987899
O	-1.667853	0.62205	-3.206394
O	-2.367167	0.865094	-1.154927
N	0.850571	0.818845	-2.037612
H	0.940143	0.68395	-3.035045
H	1.72485	0.622811	-1.50905
C	-0.629719	-1.122585	0.656339
N	-1.120408	-2.038304	1.204126
F	2.614889	0.0	0.0
