14

C	-0.118153	-0.067366	-1.510011
C	0.0	0.0	0.0
F	-0.210768	-1.403289	-1.92179
H	1.094439	0.0	0.0
H	-0.342733	0.971069	0.356043
N	-1.427566	0.501415	-2.085752
O	-2.297852	0.88689	-1.31001
O	-1.508303	0.52623	-3.311827
N	0.947417	0.627502	-2.068538
H	1.804654	0.446099	-1.500093
H	1.045135	0.441061	-3.055926
C	-0.644647	-1.080275	0.708865
N	-1.155015	-1.959437	1.297237
F	2.637288	0.0	0.0
