14

C	-0.107309	0.035189	-1.526105
C	0.0	0.0	0.0
F	-0.123633	-1.237267	-2.00379
H	1.093978	0.0	0.0
H	-0.322294	0.962454	0.403748
N	-1.430708	0.667489	-1.976117
O	-2.294895	-0.054046	-2.456653
O	-1.539467	1.877182	-1.777366
N	0.954957	0.756936	-2.131273
H	1.79243	0.540478	-1.551991
H	0.762611	1.746508	-2.033683
C	-0.665476	-1.102789	0.651036
N	-1.205548	-1.987836	1.204506
F	2.610968	0.0	0.0
