14

C	-0.480834	-0.026914	-1.423011
C	0.0	0.0	0.0
F	0.10474	0.997526	-2.134221
H	1.090279	0.0	0.0
H	-0.335976	-0.903926	0.509462
N	-0.017443	-1.303651	-2.128337
O	-0.078284	-1.274759	-3.356415
O	0.289887	-2.270194	-1.44784
N	-1.890681	-0.035031	-1.593468
H	-2.300017	0.694408	-1.023615
H	-2.111967	0.126511	-2.569237
C	-0.549877	1.168379	0.655167
N	-1.019571	2.11681	1.169087
F	2.522949	0.0	0.0
