14

C	-0.10243	0.033885	-1.5257
C	0.0	0.0	0.0
F	-0.101286	-1.2404	-2.001719
H	1.094036	0.0	0.0
H	-0.323907	0.962832	0.400872
N	-1.43042	0.651273	-1.983603
O	-1.551305	1.860945	-1.789233
O	-2.285706	-0.080841	-2.465358
N	0.956537	0.766308	-2.125395
H	1.794044	0.550709	-1.543642
H	0.757124	1.753614	-2.023753
C	-0.66769	-1.102569	0.649202
N	-1.215649	-1.986101	1.197084
F	2.611811	0.0	0.0
