14

C	-0.130275	-0.173474	-1.516713
C	0.0	0.0	0.0
F	-1.311465	-0.739563	-1.913954
H	1.092272	0.0	0.0
H	-0.453427	0.918111	0.374002
N	-0.157758	1.258322	-2.086923
O	0.898281	1.738316	-2.471588
O	-1.242833	1.832763	-2.05898
N	0.958389	-0.868256	-2.102348
H	0.781533	-1.858385	-1.972205
H	1.796128	-0.616684	-1.538889
C	-0.508131	-1.163007	0.69445
N	-0.904756	-2.113705	1.26039
F	2.607214	0.0	0.0
