15

C	-0.426388	-0.087407	-1.431434
C	0.0	0.0	0.0
F	0.114041	0.896423	-2.151687
H	1.097033	0.0	0.0
N	-0.044825	-1.402695	-2.097163
O	-0.383221	-1.486911	-3.273921
O	0.583967	-2.222575	-1.444327
N	-1.942159	-0.001353	-1.60851
O	-2.40059	1.054859	-2.024716
O	-2.563543	-0.997376	-1.250805
C	-0.486296	-1.060947	0.853282
N	-0.78854	-1.916545	1.602139
C	-0.37941	1.300477	0.523926
N	-0.592742	2.369032	0.967854
H	2.380075	0.0	0.0
