15

C	-0.322022	-0.147336	-1.453615
C	0.0	0.0	0.0
F	-0.020133	0.965195	-2.130461
H	1.106374	0.0	0.0
N	0.45905	-1.308728	-2.057366
O	0.123084	-2.408391	-1.633082
O	1.337633	-1.043364	-2.859771
N	-1.784499	-0.45728	-1.81276
O	-2.629966	-0.289259	-0.943606
O	-1.974522	-0.781596	-2.980373
C	-0.454118	-1.090819	0.833225
N	-0.749768	-1.962398	1.566139
C	-0.447376	1.281756	0.497429
N	-0.73471	2.348408	0.903836
H	2.383427	0.0	0.0
