15

C	-0.457379	-0.117769	-1.421513
C	0.0	0.0	0.0
F	-1.65667	-0.712476	-1.603063
H	1.107323	0.0	0.0
N	-0.48096	1.229521	-2.106718
O	0.517928	1.913003	-1.926513
O	-1.462798	1.497905	-2.787263
N	0.521591	-0.983442	-2.225283
O	0.869308	-2.012675	-1.66651
O	0.840254	-0.594412	-3.344201
C	-0.405715	-1.154684	0.777994
N	-0.676002	-2.078491	1.454176
C	-0.456174	1.217094	0.634081
N	-0.761421	2.21437	1.181169
H	2.350722	0.0	0.0
