15

C	-0.505769	-0.099918	-1.403769
C	0.0	0.0	0.0
F	-1.839541	-0.269198	-1.526979
H	1.107453	0.0	0.0
N	-0.130411	1.103885	-2.243366
O	0.669347	1.902251	-1.771834
O	-0.658393	1.13829	-3.351077
N	0.16524	-1.282563	-2.090327
O	1.255432	-1.053056	-2.600402
O	-0.414859	-2.358289	-1.994137
C	-0.410595	-1.164017	0.763494
N	-0.651723	-2.10777	1.423957
C	-0.457964	1.210818	0.650088
N	-0.787171	2.187329	1.218803
H	2.368539	0.0	0.0
