15

C	-0.380313	0.044838	-1.445872
C	0.0	0.0	0.0
F	-0.143558	1.247252	-1.977361
H	1.107991	0.0	0.0
N	0.385019	-1.000005	-2.245417
O	0.245866	-2.145409	-1.839013
O	1.043097	-0.612305	-3.196015
N	-1.865485	-0.246667	-1.752805
O	-2.115093	-0.729392	-2.852262
O	-2.67097	0.109126	-0.902374
C	-0.469607	-1.175548	0.700058
N	-0.800993	-2.117705	1.321817
C	-0.407129	1.211246	0.682647
N	-0.642067	2.206413	1.26438
H	2.388227	0.0	0.0
