15

C	-0.335645	-0.022946	-1.457226
C	0.0	0.0	0.0
F	-0.121872	-1.228517	-1.990271
H	1.108328	0.0	0.0
N	-1.787115	0.337621	-1.832245
O	-1.97536	0.584513	-3.01986
O	-2.62952	0.275486	-0.947162
N	0.502139	0.996371	-2.215773
O	1.266563	0.580483	-3.068636
O	0.313909	2.154417	-1.864588
C	-0.450039	-1.205444	0.658161
N	-0.736299	-2.20308	1.212878
C	-0.429893	1.186975	0.705188
N	-0.695492	2.139292	1.343106
H	2.380819	0.0	0.0
