15

C	-0.490227	0.279658	-1.386118
C	0.0	0.0	0.0
F	-1.814965	0.51036	-1.496028
H	1.099975	0.0	0.0
N	0.229386	1.511842	-1.922347
O	1.297808	1.306255	-2.485443
O	-0.294487	2.589722	-1.662374
N	-0.144661	-0.828262	-2.359271
O	-0.672835	-0.722531	-3.46179
O	0.639184	-1.692248	-1.986523
C	-0.46208	-1.280687	0.495446
N	-0.787772	-2.319093	0.944638
C	-0.407758	1.063978	0.900107
N	-0.647734	1.922713	1.667723
H	2.376541	0.0	0.0
