15

C	-0.484501	-0.258937	-1.389851
C	0.0	0.0	0.0
F	-1.810824	-0.487441	-1.506115
H	1.106629	0.0	0.0
N	-0.13782	0.86259	-2.346443
O	-0.668323	0.776741	-3.450628
O	0.6471	1.719817	-1.958449
N	0.234489	-1.482975	-1.947648
O	1.301804	-1.264479	-2.506724
O	-0.288353	-2.565415	-1.709513
C	-0.409607	-1.073633	0.885596
N	-0.65822	-1.937998	1.644083
C	-0.455617	1.276244	0.509686
N	-0.768891	2.320858	0.955995
H	2.366547	0.0	0.0
