15

C	-0.390573	-0.040742	-1.44365
C	0.0	0.0	0.0
F	0.065041	-1.148709	-2.027745
H	1.112143	0.0	0.0
N	-1.901718	0.004742	-1.665832
O	-2.471287	-1.069159	-1.810903
O	-2.414305	1.118515	-1.603473
N	0.139805	1.147369	-2.235998
O	0.677356	2.055428	-1.620414
O	-0.010421	1.048249	-3.448769
C	-0.378518	-1.240834	0.646151
N	-0.55591	-2.27358	1.182229
C	-0.497452	1.14764	0.724386
N	-0.835721	2.078154	1.362127
H	2.352729	0.0	0.0
