14

C	0.0	0.0	0.0
C	-0.556262	-0.093304	-1.430862
Cl	1.791692	0.0	0.0
H	0.268725	-0.132917	-2.15059
H	-0.285004	-0.922156	0.505281
H	-1.138237	0.821273	-1.613701
C	-0.537856	1.189897	0.761254
H	-0.171644	1.20425	1.792677
H	-1.631004	1.054801	0.721699
H	-0.241888	2.125149	0.273817
N	-1.382793	-1.297018	-1.531781
H	-1.727987	-1.343611	-2.48767
H	-2.200741	-1.020978	-0.937512
F	-3.062323	0.0	0.0
