18

C	0.0	0.0	0.0
C	-0.63043	0.037367	-1.383407
Br	1.962159	0.0	0.0
H	-1.707111	0.26625	-1.068114
N	-0.353269	1.305388	0.734651
O	-0.581409	2.292876	0.048902
O	-0.330171	1.285389	1.959501
C	-0.485014	-1.160648	0.838093
H	-0.104063	-1.067667	1.852998
H	-1.581434	-1.071864	0.80003
H	-0.129697	-2.097753	0.408143
C	-0.657949	-1.338071	-2.053289
H	0.326346	-1.817004	-2.072053
H	-1.374334	-1.964262	-1.52252
H	-1.004838	-1.228393	-3.083306
C	-0.054504	1.019574	-2.28627
N	0.377625	1.740368	-3.109275
F	-2.854016	0.0	0.0
