18

C	0.0	0.0	0.0
C	-0.496613	0.048612	-1.487479
Br	1.940076	0.0	0.0
H	0.400116	-0.053366	-2.1123
N	-0.37123	1.233847	0.817792
O	-0.732313	1.062197	1.971608
O	-0.177749	2.328955	0.299865
C	-0.410953	-1.250509	0.757101
H	-0.052904	-2.127076	0.213898
H	-1.505329	-1.203189	0.782673
H	0.028588	-1.243478	1.753711
C	-1.264384	1.284933	-1.976135
H	-0.62963	2.169699	-1.981962
H	-2.126295	1.38645	-1.317981
H	-1.598062	1.079442	-2.998065
C	-1.293758	-1.148404	-1.788171
N	-1.760429	-2.142166	-2.209144
F	-2.614567	0.0	0.0
