18

C	0.0	0.0	0.0
C	-0.490809	0.020644	-1.486656
Br	1.958162	0.0	0.0
H	0.405653	-0.099705	-2.106437
N	-0.366822	1.249042	0.793386
O	-0.154527	2.333422	0.258257
O	-0.753242	1.101043	1.942614
C	-0.403909	-1.236867	0.779993
H	-1.498191	-1.192748	0.807694
H	0.03762	-1.211416	1.775259
H	-0.045243	-2.121765	0.251447
C	-1.246203	1.254085	-2.000417
H	-1.582791	1.031921	-3.017452
H	-2.106721	1.379	-1.345901
H	-0.601418	2.130366	-2.023045
C	-1.299471	-1.173447	-1.767772
N	-1.784637	-2.157684	-2.190093
F	-2.607882	0.0	0.0
