18

C	0.0	0.0	0.0
C	-0.623334	0.202677	-1.373893
Br	1.956177	0.0	0.0
H	-1.697243	0.402177	-1.043468
N	-0.355477	1.20958	0.881472
O	-0.325143	1.04711	2.095437
O	-0.583658	2.271068	0.315928
C	-0.488081	-1.25163	0.694343
H	-0.10794	-1.278463	1.713565
H	-0.13264	-2.131567	0.157043
H	-1.584232	-1.155242	0.664742
C	-0.656286	-1.085301	-2.198722
H	0.322891	-1.570366	-2.263579
H	-1.384473	-1.758971	-1.748527
H	-0.991283	-0.854312	-3.212189
C	-0.034299	1.281084	-2.150371
N	0.405807	2.09779	-2.873413
F	-2.848322	0.0	0.0
