18

C	0.0	0.0	0.0
C	-0.424378	0.246014	-1.468064
Br	1.961446	0.0	0.0
H	0.336888	-0.300583	-2.036887
N	-0.426224	1.021578	1.033755
O	-0.463432	2.200369	0.699914
O	-0.618467	0.608674	2.168588
C	-0.362517	-1.40388	0.465834
H	-1.445993	-1.406047	0.569813
H	0.143663	-1.642419	1.399509
H	-0.042378	-2.108869	-0.305369
C	-0.395217	1.685283	-1.988203
H	0.54308	2.176789	-1.727281
H	-1.223659	2.251753	-1.573201
H	-0.492907	1.647472	-3.0771
C	-1.696663	-0.391602	-1.866858
N	-2.374997	-0.930774	-2.669323
F	-2.513064	0.0	0.0
