12

C	0.0	0.0	0.0
C	-0.474585	0.109222	-1.430025
F	1.389226	0.0	0.0
H	-1.565628	0.076828	-1.397079
H	-0.352988	-0.937462	0.431133
H	-0.152573	1.083357	-1.827975
C	-0.409935	1.134309	0.846546
N	-0.585256	2.062266	1.542798
N	0.055998	-1.039376	-2.163914
H	-0.491421	-1.185419	-3.000889
H	1.013748	-0.862504	-2.437108
Cl	-3.561788	0.0	0.0
