12

C	0.0	0.0	0.0
C	-0.529856	-0.164767	-1.404538
F	1.390223	0.0	0.0
H	-1.620072	-0.177788	-1.308244
H	-0.347624	-0.812785	0.641982
H	-0.202176	-1.149325	-1.76621
C	-0.388133	1.292044	0.596772
N	-0.575511	2.330474	1.108044
N	-0.089189	0.944742	-2.245663
H	-0.829357	1.209268	-2.876442
H	0.727117	0.695504	-2.782914
Cl	-3.654042	0.0	0.0
