12

C	0.0	0.0	0.0
C	-0.459185	-0.133327	-1.446734
F	1.388813	0.0	0.0
H	0.021995	-1.036822	-1.838058
H	-0.357437	-0.829915	0.611947
H	-1.539336	-0.275494	-1.437397
C	-0.397928	1.283738	0.604104
N	-0.548917	2.353215	1.063035
N	-0.113898	1.002045	-2.292096
H	0.830452	1.306744	-2.086805
H	-0.739052	1.768558	-2.07209
Cl	-3.479045	0.0	0.0
