14
Coordinates from ORCA-job run
  C   1.09840789289852      0.09262760675456     -0.50375184596018
  C   -0.05785071584247     -0.00410547789529      0.48573161613359
  Cl  2.55829651217350      0.71578479099130      0.30943598832832
  H   0.25459690204094     -0.55262443267719      1.37514087295567
  H   0.83935463506091      0.81035725845834     -1.28488253230534
  C   1.37080892760845     -1.21200932454850     -1.09484971732532
  N   1.55744550496940     -2.27052461508094     -1.56798693678881
  C   -1.32145351456321     -0.57960524350531     -0.13179087622618
  H   -1.16258613812377     -1.61912261152714     -0.42111308701295
  H   -1.61425664779843     -0.00286424977032     -1.01141944860314
  H   -2.13277036343186     -0.54521715960876      0.59776603730515
  N   -0.37007160070804      1.38509605061193      0.96687061884261
  O   -0.45796631101797      2.26114353469909      0.11057559769789
  O   -0.56395508326597      1.52306387309824      2.17027371295870
