14
Coordinates from ORCA-job run
  C   0.89231149644643     -0.40617413884025     -0.73759101152489
  C   -0.27647320746881     -0.27454555204444      0.24593567369036
  Cl  0.92005191243577      0.80691259912277     -2.04134529079537
  H   -0.30348346164906     -1.19846587507846      0.82860085907406
  H   0.76440733405518     -1.37047061702888     -1.23777181410788
  C   2.17107397296775     -0.42746904348412     -0.03243346956602
  N   3.18842955916412     -0.48046225602035      0.55194027603741
  C   -1.61803204032199     -0.00586193440140     -0.40901457271159
  H   -1.82267718175685     -0.76278704418470     -1.16897298437003
  H   -1.62293931503408      0.97591960424823     -0.88087663225356
  H   -2.40559889766958     -0.04726613842990      0.34539614413873
  N   -0.01237734317790      0.79743764742140      1.26210624081633
  O   -0.24159294961441      0.50857363600613      2.43381707739889
  O   0.36690012162343      1.88565911271397      0.84020950417357
