15

C	-0.523986	-0.028573	-1.426792
C	0.0	0.0	0.0
F	0.027386	-1.044712	-2.131728
H	1.095829	0.0	0.0
H	-1.61244	-0.107319	-1.476596
N	-0.206367	1.267208	-2.135267
O	-1.051139	2.153526	-1.994965
O	0.83372	1.340256	-2.771224
C	-0.479636	-1.222374	0.643412
N	-0.917207	-2.168663	1.184315
C	-0.457029	1.230488	0.789722
H	-1.541726	1.359819	0.769392
H	-0.127594	1.119152	1.823298
H	0.016967	2.124826	0.385836
Br	3.440536	0.0	0.0
