15

C	-0.379167	-0.02021	-1.469864
C	0.0	0.0	0.0
F	0.123072	1.069016	-2.097006
H	1.096584	0.0	0.0
H	-0.048267	-0.926974	-1.976199
N	-1.884541	0.026181	-1.63135
O	-2.460075	-1.056023	-1.549563
O	-2.415422	1.120559	-1.785534
C	-0.460645	-1.211993	0.669486
N	-0.815825	-2.179076	1.233845
C	-0.480159	1.260972	0.720039
H	-0.02589	1.290094	1.711087
H	-0.145776	2.139123	0.167456
H	-1.567177	1.293757	0.823675
Br	3.427829	0.0	0.0
