15

C	-0.527417	-0.02636	-1.425751
C	0.0	0.0	0.0
F	-0.005761	-1.065106	-2.121056
H	1.095897	0.0	0.0
H	-1.617833	-0.07668	-1.472847
N	-0.175701	1.251367	-2.151233
O	-0.965684	2.180113	-1.972197
O	0.832442	1.270414	-2.840835
C	-0.477268	-1.225443	0.639749
N	-0.907283	-2.179981	1.172841
C	-0.456394	1.225771	0.797952
H	-1.541847	1.351115	0.78344
H	-0.121634	1.109687	1.829147
H	0.011441	2.124009	0.396195
Br	3.442361	0.0	0.0
