15

C	-0.465661	0.094167	-1.436676
C	0.0	0.0	0.0
F	-1.799908	0.384172	-1.522355
H	1.094302	0.0	0.0
H	0.105254	0.849592	-1.978692
N	-0.24114	-1.202567	-2.173684
O	-1.167414	-2.006275	-2.195869
O	0.868506	-1.340321	-2.673766
C	-0.523448	-1.185521	0.67067
N	-0.958997	-2.103107	1.260339
C	-0.407157	1.270987	0.757631
H	0.027138	1.237023	1.757215
H	-1.490137	1.375398	0.832073
H	0.009655	2.141964	0.246154
Br	3.423832	0.0	0.0
