15

C	-0.474242	0.096608	-1.433615
C	0.0	0.0	0.0
F	-1.822643	0.302424	-1.505928
H	1.094348	0.0	0.0
H	0.045114	0.896868	-1.962933
N	-0.161909	-1.165784	-2.201901
O	-1.067388	-1.980776	-2.358724
O	0.995051	-1.256692	-2.594089
C	-0.518904	-1.200686	0.648683
N	-0.94823	-2.138578	1.210356
C	-0.42206	1.25734	0.769938
H	-1.50653	1.35565	0.829424
H	0.000782	2.137089	0.279216
H	-0.006253	1.209839	1.776518
Br	3.467495	0.0	0.0
