15

C	-0.370179	-0.11207	-1.468761
C	0.0	0.0	0.0
F	0.076052	0.972495	-2.147042
H	1.096588	0.0	0.0
H	0.017002	-1.022355	-1.926619
N	-1.872017	-0.161188	-1.643874
O	-2.380253	-1.279943	-1.602822
O	-2.469141	0.903455	-1.773147
C	-0.463226	-1.172835	0.733038
N	-0.825451	-2.106564	1.346774
C	-0.483345	1.299056	0.645545
H	-0.039785	1.37773	1.638667
H	-1.570715	1.342626	0.732263
H	-0.136458	2.144439	0.051855
Br	3.420703	0.0	0.0
