15

C	-0.366972	-0.08646	-1.472209
C	0.0	0.0	0.0
F	0.071478	1.014959	-2.126572
H	1.096559	0.0	0.0
H	0.027075	-0.983024	-1.94904
N	-1.865373	-0.144906	-1.65247
O	-2.471619	0.917707	-1.727803
O	-2.362947	-1.267793	-1.67552
C	-0.466779	-1.187469	0.705829
N	-0.838169	-2.13738	1.288527
C	-0.482095	1.285969	0.672313
H	-0.128914	2.143934	0.100109
H	-1.569899	1.330428	0.754102
H	-0.042966	1.339451	1.669284
Br	3.420508	0.0	0.0
