13

C	-0.297933	-0.048824	-1.4913
C	0.0	0.0	0.0
Cl	0.117631	1.525885	-2.230047
H	1.094902	0.0	0.0
H	0.381065	-0.787363	-1.923777
C	-1.683919	-0.380374	-1.807804
N	-2.799219	-0.627648	-2.081903
N	-0.326743	-1.258076	0.628227
O	-0.433318	-1.285786	1.861519
O	-0.291503	-2.263093	-0.105291
C	-0.553419	1.122222	0.709219
N	-0.968064	2.071857	1.267109
H	2.343629	0.0	0.0
