13

C	-0.483473	0.001293	-1.442711
C	0.0	0.0	0.0
Cl	0.596125	-0.947458	-2.532766
H	1.091681	0.0	0.0
H	-1.452547	-0.495108	-1.50754
C	-0.581401	1.353772	-1.984355
N	-0.68368	2.426184	-2.454153
N	-0.398262	-1.205386	0.688998
O	-0.732858	-2.191014	0.006646
O	-0.226602	-1.221578	1.917977
C	-0.407221	1.16194	0.75096
N	-0.688118	2.146617	1.332266
H	2.319661	0.0	0.0
