13

C	-0.339966	-0.190102	-1.457386
C	0.0	0.0	0.0
Cl	-2.111697	-0.197814	-1.786049
H	1.103891	0.0	0.0
H	0.056071	0.689801	-1.973001
C	0.263127	-1.365418	-2.085781
N	0.707932	-2.246168	-2.722445
N	-0.406388	-1.078391	0.867012
O	-0.499344	-2.207296	0.36245
O	-0.479826	-0.83551	2.079802
C	-0.433806	1.283354	0.493356
N	-0.709878	2.377507	0.826408
H	2.354906	0.0	0.0
