13

C	-0.338339	-0.00862	-1.482335
C	0.0	0.0	0.0
Cl	0.125019	1.559636	-2.207025
H	1.095383	0.0	0.0
H	0.288098	-0.770973	-1.949566
C	-1.749817	-0.268221	-1.755218
N	-2.888564	-0.453748	-1.979245
N	-0.330948	-1.266822	0.609037
O	-0.389117	-1.320176	1.844334
O	-0.349039	-2.255912	-0.147011
C	-0.52623	1.113523	0.744737
N	-0.902885	2.060294	1.333787
H	2.347408	0.0	0.0
