13

C	-0.399023	0.22504	-1.434467
C	0.0	0.0	0.0
Cl	-2.186312	0.229289	-1.681037
H	1.103764	0.0	0.0
H	-0.065069	1.234273	-1.691668
C	0.211855	-0.692978	-2.395089
N	0.670674	-1.334701	-3.264858
N	-0.380545	-1.286829	0.535604
O	-0.472045	-2.226446	-0.267732
O	-0.429849	-1.399011	1.768
C	-0.416114	1.081489	0.859411
N	-0.666339	2.022327	1.520447
H	2.356537	0.0	0.0
