13

C	-0.323089	0.222482	-1.45754
C	0.0	0.0	0.0
Cl	-2.085332	0.149257	-1.823112
H	1.103112	0.0	0.0
H	-0.016785	1.24819	-1.680479
C	0.398059	-0.649866	-2.384918
N	0.955912	-1.241835	-3.232531
N	-0.377808	-1.296505	0.505936
O	-0.516219	-1.418583	1.730951
O	-0.37773	-2.233529	-0.306538
C	-0.484881	1.071136	0.832073
N	-0.833039	2.009729	1.44999
H	2.350535	0.0	0.0
