17

C	0.0	0.0	0.0
C	-0.532328	0.014923	-1.459076
Br	1.953751	0.0	0.0
H	-1.611871	0.162891	-1.490237
C	-0.428376	1.269401	0.795076
H	-0.075306	1.162193	1.820752
H	-1.518799	1.354249	0.826938
H	-0.021236	2.172828	0.348563
C	-0.482595	-1.195378	0.680734
N	-0.897735	-2.14751	1.255145
N	-0.313896	-1.247325	-2.242129
O	0.423541	-2.116725	-1.794424
O	-1.015601	-1.324723	-3.250523
N	0.039675	1.152101	-2.252501
O	-0.557471	2.21825	-2.100109
O	0.929429	0.915412	-3.06198
H	-1.596995	0.0	0.0
