17

C	0.0	0.0	0.0
C	-0.5338	-0.012121	-1.453842
Br	1.955784	0.0	0.0
H	-1.572004	-0.344018	-1.494301
C	-0.465051	1.248033	0.812765
H	-0.038509	2.162325	0.406622
H	-1.556713	1.324362	0.802908
H	-0.163648	1.115411	1.85167
C	-0.436109	-1.217381	0.675652
N	-0.814826	-2.169376	1.269398
N	0.251004	-0.966723	-2.315835
O	0.697854	-0.553764	-3.390711
O	0.061685	-2.145985	-2.010865
N	-0.533981	1.332506	-2.104893
O	-1.557034	1.60876	-2.735146
O	0.443603	2.054811	-1.953581
H	-1.59331	0.0	0.0
