17
Coordinates from ORCA-job run
  C   0.83673495271730      0.33772435815975      0.00149504021479
  C   -0.68775796435137      0.35361877902565     -0.16027686882696
  Br  1.47733391071160      1.47521542698953     -1.59337464252664
  H   -0.98815792960065      1.38242520289732     -0.35175589664835
  N   1.22417768574652      1.10677488644915      1.15222315706735
  H   2.16761589835225      1.45756873394799      1.05603855750684
  H   1.15416577780338      0.50976680911596      1.96921054192225
  N   1.38059133693235     -0.95863520046946     -0.04314689345412
  H   1.17676341554841     -1.45518583476242     -0.90037425235062
  H   2.37943181817868     -0.94882586342347      0.11765930321799
  N   -1.37970992242727      0.02259293689028      1.14256392941538
  O   -0.79332377533447     -0.63988550486563      1.99412629376125
  O   -2.53805199424900      0.42141347768004      1.22602717999749
  C   -1.24418827535411     -0.59410899908850     -1.20902777467179
  H   -2.31639684210700     -0.43010915751909     -1.31777223193111
  H   -0.76688808042386     -0.40884307508599     -2.17226381627937
  H   -1.08234001214276     -1.63250697594111     -0.91135162641439
