17
Coordinates from ORCA-job run
  C   0.84797107372148     -0.00530959733119      0.12855659261455
  C   -0.63483851933275      0.16550628776968     -0.23149506965942
  Br  1.08756764078385     -1.61320730316752      1.32958215126376
  H   -0.63981424099105      0.89615071868247     -1.04577657283108
  N   1.51820791975925     -0.36228399533078     -1.10572316581877
  H   1.78747509621957      0.49696643977188     -1.57461483988005
  H   2.34397007286848     -0.91670915223439     -0.92392641050389
  N   1.37361569430766      1.18351538891694      0.69482439111264
  H   2.37402943730298      1.09833723287185      0.82739671740884
  H   0.93428357431785      1.40084366457137      1.58092892529480
  N   -1.45501824166096      0.82628194340933      0.84159683730158
  O   -1.07229416175580      0.78030705529148      2.01023676202885
  O   -2.50429304309197      1.33704370579041      0.46162431726774
  C   -1.36058482332302     -1.09475158264970     -0.66547501925878
  H   -2.30943771000514     -0.82403698732072     -1.12973867120978
  H   -1.55231937413867     -1.74507466744198      0.18792553236356
  H   -0.73852039498176     -1.62357915159911     -1.38592247749456
