17
Coordinates from ORCA-job run
  C   0.87257988794261      0.40114168690953      0.02318379727298
  C   -0.61784421295189      0.22792088086195     -0.33307666503220
  Br  1.12471553032103      2.43621624606179      0.14884882113313
  H   -0.79988710074987      0.75058890102198     -1.27240958910728
  N   1.23364286488114     -0.29491912536245      1.18200537967797
  H   0.64078959765759     -0.07172707242922      1.97007007933901
  H   2.21247685767512     -0.15038562052242      1.39221525637699
  N   1.77299164294625      0.00904359812496     -1.01985879728993
  H   1.59927325119515      0.49778356015390     -1.88750046136900
  H   1.74103905731086     -0.99510937474722     -1.14691424235694
  N   -1.52470597235418      0.90640647444279      0.64938401023962
  O   -2.37737719288976      1.66250001615237      0.19645910880856
  O   -1.38506478658870      0.61919927427987      1.83884075038503
  C   -1.04345343943532     -1.23062546145418     -0.41343100013236
  H   -0.90287456426565     -1.72567827501176      0.54598019535353
  H   -2.09406475759933     -1.29112828295377     -0.70619380303314
  H   -0.45323666309500     -1.75122742552812     -1.16860284026597
