17
Coordinates from ORCA-job run
  C   0.86664467341619      0.38570286447980     -0.20628914601634
  C   -0.67843804082066      0.30476254627054     -0.17170242985505
  Br  1.26425414027178      1.49533596721777     -1.81755912302561
  H   -1.07403961449698      1.31757628975907     -0.24370694693583
  N   1.46163280334685      1.10328978905822      0.89304184032462
  H   1.06330269069704      2.02664270262677      1.01759718583149
  H   1.36939555727143      0.56673351274257      1.74896903032457
  N   1.44125315806918     -0.90142194867952     -0.39086778026267
  H   1.03230746266212     -1.56545888649663      0.25706016540728
  H   2.44329905953244     -0.84624630904789     -0.25382704566235
  N   -1.06475336086737     -0.13570828373699      1.21182797103977
  O   -0.73488385935128     -1.27291286248652      1.55658903484363
  O   -1.65727508504036      0.67234969398682      1.92272942798147
  C   -1.31513142601813     -0.62150681605990     -1.18824919713727
  H   -2.40327605882586     -0.57913920370519     -1.09959738822367
  H   -0.98246881761397     -1.64751728546795     -1.04432961812068
  H   -1.03182328223244     -0.30248177046099     -2.19068598051335
