17
Coordinates from ORCA-job run
  C   0.83653743660050      0.10109357924233      0.13987707012393
  C   -0.67145368868467      0.12631031208100     -0.16846157934856
  Br  1.26949267772834     -1.36251413334574      1.44836641700825
  H   -0.78868500239248      0.92218547629154     -0.90780930914434
  N   1.52598344172168     -0.10087025569044     -1.09986105923651
  H   1.35679741187031     -1.02563843400234     -1.47828579551019
  H   2.52435880309828     -0.00439013036305     -0.95386089334552
  N   1.19819847796064      1.31421164269499      0.81098760824783
  H   1.06508608860561      2.10099958266811      0.18389077373761
  H   2.15797454643806      1.28692164772627      1.13086421770360
  N   -1.42885990337337      0.62466969668651      1.02481034949826
  O   -1.70495105080897      1.82235317737969      1.03678904880651
  O   -1.72906512162775     -0.19150421181807      1.89083943643011
  C   -1.28126924393616     -1.16698365746205     -0.66588078879097
  H   -0.81404587955191     -1.47210803676073     -1.60415818144065
  H   -2.34503344644491     -1.01850676678637     -0.86206398581225
  H   -1.17106554720322     -1.95722948854166      0.07395667107285
