17
Coordinates from ORCA-job run
  C   0.88009367853429      0.35586898165573      0.01474056226860
  C   -0.65932044073824      0.34166641104176     -0.15663291746054
  Br  1.52025369964294      1.42377851687855     -1.61775339704905
  H   -1.02189840373723      1.36790354962928     -0.22738554483820
  N   1.20439403549392      0.96106348594088      1.23524530217132
  H   0.79380047475697      1.87534907251774      1.36798527322861
  H   2.20538991261083      0.97673611080024      1.37758473426345
  N   1.58115289445344     -0.88772333950402     -0.05918826150585
  H   1.50609890325877     -1.30775976497253     -0.97525489725079
  H   1.20304014661934     -1.51527337174387      0.64359804697232
  N   -1.22280904012982     -0.17088267877402      1.13930452949201
  O   -1.04726103185465     -1.36149321668604      1.39368662681760
  O   -1.80371441195606      0.63581497371439      1.86027510006132
  C   -1.18094467178386     -0.51616664347499     -1.28947061907475
  H   -0.87031808564259     -1.55227973954424     -1.15938097114604
  H   -0.81451018480139     -0.13995083908134     -2.24380423683414
  H   -2.27244747472664     -0.48665150839748     -1.30254933011589
