17
Coordinates from ORCA-job run
  C   0.85386196555249      0.38262741678371     -0.25816149688002
  C   -0.68770153489743      0.29702684262554     -0.14866986016799
  Br  1.17049332248517      1.44684262773937     -1.91765125440843
  H   -1.09054795033027      1.30619371927794     -0.23123015237020
  N   1.49601711562853      1.13427012602803      0.79057415598264
  H   1.44666045789203      0.62374626331677      1.66572449020949
  H   1.10112990693543      2.06025738887771      0.90584627295569
  N   1.42540758197366     -0.90720084058555     -0.43089212445060
  H   1.04591192254645     -1.55500924236349      0.25040117792823
  H   2.43213348378436     -0.84600856663103     -0.33865902608198
  N   -1.00462468460460     -0.10368429988870      1.26432227438340
  O   -0.66099757566083     -1.23261126394126      1.62258867986068
  O   -1.55719299254982      0.72631463691765      1.98193097750105
  C   -1.36683882319318     -0.66049465974426     -1.10689932077572
  H   -1.02472776038409     -1.68110405587670     -0.94752531809134
  H   -1.12996627810944     -0.37111413129669     -2.13015727077454
  H   -2.45001815706846     -0.61805196123906     -0.97054220482038
