17
Coordinates from ORCA-job run
  C   0.86930680813464      0.37907767340568     -0.04327290849332
  C   -0.67653710415260      0.32132257564747     -0.12203692577465
  Br  1.38189772896060      1.43916626687043     -1.72525051960099
  H   -1.07054211376718      1.33645790494291     -0.18511448885726
  N   1.24832452353544      1.01126188988918      1.14748741789247
  H   0.81905115283909      1.91514684542554      1.29222534404097
  H   2.25505525447374      1.05900668413184      1.22944411624243
  N   1.59893305939641     -0.84584714497572     -0.14189250026837
  H   1.48043933311639     -1.28335436398369     -1.04503348555369
  H   1.28383716322485     -1.47152235442542      0.59278661664617
  N   -1.14767304269127     -0.18563799768835      1.21255997466734
  O   -0.92452683729779     -1.36713103360086      1.47239816577297
  O   -1.70646966988401      0.61634014297647      1.95592322026370
  C   -1.24163818294129     -0.56712171674799     -1.20950617201886
  H   -0.94608473017254     -0.19386602249172     -2.18922868581628
  H   -0.89311971956928     -1.59197446707532     -1.08642201782881
  H   -2.33225362320521     -0.56932488230047     -1.15506715131381
