17
Coordinates from ORCA-job run
  C   0.85315627229326      0.21147018938645     -0.04658883448183
  C   -0.65151554885972      0.24152586418490     -0.33228517520332
  Br  1.37154969562843      2.28548825662247      0.13634253870090
  H   -0.80794659359722      0.76899935301784     -1.27335506308898
  N   1.19451355628180     -0.48399682964912      1.11222910087922
  H   2.17938552002335     -0.40862442796689      1.33089992742218
  H   0.63432617438263     -0.18427728739902      1.89972532691655
  N   1.51793383238948     -0.30046380546695     -1.18217888559415
  H   1.50728088960539      0.36185183710081     -1.94630951111365
  H   2.47586635579460     -0.55308210964794     -0.97513188104564
  N   -1.40822963108142      1.04699097108005      0.67727439332522
  O   -2.18193433151635      1.89634649701766      0.25049108961773
  O   -1.24934229090758      0.75789260342589      1.86395110526811
  C   -1.25174475386455     -1.15637660360342     -0.36751241322506
  H   -1.17050198943072     -1.63275299048232      0.60848178291331
  H   -2.30339134982733     -1.09783492301726     -0.65708552717459
  H   -0.70840580731408     -1.75415659460319     -1.09794797411596
