17
Coordinates from ORCA-job run
  C   0.80321397699992      0.54021002991488     -0.20772988632618
  C   -0.70077228428431      0.19266264127306     -0.32070534420248
  Br  0.93076727151811      2.50136847958220     -0.40209804951747
  H   -1.05609839936801      0.56653182146241     -1.27957264031900
  N   1.48706433449038      0.20384536059654      1.00975228799357
  H   0.97191642584544      0.52079703219225      1.82259922680214
  H   1.61119460986552     -0.80055109482454      1.06880012030671
  N   1.43743181572022     -0.03256994607851     -1.37227650907069
  H   1.49583276103960     -1.04051372225625     -1.26049575172516
  H   2.38576606637853      0.32355801129400     -1.42439164496329
  N   -1.50974955415834      0.92520612629521      0.70368607446500
  O   -2.41177219453512      1.65043240125260      0.29582737576983
  O   -1.23983753540831      0.72322677043637      1.88880945212682
  C   -0.98667951933825     -1.29157483208811     -0.15643213823619
  H   -0.61727958064830     -1.65905295190110      0.80149603123728
  H   -2.06406900546479     -1.46578212832374     -0.19546267885824
  H   -0.53592918865230     -1.85779399882728     -0.97280592548264
