17
Coordinates from ORCA-job run
  C   0.85207904642473      0.41570935845968     -0.13931088956422
  C   -0.66375443163386      0.16592298982386     -0.32389170962735
  Br  1.08083914903397      2.43347595062098     -0.24260485646869
  H   -0.95941308109240      0.51172788307821     -1.31604390802066
  N   1.46598687234778      0.01430709282143      1.08471581796105
  H   1.47479833943807     -0.99831615528781      1.13419553858602
  H   0.97045116489487      0.39405291559327      1.88051242197570
  N   1.52464841046742     -0.25226874076006     -1.19214763434650
  H   2.52423784682657     -0.13134077160473     -1.07700588699060
  H   1.24726448507018      0.09378496720640     -2.10181776243677
  N   -1.47739753098167      0.99751813398512      0.61554989314143
  O   -1.25007689837985      0.86781363812682      1.81844540654968
  O   -2.34226254133639      1.71818961352202      0.12769302506534
  C   -1.03952101358647     -1.29060580380190     -0.10584554170282
  H   -0.46326864768484     -1.92094396895418     -0.78197754550096
  H   -0.83955279834428     -1.58567228976003      0.92455812843655
  H   -2.10405837146393     -1.43335481306905     -0.30402449705724
