17
Coordinates from ORCA-job run
  C   0.87745096248381      0.36154697176998     -0.01413218224085
  C   -0.66237236187343      0.32587159763759     -0.17622537747443
  Br  1.50191440296655      1.32256467303935     -1.71794745412454
  H   -1.03225237748419      1.34260645423874     -0.31448970030853
  N   1.20349066578737      1.04928972089664      1.16135902202191
  H   2.20495158449618      1.08352272920871      1.29700914993046
  H   0.78570303192727      1.96706858796853      1.23462502480993
  N   1.58699220879388     -0.87907390518148     -0.00864495136654
  H   1.50710403021549     -1.36266186726762     -0.89236485915053
  H   1.22080061887274     -1.45853975959662      0.74016830304986
  N   -1.21684030731687     -0.10141312946654      1.15457799002855
  O   -1.03080570497098     -1.27060758713994      1.48831981937788
  O   -1.80099996042397      0.74818893429440      1.82153202908040
  C   -1.18363716557453     -0.61015948802522     -1.24564041370080
  H   -0.81970215891678     -0.30088786712803     -2.22468185671410
  H   -0.86957492711682     -1.63367443099887     -1.04373272485862
  H   -2.27522254186575     -0.58464163424962     -1.25873181836007
