17
Coordinates from ORCA-job run
  C   0.87978848640033      0.38430174116066      0.04136062213254
  C   -0.60952101829738      0.24582852857162     -0.33518650839662
  Br  1.16729356824637      2.41147088347554      0.21160790887852
  H   -0.77086727478221      0.79013794148769     -1.26595929634395
  N   1.21495035469285     -0.34186196252756      1.18930489839325
  H   2.19349947652234     -0.21921082773984      1.41420944784122
  H   0.61627394254472     -0.12555735401219      1.97484026371350
  N   1.78486084493067     -0.00280644552150     -0.99952425489843
  H   1.62990512143960      0.50647730138301     -1.85886159621602
  H   1.73635220213333     -1.00344990028602     -1.14726552202225
  N   -1.51535751768553      0.92218348573984      0.64986926078417
  O   -1.39848927235350      0.60614744122808      1.83450657449543
  O   -2.34650754501692      1.70497443340369      0.20233578120241
  C   -1.06087239260540     -1.20265810494333     -0.44938086438584
  H   -2.10924863272902     -1.23775814535342     -0.75408676984307
  H   -0.47231559175202     -1.71875625218748     -1.20892722293278
  H   -0.93974475168823     -1.71946276387880      0.50115727759798
