17
Coordinates from ORCA-job run
  C   0.89513554897080      0.33989270511599     -0.03756301007658
  C   -0.62045553335752      0.26832594476294     -0.34046864168775
  Br  1.31889696857843      2.32350764100640      0.11264126902992
  H   -0.81160705633173      0.75301393815168     -1.29957122928793
  N   1.38020554237647     -0.25644530001092      1.16416154563138
  H   1.29460031876170     -1.26405711863325      1.09198686015987
  H   0.86622588836173      0.07757573968465      1.96866351361157
  N   1.57476718033954     -0.27036810398595     -1.12049344655314
  H   2.57081291597263     -0.26351103824998     -0.93365017646905
  H   1.39462045976887      0.20101156585024     -1.99772351580254
  N   -1.41695730272262      1.06622908965578      0.64179816361067
  O   -1.28776273450372      0.77993905337392      1.83214419667263
  O   -2.17487699355279      1.92050897044094      0.19310063716013
  C   -1.14646018925480     -1.15761283560263     -0.32116952883505
  H   -2.20354981992713     -1.16737028425689     -0.59562145792173
  H   -1.04629487409889     -1.58734231131616      0.67587453220828
  H   -0.58730031938097     -1.76229765598675     -1.03410971145069
