15

C	0.0	0.0	0.0
C	-0.499997	0.129599	-1.42648
F	1.326688	0.0	0.0
H	-1.595234	0.047728	-1.326104
H	-0.210008	1.136328	-1.732155
N	-0.470203	1.133605	0.889218
O	-0.894729	0.916995	2.009169
O	-0.261355	2.242721	0.397882
N	-0.358833	-1.343324	0.622581
O	0.116747	-1.548999	1.737987
O	-0.953754	-2.165441	-0.058433
N	0.190285	-0.863957	-2.260173
H	0.360453	-0.465319	-3.17262
H	-0.43116	-1.652371	-2.375691
F	-2.601774	0.0	0.0
