15

C	0.0	0.0	0.0
C	-0.433316	-0.136776	-1.488054
F	1.339146	0.0	0.0
H	0.516176	-0.209509	-2.03285
H	-0.954261	-1.086856	-1.544331
N	-0.364332	1.327299	0.650033
O	0.077221	2.27763	-0.002008
O	-0.940571	1.413275	1.71695
N	-0.35639	-1.177651	0.888023
O	-0.092013	-1.049979	2.080349
O	-0.697056	-2.221323	0.349599
N	-1.278268	0.865165	-2.091342
H	-0.845016	1.772015	-1.981833
H	-2.097041	0.813675	-1.469417
F	-2.415275	0.0	0.0
