15

C	0.0	0.0	0.0
C	-0.528294	0.061465	-1.411638
F	1.33702	0.0	0.0
H	-0.320225	-0.91268	-1.857084
H	-1.622244	0.175637	-1.243589
N	-0.338039	1.263834	0.796885
O	0.228262	1.349076	1.885565
O	-1.023582	2.129513	0.279713
N	-0.475103	-1.223778	0.757117
O	-0.381554	-2.265525	0.11071
O	-0.787276	-1.139371	1.932717
N	0.145301	1.15911	-2.109566
H	0.694445	0.810934	-2.883751
H	-0.557911	1.786807	-2.472061
F	-2.639066	0.0	0.0
