15

C	0.0	0.0	0.0
C	-0.444868	0.013388	-1.459631
F	1.337009	0.0	0.0
H	-0.222652	1.021745	-1.814032
H	-1.526512	-0.138387	-1.411256
N	-0.467873	1.206693	0.785261
O	-0.830018	1.100531	1.942569
O	-0.315118	2.266527	0.177009
N	-0.363879	-1.299304	0.696495
O	0.04164	-1.417799	1.850408
O	-0.880846	-2.1853	0.033942
N	0.332153	-0.984978	-2.200402
H	-0.283274	-1.740445	-2.465784
H	0.725996	-0.579187	-3.03722
F	-2.490192	0.0	0.0
