15

C	-0.553299	0.016273	-1.422753
C	0.0	0.0	0.0
Br	0.046792	-1.647884	-2.280999
H	1.090274	0.0	0.0
C	-2.010662	0.049142	-1.555984
N	-3.173064	0.067759	-1.734395
C	0.047298	1.123838	-2.16427
N	0.562996	1.999603	-2.754924
N	-0.514109	-1.189362	0.757327
O	-1.733482	-1.235248	0.931348
O	0.317211	-1.994372	1.156978
N	-0.49566	1.186719	0.766642
O	-0.138378	1.228127	1.93683
O	-1.024558	2.107969	0.116307
F	2.475077	0.0	0.0
