15

C	-0.486656	0.014639	-1.448215
C	0.0	0.0	0.0
Br	0.401113	-1.416862	-2.463656
H	1.088811	0.0	0.0
C	-1.93542	-0.131464	-1.624394
N	-3.094382	-0.208895	-1.80831
C	-0.06929	1.27411	-2.07127
N	0.259174	2.28423	-2.575659
N	-0.522623	-1.141816	0.773876
O	-0.271094	-1.118128	1.976225
O	-1.124172	-2.038591	0.183413
N	-0.521308	1.23181	0.674472
O	0.246294	2.182469	0.77545
O	-1.695245	1.208881	1.052741
F	2.431635	0.0	0.0
