16

C	0.0	0.0	0.0
C	-0.411468	0.327394	-1.433378
F	1.413251	0.0	0.0
H	-0.092202	1.346448	-1.653862
H	-0.308342	0.824677	0.647035
N	-0.537867	-1.201018	0.481194
H	-0.346362	-1.347759	1.459901
H	-0.256837	-1.992471	-0.078718
C	-1.880964	0.10749	-1.725414
H	-2.146953	-0.939781	-1.602659
H	-2.528244	0.64467	-1.029098
H	-2.107091	0.431845	-2.744328
N	0.416802	-0.506101	-2.369002
O	1.087988	0.078369	-3.216863
O	0.356846	-1.729979	-2.246944
Cl	-4.947603	0.0	0.0
