16

C	0.0	0.0	0.0
C	-0.313253	0.644084	-1.404261
F	1.411872	0.0	0.0
H	0.659211	0.761629	-1.89226
H	-0.328163	0.709475	0.760811
N	-0.488075	-1.276063	0.353467
H	-1.485505	-1.161497	0.539364
H	-0.393233	-1.908275	-0.432036
C	-1.026086	1.972561	-1.289617
H	-0.418971	2.63557	-0.666775
H	-2.002173	1.819591	-0.826447
H	-1.157005	2.434904	-2.267609
N	-1.014813	-0.273997	-2.368114
O	-0.563873	-1.419266	-2.458236
O	-1.895974	0.180575	-3.087057
Cl	-3.549104	0.0	0.0
