16

C	0.0	0.0	0.0
C	-0.478442	0.016324	-1.448625
F	1.382342	0.0	0.0
H	-1.564652	0.165259	-1.412206
H	-0.296118	0.938843	0.476737
N	-0.490076	-1.178212	0.649402
H	-1.50815	-1.140892	0.543604
H	-0.305699	-1.089121	1.642863
C	-0.087797	-1.220006	-2.2243
H	-0.449635	-1.162739	-3.250881
H	0.995438	-1.34174	-2.239209
H	-0.532518	-2.084003	-1.731611
N	0.080812	1.258209	-2.084491
O	0.714179	1.15436	-3.134547
O	-0.141629	2.327142	-1.517732
Cl	-3.563421	0.0	0.0
