16

C	0.0	0.0	0.0
C	-0.309336	0.521702	-1.455588
F	1.403923	0.0	0.0
H	0.672341	0.671125	-1.913236
H	-0.326381	0.778025	0.692643
N	-0.499951	-1.236295	0.461463
H	-1.49903	-1.108428	0.630891
H	-0.391264	-1.940837	-0.256648
C	-1.107325	1.807413	-1.491736
H	-1.177069	2.196098	-2.508456
H	-2.107988	1.630366	-1.096877
H	-0.593528	2.547127	-0.870804
N	-0.903714	-0.522587	-2.356031
O	-1.809929	-0.209157	-3.118062
O	-0.35722	-1.630046	-2.33833
Cl	-3.60419	0.0	0.0
