16

C	0.0	0.0	0.0
C	-0.243013	-0.826011	-1.294549
F	1.409745	0.0	0.0
H	0.176402	-0.251718	-2.122612
H	-0.338197	1.022663	-0.179057
N	-0.527767	-0.455277	1.227213
H	-1.512699	-0.198512	1.271478
H	-0.454364	-1.463318	1.282071
C	-1.646013	-1.290164	-1.599398
H	-1.634947	-1.879025	-2.521581
H	-2.052126	-1.889215	-0.787695
H	-2.325305	-0.448513	-1.709987
N	0.638041	-2.040487	-1.238421
O	1.432644	-2.222034	-2.159339
O	0.487298	-2.808128	-0.287344
Cl	-4.147349	0.0	0.0
