15
Coordinates from ORCA-job run
  C   -0.45443191906989     -0.22394583331327      0.07597367198572
  C   0.92770320046812      0.30403964305542      0.39948954442277
  H   -0.57405838676947     -1.19888906222802      0.56849499819842
  H   1.09678034244880      1.26989908247569     -0.07634752562581
  H   1.09883431228861      0.38847084731078      1.47601800464486
  N   -0.59027956966656     -0.29846789115085     -1.37698580166518
  H   -1.56669640593107     -0.41359552375495     -1.62109240426916
  H   -0.09736425153194     -1.11532869886820     -1.71778611223854
  C   -1.48839003409519      0.74700931962978      0.63010271718393
  H   -2.49827779892065      0.36921873725767      0.44999102060439
  H   -1.39503461495010      1.71647166565929      0.13497865346238
  H   -1.37333626105369      0.88475424865407      1.70762000980152
  N   2.02391447241552     -0.58657647615376     -0.10356641097231
  O   1.75127899215948     -1.76013320847664     -0.35459929150690
  O   3.13835792220803     -0.08292685009702     -0.19429107402609
