15
Coordinates from ORCA-job run
  C   -0.43055007138450     -0.37788515662792     -0.04429329131382
  C   1.05592044623373     -0.21943308959019     -0.35486652184467
  H   -0.52134880129799     -1.08713974256817      0.79063305090870
  H   1.21343262880784      0.53933376417139     -1.11884822272392
  H   1.49748979757546     -1.17124002209068     -0.65523639944383
  N   -1.05375793734117     -0.85326324703311     -1.27911875569208
  H   -0.84123186593707     -1.83422667110496     -1.42217208691424
  H   -2.06090886014256     -0.77341484806155     -1.20521598476776
  C   -1.05093215965128      0.94950964277528      0.35841394973169
  H   -2.11222280998696      0.81811161482467      0.58687934242187
  H   -0.95989598645428      1.66656827919576     -0.46101730714463
  H   -0.57234617201309      1.36734048777456      1.24568354323245
  N   1.77722650579990      0.21483719682972      0.86983644477003
  O   2.19619561619974      1.37061724588170      0.91232426161618
  O   1.86192966959223     -0.60971545437648      1.77899797716402
