15
Coordinates from ORCA-job run
  C   -0.49786660181592     -0.22905447769481      0.16977640151424
  C   0.90439731404263      0.35864545332189      0.37562642047478
  H   -0.58658357680931     -1.09138014292427      0.83759420776300
  H   1.05933488514691      1.25295134646985     -0.22861066462494
  H   1.10732440748244      0.56048835932668      1.42900212807536
  N   -0.75129159654345     -0.70732406759760     -1.17983732340431
  H   -0.55675918823598      0.01843445734458     -1.86051752893060
  H   -0.17214561820822     -1.50747677841566     -1.40285927374777
  C   -1.53773137944012      0.81582372988037      0.54762523108288
  H   -2.53485966326995      0.38513964348566      0.45382270742868
  H   -1.47723921822417      1.67783487341787     -0.12425790646941
  H   -1.39887079824919      1.17163273847360      1.57157034411579
  N   1.91045156227818     -0.63751472498685     -0.07399920950663
  O   1.99865282227027     -1.66769798075435      0.59228212392946
  O   2.53318664957588     -0.40050242934697     -1.10821765770054
