15
Coordinates from ORCA-job run
  C   -0.49963971754060     -0.41195407707004      0.06178879419299
  C   0.97571623739987     -0.30916100514885     -0.34904345541981
  H   -0.54979929369853     -1.07410071497452      0.93152053281280
  H   1.10351063003269      0.34248405068085     -1.21387953304527
  H   1.39363646636944     -1.29844776179567     -0.54375075504996
  N   -1.31713698576383     -1.00463264420907     -0.98880650372743
  H   -1.29348393666461     -0.42752117697582     -1.82217443646815
  H   -0.98073461649753     -1.92768565511025     -1.23653646926625
  C   -1.06420973585311      0.94879555127309      0.43670763659524
  H   -2.12101061634986      0.84266235952423      0.68378260893744
  H   -0.97318903780559      1.64914352934822     -0.39998989690617
  H   -0.54659191951721      1.38256063619088      1.29401320039549
  N   1.77341828456829      0.27882233057867      0.75965452766702
  O   1.88944692840702     -0.41061688025862      1.77197224905677
  O   2.21006731291357      1.41965145794690      0.61574150022528
