15
Coordinates from ORCA-job run
  C   -0.40499169724388     -0.47129388207042     -0.00295941011732
  C   1.07566884620928     -0.31363023406264     -0.33533749307609
  H   -0.47325010282123     -1.17176964316929      0.83464740067362
  H   1.22760902054193      0.32151768288643     -1.20837334863553
  H   1.53202090568192     -1.29140537149957     -0.48371686936579
  N   -1.01139019911047     -1.11752976187910     -1.16612687760392
  H   -1.16984756630600     -0.42773458915395     -1.89318485458400
  H   -1.91614749496996     -1.49666179114983     -0.91461215639450
  C   -1.04180329133193      0.85657987232649      0.39849621401642
  H   -2.11106371518499      0.71731048617643      0.57537297962472
  H   -0.91975441789969      1.59755260044093     -0.39811734319864
  H   -0.60300651505309      1.26628437637952      1.31154524139123
  N   1.77670422621444      0.34248489017658      0.79946278856525
  O   1.83949215132815     -0.29895854483742      1.84709339769210
  O   2.20075984994553      1.48525390943584      0.63481033101247
