15
Coordinates from ORCA-job run
  C   -0.55624543490864     -0.34657464201509      0.23046055064095
  C   0.90537508675216     -0.43779448438753      0.66452273630176
  H   -1.09880599076279     -0.98623144205838      0.94861327106283
  H   1.24067890846392     -1.47462784484547      0.70128774671854
  H   1.06051409367732      0.04586445934654      1.62948761734015
  N   -0.65330106190441     -0.80911995357175     -1.14860993092937
  H   -0.34657378244428     -1.77129922181362     -1.23482023785893
  H   -1.61405126089582     -0.75856556550437     -1.46421004984997
  C   -1.12980021092015      1.05956239236279      0.32580586339014
  H   -2.19797186069922      1.03944355399843      0.09149684944272
  H   -1.01485552459097      1.46556334693437      1.33322700883663
  H   -0.63106407414724      1.72288213870040     -0.37978140252185
  N   1.79437835558059      0.24345259952473     -0.31618082028768
  O   2.40891299801606     -0.46543315555348     -1.10850874358650
  O   1.83280975878346      1.47187781888242     -0.27279045869939
