15
Coordinates from ORCA-job run
  C   -0.46611056367616     -0.19602089570326      0.08118382166054
  C   0.91841388944387      0.32567152169111      0.40469658961437
  H   -0.64945522964367     -1.08849861921339      0.69536040375702
  H   1.14978686819296      1.20977487187462     -0.18918566148264
  H   1.03963407235521      0.55325781307442      1.46719975612265
  N   -0.53157506166912     -0.46767391684211     -1.35302609998404
  H   -1.49835308882725     -0.57967216739844     -1.63397767694227
  H   -0.05796742504514     -1.34114644110007     -1.55057280517346
  C   -1.48643322526366      0.87615907397802      0.43892131753225
  H   -1.32900498791683      1.76423896337398     -0.17775759571867
  H   -1.42040410895980      1.15797185923497      1.49224578368433
  H   -2.50046503968711      0.51093904416934      0.25620275547710
  N   2.00109305944627     -0.66242292505835      0.08932898774108
  O   3.13801327780218     -0.21372442522770     -0.01018357315212
  O   1.69382756344825     -1.84985375685311     -0.01143600313613
