19

C	-0.405843	-0.04819	-1.469293
C	0.0	0.0	0.0
Cl	-2.175296	-0.346796	-1.672261
H	1.09076	0.0	0.0
N	-0.129918	1.367299	-2.001144
O	-1.009934	2.219096	-1.928715
O	1.012563	1.555832	-2.409226
C	0.384531	-1.019007	-2.31835
H	1.43805	-0.924325	-2.037962
H	0.050568	-2.031836	-2.11395
H	0.24182	-0.788404	-3.376392
N	-0.383448	-1.256031	0.651585
O	0.053549	-2.308657	0.16557
O	-1.047715	-1.210196	1.696894
C	-0.487738	1.197716	0.779573
H	-0.00355	2.09641	0.394702
H	-1.571721	1.319451	0.743618
H	-0.178188	1.077266	1.81716
H	2.574631	0.0	0.0
