19

C	-0.35013	0.069589	-1.479896
C	0.0	0.0	0.0
Cl	0.153495	-1.442129	-2.254184
H	1.091699	0.0	0.0
N	-1.84099	0.294104	-1.765198
O	-2.28171	1.346134	-1.305533
O	-2.482326	-0.504656	-2.427951
C	0.422838	1.210332	-2.116977
H	0.302892	1.178974	-3.203387
H	1.474903	1.070628	-1.838737
H	0.065453	2.167882	-1.741807
N	-0.540879	-1.228274	0.629127
O	-1.654554	-1.61477	0.26048
O	0.119243	-1.75174	1.522079
C	-0.400338	1.163563	0.8911
H	0.076693	0.993082	1.859646
H	-1.47969	1.258333	1.011517
H	0.003828	2.093275	0.49109
H	2.729192	0.0	0.0
