19

C	-0.349248	0.033962	-1.476049
C	0.0	0.0	0.0
Cl	0.280686	-1.428474	-2.25981
H	1.09169	0.0	0.0
N	-1.854344	0.138933	-1.761145
O	-2.390887	1.116712	-1.238136
O	-2.417016	-0.663631	-2.489452
C	0.330216	1.22988	-2.123534
H	1.386523	1.184556	-1.836359
H	0.230634	1.169329	-3.209235
H	-0.118412	2.158655	-1.77026
N	-0.525103	-1.20324	0.671024
O	-1.461999	-1.818865	0.145764
O	-0.023379	-1.497676	1.754327
C	-0.361302	1.196561	0.866403
H	0.02297	2.114294	0.420869
H	-1.435731	1.295258	1.027941
H	0.156335	1.057356	1.81748
H	2.66191	0.0	0.0
