19

C	-0.577242	-0.011234	-1.421762
C	0.0	0.0	0.0
Cl	-0.517216	1.643332	-2.117608
H	1.0913	0.0	0.0
N	0.302251	-0.84208	-2.374573
O	-0.203603	-1.843261	-2.878585
O	1.445073	-0.443989	-2.55012
C	-2.01049	-0.492073	-1.511502
H	-2.369104	-0.420315	-2.539003
H	-2.630421	0.137994	-0.870433
H	-2.07415	-1.529117	-1.189334
N	-0.344814	-1.256145	0.628908
O	-0.063091	-2.28326	-0.021833
O	-0.767138	-1.279154	1.80404
C	-0.397564	1.181545	0.854911
H	-1.478298	1.346094	0.904552
H	0.098678	2.075609	0.478271
H	-0.028293	0.993577	1.863069
H	2.472087	0.0	0.0
