19

C	-0.386148	0.010376	-1.460273
C	0.0	0.0	0.0
Cl	0.472282	-1.275848	-2.337301
H	1.091636	0.0	0.0
N	-1.897008	-0.166701	-1.695341
O	-2.294869	-0.810187	-2.655233
O	-2.612529	0.465672	-0.921535
C	-0.005386	1.332159	-2.104415
H	-0.605212	2.143298	-1.689534
H	1.053926	1.501379	-1.894955
H	-0.162864	1.273449	-3.183045
N	-0.477452	-1.198922	0.684068
O	-0.168785	-1.325503	1.874633
O	-1.11784	-2.047912	0.044956
C	-0.291323	1.23343	0.838959
H	0.230707	2.090319	0.40953
H	0.154738	1.055766	1.817722
H	-1.355794	1.447237	0.940783
H	2.550509	0.0	0.0
