16

C	-0.476686	-0.013292	-1.436613
C	0.0	0.0	0.0
F	0.127787	0.912344	-2.177156
H	1.095731	0.0	0.0
N	-0.234558	-1.378607	-2.070275
O	-1.188521	-2.143542	-2.123003
O	0.906495	-1.56983	-2.459194
N	-1.980955	0.211686	-1.575243
O	-2.675472	-0.035693	-0.596008
O	-2.364862	0.605322	-2.668591
N	-0.393251	-1.209926	0.689409
H	-1.296355	-1.12251	1.131572
H	0.321979	-1.438352	1.366863
C	-0.428893	1.261719	0.622005
N	-0.76126	2.265163	1.135301
Br	3.349	0.0	0.0
