16

C	-0.390428	0.045209	-1.470769
C	0.0	0.0	0.0
F	0.164683	-0.97096	-2.128636
H	1.095254	0.0	0.0
N	-1.900809	-0.068316	-1.639382
O	-2.53732	0.96058	-1.441571
O	-2.34674	-1.182609	-1.892251
N	-0.030642	1.318685	-2.213961
O	0.465448	2.234512	-1.573831
O	-0.273071	1.287271	-3.41483
N	-0.360694	-1.268725	0.615906
H	-1.24804	-1.636076	0.29579
H	0.374917	-1.936721	0.423228
C	-0.555361	1.11551	0.764536
N	-0.990802	1.990622	1.415786
Br	3.333626	0.0	0.0
