17
Coordinates from ORCA-job run
  C   -0.68996299134061     -0.24758924545119     -0.46945118989122
  C   0.51225796022778      0.12193516631240      0.42890613782555
  Cl  -0.50485070906712      0.55572613762190     -2.07669091229622
  H   0.29806370198214     -0.37245035184828      1.38547649117790
  C   -0.70180381996405     -1.69240461426740     -0.70144420452289
  N   -0.71757817182927     -2.85991671198539     -0.83337954137766
  C   -2.01558446799910      0.19493559696618      0.13536042170957
  H   -2.84108707822859     -0.05759169985309     -0.53100880748634
  H   -1.98226478504014      1.26915040938853      0.30474850677158
  H   -2.16328119208638     -0.31435253869590      1.09165550450715
  N   0.47811153923855      1.55791710741540      0.67856874151910
  H   1.04698743711712      1.77180813698674      1.48845890068159
  H   0.87805135799324      2.04967603214656     -0.11300656686568
  C   1.84362953572499     -0.40271111686600     -0.10191305776844
  H   1.83755715805576     -1.48682660526246     -0.23617237879113
  H   2.63583931305958     -0.15341324947251      0.60830900599589
  H   2.08691521215610      0.06310754686451     -1.05941705118875
