17
Coordinates from ORCA-job run
  C   -0.61763089364775     -0.68220558746915     -0.31828140925821
  C   0.73919507653553     -0.24924347974463      0.29239367937806
  Cl  -0.29857949225381     -1.77017802104301     -1.71819127202306
  H   1.31694366135873     -1.17503454173860      0.43140277870656
  C   -1.32871277617835     -1.47774838390236      0.68563042101172
  N   -1.87182594677324     -2.08818572238666      1.53012631519709
  C   -1.48335117138590      0.48277773162354     -0.77382279368379
  H   -2.45979334158324      0.12238340930012     -1.09952200780448
  H   -1.00810250603474      0.99606322557454     -1.60988328346405
  H   -1.60494787986966      1.17301711317603      0.06198698168248
  N   0.44382604263745      0.44080771951395      1.54422917875349
  H   1.24031063685535      0.99805895060942      1.82818772752357
  H   0.25024584425527     -0.22310060487181      2.28506648133939
  C   1.51643911648330      0.68479046554454     -0.62097484434984
  H   2.52756068618418      0.81852302531999     -0.22732514840122
  H   1.03660418833523      1.66455471339839     -0.65988520330709
  H   1.60281875508165      0.28471998709570     -1.63113760130060
