17
Coordinates from ORCA-job run
  C   -0.64081004362054     -0.65835156066865     -0.32226336824440
  C   0.73797995858089     -0.27427414023684      0.27177520898696
  Cl  -0.37634317795264     -1.71902195469174     -1.75444767709870
  H   1.29467690776368     -1.21738378040409      0.37706059171387
  C   -1.35145822325138     -1.46152641213758      0.67585197502068
  N   -1.89231747684640     -2.08010524435604      1.51590451319078
  C   -1.48601801922370      0.53807742704836     -0.73213004258462
  H   -1.01482680101967      1.06013519471978     -1.56508690675707
  H   -2.47726408676319      0.20945190624684     -1.04653700606409
  H   -1.57405584003882      1.21073074773852      0.12204959424938
  N   0.48377222055203      0.39210020231906      1.54516732678871
  H   0.28811211287902     -0.28440556756898      2.27375536890333
  H   1.29826733580868      0.92394884490251      1.82591715933834
  C   1.52139899949660      0.66161635273158     -0.63442272605111
  H   1.58116368064468      0.28206432532778     -1.65439960653021
  H   1.06468199422848      1.65320237647616     -0.64340165540674
  H   2.54204045876228      0.76274128255333     -0.25579274945509
