17
Coordinates from ORCA-job run
  C   -0.60711383217050     -0.64890853193123     -0.30247902957525
  C   0.80827334166504     -0.31389359887681      0.26421757514314
  Cl  -0.41930600788715     -1.68195051043982     -1.76748767117326
  H   1.32984444189650     -1.27472661517026      0.33328983166358
  C   -1.31678598613755     -1.44887715246538      0.69777455328507
  N   -1.85954419481589     -2.05586122334720      1.54523935788154
  C   -1.43645757179029      0.57301566561706     -0.67491789897516
  H   -0.95605895965935      1.11861475032882     -1.48682608625833
  H   -1.54613985059166      1.23044998509492      0.19100878665872
  H   -2.43074319675142      0.26761289741222     -1.00252355535844
  N   0.78197134197974      0.25777221819638      1.59644874115890
  H   0.33776445883998      1.16708741730064      1.60703131303902
  H   0.32050296522235     -0.34683738273347      2.26470299672621
  C   1.59255481443442      0.61118520751860     -0.65413331777028
  H   1.60621049565852      0.25272923391163     -1.68361632818040
  H   2.61759327552651      0.67274007476073     -0.28752621209845
  H   1.17543446458075      1.62184756482316     -0.64020305616662
