17
Coordinates from ORCA-job run
  C   -0.70944122104774     -0.53804397989581     -0.09520980071694
  C   0.81761192562904     -0.29450458076646      0.07034661075968
  Cl  -0.99442206528445     -2.32061156967652     -0.03807028291847
  H   1.28717183497956     -0.86191974455412     -0.74227807642481
  C   -1.41523386081987      0.05862827948137      1.03808127953215
  N   -1.96480102258935      0.59466013250697      1.92798049077879
  C   -1.27208336429765     -0.02077259608231     -1.41307217754936
  H   -2.30457111978038     -0.34801110723137     -1.53950229161062
  H   -1.24843481547579      1.06950617950773     -1.43555252263022
  H   -0.67588842712768     -0.41416537338582     -2.23958275664534
  N   1.37761790308608     -0.77136434770835      1.31790166171974
  H   1.00532635448349     -0.24275601310792      2.09938425692312
  H   1.16481371487883     -1.74990354325553      1.46494948268039
  C   1.15730116180571      1.18334575561325     -0.08368580446013
  H   0.93316932393944      1.56183593728644     -1.08108402988803
  H   2.22536162739848      1.30491637360136      0.09988999391321
  H   0.61650205022226      1.79016019766709      0.64950396653681
