17
Coordinates from ORCA-job run
  C   -0.71815737104648     -0.52711689344870     -0.11006163921030
  C   0.81047222320236     -0.30459550570890      0.07473622737647
  Cl  -1.02640014026314     -2.30615739274033     -0.07450222834553
  H   1.28078415364428     -0.86964045690652     -0.73916809350795
  C   -1.42611744029632      0.06598565863283      1.02377844599881
  N   -1.94261369719402      0.59409683208324      1.93790815079493
  C   -1.25953149843156      0.01073834800533     -1.42855081693029
  H   -1.22060655304798      1.10071237421776     -1.43964976812810
  H   -0.66046745134699     -0.38233502682607     -2.25305177235775
  H   -2.29494321712906     -0.30133723288186     -1.56885560180976
  N   1.35130147093580     -0.80240761279467      1.32234949150764
  H   1.12839591041673     -1.78087092861111      1.45401996210945
  H   0.97459819776921     -0.28071912888073      2.10636326237355
  C   1.17094781805777      1.17016426264226     -0.06008181953688
  H   0.96089081271508      1.56203911625510     -1.05546848971335
  H   2.23881875113594      1.27529162188379      0.13433724685397
  H   0.63162803087837      1.77615196507857      0.67489744252510
