15

C	-0.131676	0.054489	-1.539343
C	0.0	0.0	0.0
Cl	0.048973	-1.685985	-2.197697
H	1.103521	0.0	0.0
C	-1.445705	0.485709	-2.030904
N	-2.49038	0.820796	-2.451087
N	0.908734	0.911352	-1.954216
H	1.020877	0.93845	-2.958345
H	1.779517	0.642449	-1.443273
C	-0.644492	-1.131374	0.632229
N	-1.132229	-2.032689	1.207474
N	-0.538332	1.2672	0.538505
H	-0.445626	1.221841	1.548952
H	0.117621	1.97891	0.229844
F	2.639579	0.0	0.0
