15

C	-0.111497	-0.096964	-1.52787
C	0.0	0.0	0.0
Cl	-1.771935	-0.619084	-2.101424
H	1.097385	0.0	0.0
C	0.071875	1.248784	-2.110066
N	0.290331	2.258519	-2.670907
N	0.874444	-1.045393	-1.939384
H	1.031321	-0.998621	-2.938469
H	1.740165	-0.808218	-1.412123
C	-0.474614	-1.221725	0.636685
N	-0.880499	-2.148733	1.236093
N	-0.552256	1.219307	0.544966
H	-1.462078	1.066424	0.959354
H	0.078403	1.572855	1.251324
F	2.606809	0.0	0.0
