15

C	-0.086389	-0.045172	-1.534232
C	0.0	0.0	0.0
Cl	-1.756204	-0.440571	-2.128899
H	1.09648	0.0	0.0
C	0.236455	1.29297	-2.054531
N	0.519572	2.351717	-2.47603
N	0.861068	-0.994429	-2.082909
H	0.556342	-1.925439	-1.813911
H	1.730384	-0.794683	-1.556431
C	-0.460585	-1.26185	0.566479
N	-0.862048	-2.254189	1.05543
N	-0.564786	1.185707	0.599421
H	0.062923	1.525528	1.313055
H	-1.473002	1.012294	1.004668
F	2.585582	0.0	0.0
