15

C	-0.120993	-0.104915	-1.526793
C	0.0	0.0	0.0
Cl	-1.783241	-0.64046	-2.085427
H	1.097354	0.0	0.0
C	0.047436	1.238454	-2.117298
N	0.259603	2.251126	-2.675957
N	0.868172	-1.04973	-1.940976
H	1.019066	-1.007277	-2.94144
H	1.735727	-0.809986	-1.417283
C	-0.4701	-1.219453	0.645125
N	-0.868676	-2.145535	1.250754
N	-0.549679	1.221745	0.543201
H	0.086999	1.578781	1.242662
H	-1.457357	1.071341	0.963203
F	2.606888	0.0	0.0
