15

C	-0.549774	-0.004521	-1.43116
C	0.0	0.0	0.0
Cl	0.397859	1.269834	-2.368436
H	1.097403	0.0	0.0
C	-0.28651	-1.26887	-2.124887
N	-0.134673	-2.270876	-2.718317
N	-1.94489	0.272001	-1.429567
H	-2.066947	1.096925	-0.848355
H	-2.283739	0.452154	-2.366437
C	-0.512231	-1.153011	0.720159
N	-0.894118	-2.071221	1.349707
N	-0.418617	1.264765	0.640641
H	0.450841	1.765107	0.809042
H	-0.838098	1.075517	1.545115
F	2.52756	0.0	0.0
