15

C	0.0	0.0	0.0
C	-0.491976	-0.053632	-1.445459
Cl	1.852044	0.0	0.0
H	-1.591039	-0.07317	-1.373784
H	-0.129567	-0.960232	-1.936611
N	-0.481665	1.177286	0.604177
H	-0.147345	2.022265	0.161572
H	-0.328875	1.202711	1.600966
C	-0.480647	-1.216786	0.75921
H	-1.574958	-1.196495	0.736134
H	-0.098421	-2.133116	0.306623
H	-0.13227	-1.174123	1.794543
C	-0.072653	1.111141	-2.220709
N	0.249329	2.053774	-2.841829
Cl	-3.851531	0.0	0.0
