15

C	0.0	0.0	0.0
C	-0.468718	0.204903	-1.453354
Cl	1.800759	0.0	0.0
H	-0.08369	-0.587106	-2.101583
H	-1.566082	0.148777	-1.422292
N	-0.467415	1.007635	0.911983
H	-1.485983	0.912482	0.944399
H	-0.252152	1.931217	0.549366
C	-0.456378	-1.363711	0.489934
H	-0.069173	-2.153366	-0.157851
H	-0.085217	-1.515704	1.504028
H	-1.548837	-1.384521	0.488987
C	-0.067441	1.500636	-1.989622
N	0.238046	2.552653	-2.412187
Cl	-3.674003	0.0	0.0
