15

C	0.0	0.0	0.0
C	-0.497403	-0.265903	-1.421143
Cl	1.845149	0.0	0.0
H	-0.191648	0.550609	-2.082419
H	-1.596539	-0.261298	-1.339965
N	-0.484061	1.269764	0.38869
H	-0.074134	2.024266	-0.143437
H	-0.382714	1.435866	1.379184
C	-0.47894	-1.064982	0.961549
H	-0.112455	-2.048665	0.665858
H	-0.116975	-0.84864	1.97024
H	-1.573539	-1.037833	0.943859
C	-0.024629	-1.527805	-1.979242
N	0.353939	-2.541342	-2.43448
Cl	-3.851161	0.0	0.0
