15

C	0.0	0.0	0.0
C	-0.486099	0.35986	-1.406362
Cl	1.797536	0.0	0.0
H	-1.584313	0.336579	-1.370713
H	-0.143745	-0.39563	-2.118261
N	-0.473116	1.013229	0.907504
H	-1.494037	1.010132	0.826718
H	-0.244514	0.738362	1.857161
C	-0.439713	-1.419157	0.343566
H	-0.078504	-1.682411	1.341174
H	-0.042337	-2.145305	-0.370511
H	-1.532122	-1.439926	0.334277
C	-0.034502	1.672566	-1.858432
N	0.304288	2.716785	-2.273518
Cl	-3.6771	0.0	0.0
