15

C	0.0	0.0	0.0
C	-0.492825	-0.063405	-1.444915
Cl	1.853157	0.0	0.0
H	-0.127071	-0.970726	-1.931432
H	-1.591475	-0.088578	-1.369877
N	-0.478755	1.182715	0.596087
H	-0.325195	1.213046	1.592615
H	-0.138296	2.022822	0.149098
C	-0.482384	-1.210581	0.768028
H	-0.105179	-2.13096	0.320064
H	-1.576595	-1.187339	0.747799
H	-0.131065	-1.162454	1.802173
C	-0.08323	1.100238	-2.225902
N	0.236257	2.039478	-2.853019
Cl	-3.845634	0.0	0.0
