15

C	0.0	0.0	0.0
C	-0.468966	0.150664	-1.459957
Cl	1.800826	0.0	0.0
H	-1.566197	0.094656	-1.426007
H	-0.083098	-0.66422	-2.078773
N	-0.468643	1.039918	0.874143
H	-1.487001	0.944908	0.90852
H	-0.252968	1.949742	0.478447
C	-0.454604	-1.345829	0.539418
H	-0.08636	-1.458477	1.559623
H	-1.546764	-1.36958	0.536044
H	-0.062991	-2.157833	-0.077341
C	-0.067479	1.424921	-2.04567
N	0.247831	2.45073	-2.522012
Cl	-3.672099	0.0	0.0
