15

C	0.0	0.0	0.0
C	-0.233546	-0.138133	-1.536039
Cl	1.80204	0.0	0.0
H	0.078035	0.821804	-1.96484
H	0.47321	-0.892467	-1.895749
N	-0.521369	1.252915	0.458117
H	-1.540166	1.18226	0.324277
H	-0.36734	1.317035	1.462308
C	-0.462399	-1.222829	0.768793
H	-0.13791	-1.145187	1.811915
H	-0.050821	-2.143947	0.350548
H	-1.555349	-1.24206	0.731427
C	-1.506588	-0.516043	-2.157587
N	-2.323025	-0.865763	-2.927154
Cl	-3.647643	0.0	0.0
