16

C	-0.562058	0.028507	-1.432477
C	0.0	0.0	0.0
Br	0.145942	1.515836	-2.46478
H	1.096541	0.0	0.0
N	-0.136053	-1.261501	-2.142188
O	1.062079	-1.467246	-2.188474
O	-1.030008	-1.970357	-2.591014
C	-2.018284	0.103524	-1.432811
N	-3.190863	0.171633	-1.409247
N	-0.465018	-1.241027	0.572561
H	-1.331434	-1.097778	1.078345
H	0.245009	-1.63048	1.177912
N	-0.543104	1.162044	0.712336
H	-0.183475	1.091959	1.660522
H	-0.115564	1.999471	0.325937
Cl	3.411531	0.0	0.0
