16

C	-0.473855	-0.03965	-1.4569
C	0.0	0.0	0.0
Br	0.147245	-1.624986	-2.382973
H	1.095943	0.0	0.0
N	-2.015838	-0.049671	-1.551643
O	-2.51025	0.074049	-2.664621
O	-2.641259	-0.183337	-0.503721
C	-0.046443	1.136691	-2.207641
N	0.257415	2.078818	-2.83962
N	-0.374685	-1.211266	0.700431
H	0.360605	-1.442572	1.355772
H	-1.257846	-1.11147	1.180428
N	-0.424719	1.287909	0.533598
H	-1.26314	1.191986	1.092918
H	0.325127	1.667116	1.100801
Cl	3.302841	0.0	0.0
