16

C	-0.567092	0.022043	-1.430553
C	0.0	0.0	0.0
Br	0.135552	1.506248	-2.471829
H	1.09665	0.0	0.0
N	-0.153083	-1.274117	-2.135343
O	1.044668	-1.463907	-2.242392
O	-1.057969	-2.010943	-2.511432
C	-2.022954	0.103655	-1.420498
N	-3.195602	0.180749	-1.38756
N	-0.460627	-1.238011	0.582522
H	0.261367	-1.630947	1.170822
H	-1.313291	-1.088771	1.107984
N	-0.541714	1.163395	0.71216
H	-0.132646	2.001456	0.308139
H	-0.158641	1.106162	1.651193
Cl	3.386858	0.0	0.0
