16

C	-0.536843	-0.022926	-1.443769
C	0.0	0.0	0.0
Br	-2.484569	0.018961	-1.474948
H	1.098471	0.0	0.0
N	0.006478	1.205967	-2.186068
O	-0.677013	2.215154	-2.224311
O	1.133761	1.053596	-2.637782
C	-0.119406	-1.214768	-2.169614
N	0.210647	-2.201102	-2.717075
N	-0.498998	-1.201516	0.686644
H	-0.086379	-1.157493	1.613772
H	-0.070719	-2.016647	0.251613
N	-0.428194	1.210831	0.642294
H	0.300774	1.538819	1.260376
H	-1.290881	1.06337	1.149635
Cl	3.321857	0.0	0.0
