16

C	-0.590135	0.031576	-1.414742
C	0.0	0.0	0.0
Br	0.161175	1.466548	-2.49682
H	1.096219	0.0	0.0
N	-0.254989	-1.277336	-2.133142
O	0.885995	-1.681636	-2.008418
O	-1.154947	-1.789588	-2.792592
C	-2.040659	0.178942	-1.377599
N	-3.206006	0.320339	-1.323072
N	-0.492925	-1.224897	0.594813
H	0.258903	-1.692488	1.082165
H	-1.256408	-1.017105	1.226363
N	-0.51281	1.170702	0.72528
H	-0.026733	1.163908	1.617138
H	-0.180652	2.00741	0.254082
Cl	3.383448	0.0	0.0
