16

C	-0.438008	0.016945	-1.474428
C	0.0	0.0	0.0
Br	-2.33998	0.416032	-1.66866
H	1.102783	0.0	0.0
N	0.301143	1.102266	-2.270937
O	0.762876	2.042471	-1.648721
O	0.327941	0.937573	-3.487014
C	-0.189788	-1.252573	-2.141895
N	-0.007142	-2.314651	-2.612543
N	-0.53053	-1.221672	0.620853
H	-0.128451	-2.030027	0.154815
H	-0.126543	-1.234707	1.55264
N	-0.491794	1.163549	0.692366
H	0.274024	1.62031	1.167639
H	-1.213378	0.889183	1.34585
Cl	3.330798	0.0	0.0
