13
Coordinates from ORCA-job run
  C   0.69013997285340     -0.48553902472461      0.70888703865171
  C   -0.02810116055944      0.21958680175896     -0.44234809559750
  Br  1.74941495116596     -1.98171923468542      0.05526994269718
  H   0.68132625960872      0.56851957934777     -1.19282204434615
  H   -0.05379616661997     -0.91148399776727      1.38654738915665
  C   1.54578798455884      0.45397155740797      1.41611414449641
  N   2.24807797718941      1.20204238158724      1.98763458247986
  N   -0.80597024046177      1.29057183126628      0.07034860576147
  H   -1.14312461382678      1.90311489600070     -0.66027473443559
  H   -1.58213581782876      0.95196065462023      0.62574453104765
  N   -0.87881016678439     -0.82883950931174     -1.15102050170597
  O   -0.70381792231334     -0.99048909273544     -2.35387332905676
  O   -1.71799105698188     -1.39169684276467     -0.45020752914896
