13
Coordinates from ORCA-job run
  C   0.99917436179651      0.23264682864899      0.55788772707532
  C   -0.19302051738202      0.43392297821570     -0.37478847798517
  Br  1.09390394830531      1.74642242807882      1.79040147001559
  H   -0.04112552353503      1.37132104630157     -0.93268250166451
  H   1.92569078715427      0.25650742584081     -0.01290434646401
  C   0.90413513614719     -1.01553273786556      1.29978844954277
  N   0.86157519490555     -2.03201284744616      1.88653443467750
  N   -1.43470818284970      0.28913166969833      0.31815337435866
  H   -1.53779567945028      1.02175240285381      1.00809253198993
  H   -2.20815151900421      0.32341088062616     -0.33261045802913
  N   -0.13765540985756     -0.63491751742507     -1.45613442672265
  O   0.97024034356897     -1.06254519025727     -1.76508365878029
  O   -1.20126293979901     -0.93010736727014     -1.98565411801403
