13
Coordinates from ORCA-job run
  C   0.62227256866055     -0.30265151138224      0.88278826139228
  C   -0.06955610450434     -0.06383987706057     -0.45543453766193
  Br  1.66495039164875     -1.94217748731919      0.81967889048864
  H   0.63513926212309     -0.20250170048833     -1.28338719712164
  H   -0.13790173370279     -0.43345144977410      1.65387630703272
  C   1.49064220214091      0.82119695131360      1.19627124792031
  N   2.16313249065575      1.76112755211405      1.40885512165234
  N   -0.79257382998538      1.18258464121727     -0.42670714117774
  H   -0.15873604629857      1.95572365782194     -0.26071654001060
  H   -1.24217117050141      1.33284988605290     -1.32327919420530
  N   -1.12176794149207     -1.12885354631365     -0.67123390111238
  O   -1.41770435934142     -1.32508274176366     -1.84723731092006
  O   -1.63572572940307     -1.65492437441800      0.30752599372338
