13
Coordinates from ORCA-job run
  C   0.54976743812228     -0.34050224102957      0.82930762369427
  C   -0.03367157279945      0.00032641787191     -0.55209070840928
  Br  1.53584365048429     -2.01780025000848      0.78945477840745
  H   0.74751057129450     -0.00892190913769     -1.31199529777496
  H   -0.27197962996679     -0.47888755242752      1.53599931703270
  C   1.41788698313013      0.74418899743665      1.25932309332532
  N   2.09909383264314      1.65155585821022      1.56508300797483
  N   -0.77637184633445      1.21871286423586     -0.60760943891857
  H   -0.17207439433863      2.02502054348908     -0.68042134673341
  H   -1.40945437502635      1.31776508033165      0.17555848413026
  N   -0.98598941096585     -1.10942106850285     -0.91592420935621
  O   -0.79578011859677     -1.70842251342742     -1.96620604435609
  O   -1.90378112764603     -1.29261422704180     -0.11947925901631
