13
Coordinates from ORCA-job run
  C   0.65077763157710      0.18444371636713      0.82084232169338
  C   -0.22739016283550      0.34976119235219     -0.44472619011321
  Br  -0.24986614321154     -0.84753118788233      2.20755832160665
  H   0.36790119549723      0.90707492437890     -1.17193826831426
  H   0.78108669243282      1.18366264124879      1.24427446101632
  C   1.96240623554734     -0.38643912390311      0.55154566520693
  N   3.04077782921780     -0.80688482347495      0.34793831456592
  N   -1.49408378442411      0.96768576657852     -0.27610146558226
  H   -1.40889706872301      1.96338363402745     -0.12930612733143
  H   -2.03683080451875      0.53715674791385      0.46026946107358
  N   -0.42401394430705     -1.01502555577340     -1.06202080565953
  O   0.50086446099315     -1.43148865329969     -1.75493527277431
  O   -1.46373213724545     -1.60379927853336     -0.79240041538779
