13
Coordinates from ORCA-job run
  C   0.72337110099960      0.15680026996304      0.85727602734871
  C   -0.17351999563063      0.41508352392005     -0.35853356902087
  Br  -0.17019432688676     -0.99239673128436      2.15881500566714
  H   0.42348877577231      0.93075767224406     -1.11565061743405
  H   0.84751278563110      1.12011146748771      1.35570771492688
  C   2.03188092242852     -0.39004718399533      0.53280291813065
  N   3.11389589955275     -0.78279254084320      0.29779789303512
  N   -1.30191539376743      1.18401329424823      0.00124637983796
  H   -1.82376504653196      1.47001825240491     -0.81634000816859
  H   -1.91943869176668      0.66064104566485      0.60947229078064
  N   -0.50814931072599     -0.93638898125365     -1.01531257186950
  O   -1.67497684884343     -1.30972513164164     -0.97100338618843
  O   0.43181012976860     -1.52607495691468     -1.53727807704558
