13
Coordinates from ORCA-job run
  C   0.74970905200768     -0.36816142823575      0.74894600251937
  C   -0.07801697760945      0.07931352918059     -0.45153635177119
  Br  2.26027319835526     -1.44277945626304      0.16357477671523
  H   0.57120641442205      0.47786480247174     -1.23960922577069
  H   0.13170510550090     -1.00090423829341      1.38705995456623
  C   1.22713549711097      0.79567470399172      1.47896298646237
  N   1.57156289433141      1.76866706222673      2.04070390030362
  N   -1.16267777274203      0.92520158851653     -0.02093146386594
  H   -1.70069880510840      1.22100439877735     -0.82820609656427
  H   -0.80429310090781      1.75487708144963      0.43767997985056
  N   -0.74036060128729     -1.12664544607533     -1.07981338767401
  O   -1.04086569176659     -0.98735449326442     -2.26275464745134
  O   -0.98367921230671     -2.09775810448236     -0.37507642731992
