13
Coordinates from ORCA-job run
  C   0.71917490176927      0.15159420442174      0.85987679290878
  C   -0.18208861703897      0.41897133991484     -0.35069519812451
  Br  -0.15153207300977     -1.04459797853614      2.13405369504759
  H   0.40580849347852      0.96210542149608     -1.09567514627649
  H   0.82381639169791      1.10562109942111      1.38013712300579
  C   2.03913652032830     -0.36031442197559      0.52452358342466
  N   3.13410962170086     -0.71732290721964      0.29249482213836
  N   -1.32569603025393      1.15735054699610      0.02476323433504
  H   -1.93266032073840      0.60803821663322      0.62074801860357
  H   -1.85334621886168      1.45026445376648     -0.78664451694576
  N   -0.48950103553777     -0.92414743677881     -1.03678875215074
  O   0.46427741214893     -1.48820509380217     -1.56201272506112
  O   -1.64949904568320     -1.31935744433728     -1.00578093090515
