13
Coordinates from ORCA-job run
  C   0.62547352489455     -0.33678304256319      0.84198255808134
  C   -0.00933018290764      0.06149285792228     -0.49107622713607
  Br  1.37876628849241     -2.12862352602273      0.74644985920322
  H   0.71601286598607      0.00859747959926     -1.30304744101559
  H   -0.15080067304963     -0.37286463776442      1.61025077351814
  C   1.66145896360872      0.61600454198191      1.20825106595485
  N   2.50794396992129      1.37283093293199      1.50854564555250
  N   -0.56595059326990      1.36245341448198     -0.37997868050729
  H   -1.36456167667226      1.37218509587980      0.24269356159837
  H   -0.82197331599753      1.74762432671535     -1.27917550244190
  N   -1.05907004943929     -0.99392614850254     -0.82173498816522
  O   -0.96699498416523     -1.57552015411173     -1.89728553271877
  O   -1.95097413740158     -1.13347114054797      0.01312490807641
