13
Coordinates from ORCA-job run
  C   1.01964297375540      0.28978946959623      0.54261300037909
  C   -0.25000364812371      0.55374547671316     -0.27458749753037
  Br  1.27136900182656      1.68386343262703      1.87025082775470
  H   -0.18577934852621      1.55072635216873     -0.71420612219135
  H   1.88737873888980      0.33013637079550     -0.11599935627087
  C   0.94357029781852     -1.01446308288255      1.18672899302867
  N   0.83679927202472     -2.07688241440966      1.67745267397881
  N   -1.42876285777734      0.39292660816732      0.46996803452020
  H   -2.24401117806359      0.70160998118567     -0.04019563878199
  H   -1.56585952904549     -0.56473374995377      0.76883632332573
  N   -0.12942105560600     -0.39478549966851     -1.49939129454057
  O   0.82259961990894     -0.18486270612165     -2.24533840025738
  O   -0.97952228708160     -1.26807023821750     -1.62713154341466
