13
Coordinates from ORCA-job run
  C   0.85096904519378     -0.43604251477097      0.54687325115435
  C   -0.12434791429558      0.28117403992860     -0.38755923925012
  Br  2.10860324369329     -1.52559060569235     -0.46220445304789
  H   0.40760910625142      0.90327253839181     -1.10745523867401
  H   0.29281451798891     -1.12592741719447      1.18455010181935
  C   1.57468173525089      0.53316627061585      1.35452066176445
  N   2.17546099862717      1.30682234295469      2.00264751912998
  N   -1.03881390873488      1.04734664946797      0.38102549700564
  H   -1.57495078863327      1.68887197275510     -0.18772893287783
  H   -1.66032396241256      0.45460256782792      0.91757965452241
  N   -0.81908550909011     -0.79058391273951     -1.22040363354867
  O   -1.43850916750717     -1.63915886017908     -0.58151391639462
  O   -0.75410739633195     -0.69795307136555     -2.44133127160306
