13
Coordinates from ORCA-job run
  C   0.64183081309377      0.14675206316088      0.83597786788939
  C   -0.21971564735933      0.36884666864689     -0.43230320375025
  Br  -0.28093337864194     -0.93614212999414      2.16822966425470
  H   0.38732564039789      0.95196018553882     -1.12889662897274
  H   0.77173736296583      1.12695766116682      1.30183500989245
  C   1.95355608752464     -0.42011202830233      0.55886825562361
  N   3.02893311108347     -0.84322178063074      0.34520932188219
  N   -1.48499776937571      0.98678852931037     -0.25340139434134
  H   -2.03748663290425      0.53222534184348      0.46096062786463
  H   -1.39628389600032      1.97586985142333     -0.06884917330165
  N   -0.41620973680773     -0.96829146885261     -1.10755724352987
  O   0.51368000425558     -1.36031527978441     -1.80799568383783
  O   -1.46143595823191     -1.56231761352641     -0.87307741967328
