13
Coordinates from ORCA-job run
  C   0.72995813253102      0.28307779130885      0.72250641265268
  C   -0.26238366906677      0.28936359375876     -0.46735747590349
  Br  -0.04861346889509     -0.51321046852149      2.32216249227721
  H   0.26871685033813      0.71934176409267     -1.31989212422088
  H   0.91363070215668      1.32880474194939      0.98218927765740
  C   2.00100222226201     -0.35773027423497      0.41859197133846
  N   3.03895405333109     -0.84869599923119      0.16814282446100
  N   -1.49806796218651      0.96085017930092     -0.27390090482125
  H   -1.38397181545537      1.96446476605218     -0.28069266719509
  H   -1.97395237167109      0.65551929502568      0.56429402242790
  N   -0.53781335093236     -1.14348303463313     -0.85868089022005
  O   0.30709884916944     -1.67994974166150     -1.57088553103038
  O   -1.55355817158125     -1.65835261320615     -0.40747740742347
