13
Coordinates from ORCA-job run
  C   1.04441637879627      0.26467158955982      0.50671862619776
  C   -0.22328037206736      0.54852660105024     -0.30683299028018
  Br  1.39825647487124      1.72484343295266      1.73763958883347
  H   -0.11147896251309      1.50968121412833     -0.81181333698706
  H   1.90152079461514      0.21340852738683     -0.16489057482793
  C   0.90594098282457     -0.98812918106742      1.23636730824618
  N   0.74606252288262     -2.00850962152424      1.79715285555834
  N   -1.39495972035862      0.50349654807219      0.46368425907131
  H   -2.20098837997909      0.82791568880992     -0.05122052542880
  H   -1.58110255560811     -0.42282506050885      0.82738848218088
  N   -0.17834792299600     -0.48266654976229     -1.46890513405006
  O   0.76913899438256     -0.37461813606914     -2.24162579442767
  O   -1.07617823485019     -1.31479505302804     -1.52466276408622
