13
Coordinates from ORCA-job run
  C   0.72947356028874     -0.38244718617371      0.73049454209704
  C   -0.04548836608623      0.20927420136487     -0.44769633311332
  Br  1.98928707841521     -1.73639050612426      0.12461271345874
  H   0.63110955637403      0.63730533713097     -1.18759448539138
  H   0.03055264885278     -0.89291463524662      1.39769786216936
  C   1.43807367275638      0.66827071600495      1.44411096074417
  N   2.02046137215005      1.50038775293687      2.03390040983606
  N   -0.96686511557611      1.17732580906394      0.03036284954503
  H   -1.36231101640641      1.73200816089800     -0.71703295224036
  H   -1.70598862707545      0.74905051842747      0.57433504099489
  N   -0.73608211377926     -0.94939799680155     -1.15897540927669
  O   -1.51112354914336     -1.60848949111610     -0.46836068877753
  O   -0.51209910077038     -1.10198268036480     -2.35485451004600
