13
Coordinates from ORCA-job run
  C   0.93607081081077     -0.39273404235122      0.47692502875519
  C   -0.18540907081220      0.16504201306376     -0.39341925197463
  Br  2.39956043452418     -1.02810892979514     -0.63370640109671
  H   0.21908041781461      0.83816843406897     -1.15808113355368
  H   0.55701313979965     -1.25093941472407      1.03311689317740
  C   1.41726225674834      0.63946240632951      1.38164903877745
  N   1.75448713690921      1.50408018336539      2.10252725326037
  N   -1.24300080799946      0.69040690343537      0.43299974597613
  H   -1.97723708181228      1.06607082987424     -0.15723812814078
  H   -0.89531185703677      1.44210769873168      1.01709254448032
  N   -0.81752544694197     -0.96313554959149     -1.17808429781244
  O   -1.38763527091573     -0.61349082395367     -2.20845744852636
  O   -0.77735466108834     -2.09592970845333     -0.71532384332229
