13
Coordinates from ORCA-job run
  C   0.60131181245326     -0.33723163426380      0.79349904189982
  C   -0.05123755183158      0.02556125566443     -0.55069621945379
  Br  1.71694759510775     -1.92379946168593      0.63621750756267
  H   0.70310153519509      0.11853234711802     -1.33180934334063
  H   -0.18444763046545     -0.57838273746020      1.51353628594316
  C   1.39239456494769      0.79085980982013      1.25905621047953
  N   2.00802177905169      1.73294659281839      1.59691311729645
  N   -0.88946895584739      1.18130062711988     -0.51998390390402
  H   -0.35355225968266      2.03607449600728     -0.56982149920138
  H   -1.49997566558501      1.19111536536155      0.28694249349082
  N   -0.92389912495469     -1.13753078182319     -0.94636828688209
  O   -1.79958403677447     -1.43286246657599     -0.13639295196752
  O   -0.71961206161425     -1.66658341210059     -2.03109245192304
