13
Coordinates from ORCA-job run
  C   0.99300162909742     -0.23272550695440      0.46232730815788
  C   -0.21408632683046      0.17932371390623     -0.37403393963356
  Br  2.58482131919121     -0.32236238296693     -0.64977853530039
  H   0.02930543365056      1.04375352592821     -1.00235176250432
  H   0.82035008693932     -1.23351127400096      0.86013417763130
  C   1.19761264453741      0.72360322865128      1.53886486367469
  N   1.30976812529069      1.50823293063760      2.40646685276267
  N   -1.38174807080812      0.29869200116766      0.46194259110043
  H   -1.23397205628603      0.99799852957932      1.18035419448106
  H   -2.17299746890277      0.59009634504283     -0.10153235424768
  N   -0.53923551113788     -0.92338228575944     -1.35731135055778
  O   -1.14331359432308     -0.55381109592854     -2.36109120536406
  O   -0.24850621041824     -2.07590772930285     -1.06399084020028
