13
Coordinates from ORCA-job run
  C   0.71780305083071      0.11580402628861      0.86718711907826
  C   -0.16528205221517      0.43029748365160     -0.34540523477739
  Br  -0.20428788606458     -1.06242374436562      2.12190306163708
  H   0.44542559221789      0.96461623857600     -1.07827328070571
  H   0.85436666962236      1.05919214371985      1.39931143372207
  C   2.01979481952037     -0.44130719992442      0.53350782435445
  N   3.10161835486918     -0.83816277985476      0.30462236124447
  N   -1.28630671414437      1.20135540360452      0.03252470723200
  H   -1.79390455206022      1.52816483278168     -0.77868855401688
  H   -1.91870019386971      0.66355029927577      0.61215271908187
  N   -0.51206755819824     -0.89190137820196     -1.05312452990019
  O   -1.68312301802369     -1.25345908912959     -1.02715489928915
  O   0.42466348751544     -1.47472623642164     -1.58856272766092
