13
Coordinates from ORCA-job run
  C   0.64148326281589      0.13972549505340      0.83519949833042
  C   -0.21628326548751      0.36891873675375     -0.43415657341227
  Br  -0.29348515198564     -0.93571121138919      2.16495775592010
  H   0.39773217534824      0.94364114370991     -1.13166973076847
  H   0.77921941979663      1.11857770031056      1.30163973963792
  C   1.94967060418545     -0.43692033548654      0.56111082156257
  N   3.02978356640146     -0.85413428378873      0.36010826403642
  N   -1.47469389774572      1.00135803176085     -0.25798545599242
  H   -1.37497816988417      1.98963890466032     -0.07474701078704
  H   -2.03348057691146      0.55419904969207      0.45615910349359
  N   -0.42644508104972     -0.96799330282431     -1.10621385206989
  O   -1.48241517203409     -1.54589444846943     -0.88011779207052
  O   0.50489228655060     -1.37640547998266     -1.79528476788043
