13
Coordinates from ORCA-job run
  C   0.67048474543674      0.16751620573828      0.80904321808201
  C   -0.22631459738799      0.35566453781500     -0.44009645377572
  Br  -0.23159491727641     -0.83654611538012      2.21514202727305
  H   0.36969465083483      0.89716016752879     -1.17851279511474
  H   0.83674292766889      1.16326770437414      1.22800818382468
  C   1.95994462923232     -0.44079095251362      0.51553925071311
  N   3.01888967317208     -0.89791396016188      0.29018512325791
  N   -1.47294781590457      1.00634791493716     -0.24814850919858
  H   -2.00960011178667      0.59658629863505      0.50429248940375
  H   -1.36046641693562      2.00108799325531     -0.11425719703706
  N   -0.46967355984616     -1.00358157774737     -1.05342613928693
  O   0.42808561677328     -1.44101890061242     -1.76878014190219
  O   -1.51624482398065     -1.56777931586828     -0.75898905623930
