18

C	0.0	0.0	0.0
C	-0.495808	0.198835	-1.439773
F	1.379115	0.0	0.0
H	-0.437672	1.275192	-1.644736
N	-0.272876	1.258154	0.883679
O	-0.270774	2.359277	0.344243
O	-0.392515	1.058859	2.089557
N	-0.492739	-1.155349	0.587578
H	-0.578304	-1.060098	1.589246
H	-1.36462	-1.428537	0.143592
N	-1.823112	-0.371369	-1.548726
H	-2.533053	0.053817	-0.946861
H	-2.178938	-0.300973	-2.491978
C	0.426083	-0.535104	-2.409575
H	0.473062	-1.59371	-2.148487
H	1.43426	-0.119105	-2.410418
H	0.017623	-0.447554	-3.42135
Br	-4.732541	0.0	0.0
