18

C	0.0	0.0	0.0
C	-0.527222	0.108472	-1.430052
F	1.387943	0.0	0.0
H	-0.600974	-0.943253	-1.761566
N	-0.308258	1.262484	0.816876
O	0.198436	2.298734	0.406552
O	-0.998074	1.14508	1.825404
N	-0.571139	-1.08499	0.654928
H	-0.357734	-1.968114	0.221126
H	-0.460197	-1.083775	1.656087
N	0.369507	0.896179	-2.263307
H	1.253431	0.417974	-2.381268
H	-0.061427	1.006802	-3.172824
C	-1.928541	0.700723	-1.449255
H	-1.878507	1.768257	-1.222546
H	-2.621598	0.224014	-0.752555
H	-2.361947	0.589316	-2.446657
Br	-5.375257	0.0	0.0
