18

C	0.0	0.0	0.0
C	-0.525385	-0.080581	-1.449144
Cl	1.800332	0.0	0.0
H	-1.628956	-0.047198	-1.267781
N	-0.486958	1.166915	0.690105
H	-1.514671	1.043634	0.682117
H	-0.263818	1.998536	0.147663
C	-0.446665	-1.221931	0.790807
H	-0.167744	-1.075952	1.83541
H	0.015684	-2.139155	0.419558
H	-1.538749	-1.267671	0.712917
C	-0.153718	-1.337158	-2.238703
H	-0.546158	-1.273088	-3.256734
H	-0.593525	-2.216099	-1.764904
H	0.930114	-1.467097	-2.296148
C	-0.1594	1.123674	-2.190505
N	0.112599	2.095855	-2.794864
H	-3.134225	0.0	0.0
