18

C	0.0	0.0	0.0
C	-0.251508	-0.01531	-1.559892
Cl	1.797957	0.0	0.0
H	0.454304	0.722454	-1.947849
N	-0.548723	1.230195	0.509114
H	-1.574475	1.092067	0.438676
H	-0.34183	1.276095	1.503586
C	-0.503422	-1.240951	0.712757
H	-1.598533	-1.225867	0.624526
H	-0.087328	-2.158933	0.295254
H	-0.232415	-1.179064	1.771229
C	-1.630896	0.363438	-2.093306
H	-2.440141	-0.210908	-1.635296
H	-1.615565	0.255764	-3.182997
H	-1.839113	1.404571	-1.842186
C	0.163656	-1.30632	-2.112745
N	0.471733	-2.344892	-2.566243
H	-3.446979	0.0	0.0
