18

C	0.0	0.0	0.0
C	-0.51943	-0.070415	-1.461236
Cl	1.800447	0.0	0.0
H	-1.623898	-0.03156	-1.297093
N	-0.479144	1.172471	0.686984
H	-0.232436	1.991374	0.13171
H	-1.508962	1.060125	0.658997
C	-0.440163	-1.23629	0.76296
H	-1.534309	-1.260601	0.718718
H	-0.113149	-1.135472	1.798271
H	0.004257	-2.13991	0.342215
C	-0.167833	-1.332724	-2.254119
H	-0.573749	-1.261135	-3.267749
H	-0.613061	-2.204863	-1.768566
H	0.915191	-1.471457	-2.319884
C	-0.140007	1.120573	-2.220768
N	0.127573	2.068759	-2.865679
H	-3.113102	0.0	0.0
