18

C	0.0	0.0	0.0
C	-0.664636	0.055672	-1.362792
Cl	1.849835	0.0	0.0
H	-1.774255	0.116416	-1.014005
N	-0.404649	1.157321	0.729243
H	-0.157398	2.008717	0.24092
H	0.018658	1.16578	1.647574
C	-0.450907	-1.232039	0.753382
H	-0.100163	-1.182434	1.788227
H	-0.063614	-2.146976	0.303332
H	-1.551847	-1.196621	0.726664
C	-0.469229	-1.178615	-2.235426
H	0.587537	-1.442887	-2.336597
H	-1.015681	-2.017211	-1.800726
H	-0.880623	-0.999275	-3.231571
C	-0.324908	1.274991	-2.07478
N	-0.082265	2.268276	-2.659108
H	-3.169081	0.0	0.0
