18

C	0.0	0.0	0.0
C	-0.263002	0.018316	-1.559983
Cl	1.806805	0.0	0.0
H	0.463056	0.730611	-1.970757
N	-0.520939	1.150538	0.673452
H	-1.540941	1.017499	0.723523
H	-0.340551	1.990252	0.132956
C	-0.537077	-1.241889	0.673719
H	-1.63047	-1.224823	0.567172
H	-0.282548	-1.202002	1.734629
H	-0.122906	-2.148726	0.23304
C	-1.661805	0.457286	-1.995742
H	-2.464107	0.038949	-1.36567
H	-1.747578	1.542028	-1.885326
H	-1.818357	0.209612	-3.050635
C	0.089127	-1.274767	-2.150547
N	0.344143	-2.298247	-2.668742
H	-3.610851	0.0	0.0
