17

C	0.0	0.0	0.0
C	-0.388469	-0.000552	-1.529044
Br	1.939977	0.0	0.0
H	0.365262	-0.590994	-2.043222
N	-0.644795	0.952983	0.76048
H	-1.672815	0.827523	0.577791
H	-0.466413	0.796863	1.747424
N	-0.276164	-1.476051	0.507104
O	-0.538873	-1.588595	1.697106
O	-0.163945	-2.398643	-0.29255
N	-0.15318	1.419402	-2.02295
O	0.906654	1.643559	-2.613989
O	-1.045893	2.235581	-1.836598
N	-1.68706	-0.395165	-1.919314
H	-1.688398	-1.404179	-2.009527
H	-2.414847	-0.149736	-1.182538
H	-3.222924	0.0	0.0
