17

C	0.0	0.0	0.0
C	-0.333764	-0.062541	-1.512062
Br	1.997794	0.0	0.0
H	-1.421453	-0.056137	-1.547611
N	-0.390583	1.273575	0.535174
H	0.391558	1.911618	0.51707
H	-0.657853	1.06732	1.496185
N	-0.762162	-1.056547	0.72683
O	-0.753241	-0.930013	1.989288
O	-0.788792	-2.179269	0.155221
N	0.025685	-1.343209	-2.266393
O	-0.690973	-1.521536	-3.260467
O	0.992781	-2.035421	-1.98124
N	0.179257	1.068533	-2.232585
H	1.179343	0.981347	-2.368405
H	-0.279153	1.112814	-3.133235
H	-2.15242	0.0	0.0
