12

C	-0.502063	0.000894	-1.437102
C	0.0	0.0	0.0
F	-1.894468	0.079546	-1.457601
H	1.093612	0.0	0.0
H	-0.334801	0.928746	0.471429
C	0.014	1.178052	-2.163064
N	0.393273	2.11735	-2.758911
C	-0.125077	-1.229059	-2.156094
N	0.130567	-2.199933	-2.763415
C	-0.538892	-1.141485	0.727173
N	-0.998754	-2.04716	1.315441
Cl	3.215056	0.0	0.0
