12

C	-0.504581	-0.019131	-1.439085
C	0.0	0.0	0.0
F	-1.8963	0.05788	-1.456955
H	1.093532	0.0	0.0
H	-0.333346	0.937632	0.454564
C	0.005254	1.149378	-2.181095
N	0.390952	2.077856	-2.786935
C	-0.129309	-1.257319	-2.147155
N	0.134062	-2.236744	-2.739219
C	-0.541856	-1.128447	0.744472
N	-0.995462	-2.035388	1.336677
Cl	3.22191	0.0	0.0
