12

C	-0.47692	0.126723	-1.446109
C	0.0	0.0	0.0
F	-0.033309	1.313657	-1.981841
H	1.093681	0.0	0.0
H	-0.33005	-0.961772	0.403865
C	0.033192	-0.992394	-2.262423
N	0.405747	-1.871762	-2.945639
C	-1.954974	0.11698	-1.535632
N	-3.128209	0.10077	-1.588307
C	-0.538359	1.086059	0.807646
N	-0.99192	1.952727	1.456883
Cl	3.230792	0.0	0.0
