12

C	-0.501786	0.013529	-1.43628
C	0.0	0.0	0.0
F	-1.895087	-0.055101	-1.456666
H	1.09367	0.0	0.0
H	-0.334462	-0.935463	0.459244
C	-0.119373	1.243656	-2.150705
N	0.14623	2.213294	-2.759191
C	-7.8e-05	-1.159512	-2.173614
N	0.38261	-2.088693	-2.779743
C	-0.543863	1.130888	0.740024
N	-1.0074	2.029025	1.337709
Cl	3.213924	0.0	0.0
