12

C	-0.47793	-0.010351	-1.450867
C	0.0	0.0	0.0
F	-0.035172	1.120906	-2.096597
H	1.093548	0.0	0.0
H	-0.329992	-0.919391	0.493453
C	0.032739	-1.200575	-2.15928
N	0.413035	-2.135321	-2.759781
C	-1.95603	-0.028711	-1.537958
N	-3.129428	-0.047726	-1.585755
C	-0.537509	1.157413	0.702042
N	-0.990028	2.081615	1.267108
Cl	3.234288	0.0	0.0
