16
Coordinates from ORCA-job run
  C   0.91536398268439      0.02490663888012      0.51795004476220
  C   -0.59199656651756     -0.21727521076903      0.40193925664899
  F   1.19406430411644      0.42246567386326      1.79024321946380
  H   -0.79148291258340     -0.94005477235053      1.21076383405325
  N   1.32918753065358      1.16548317745773     -0.41183433992497
  O   1.57359397331748      2.24273064895139      0.09891375377511
  O   1.34757960469967      0.87087625683609     -1.60030383109534
  C   1.72241712394023     -1.15019627417389      0.18540254962405
  N   2.33629533551393     -2.12366215619077     -0.04973424951457
  C   -1.02311187019227     -0.82776032449805     -0.92123433006355
  H   -0.47303393298094     -1.74288752221475     -1.14466549446427
  H   -2.08442693750390     -1.08172588084568     -0.86050572202604
  H   -0.87817779676610     -0.11884802847490     -1.73520507654469
  N   -1.22976908360466      1.07385459960674      0.59187393043931
  H   -1.12991162098462      1.39384603339777      1.54726665761258
  H   -2.21659113379227      1.00724714052450      0.37912979725414
