16
Coordinates from ORCA-job run
  C   0.87978342408256      0.38120519825522      0.13872169696801
  C   -0.48915323147106     -0.27916611420197      0.30726027469822
  F   0.72766797187896      1.69514610845763     -0.16146692172394
  H   -0.29302598695700     -1.31667307345497      0.59197342694925
  N   1.59386642680952     -0.28594836364842     -1.03732237686602
  O   1.87945781294909     -1.46257576514935     -0.85224571882854
  O   1.76336942502422      0.37665666791082     -2.04784483594695
  C   1.73103347750067      0.23258827341151      1.32005165846464
  N   2.42396919294033      0.10802882118045      2.25974984131659
  C   -1.28050100080193     -0.23646536239416     -0.99857981723829
  H   -2.27778495845932     -0.64272261476829     -0.81940921752731
  H   -0.81580147885133     -0.82882591400576     -1.79024380772055
  H   -1.38522322566596      0.79210096688646     -1.35177773615718
  N   -1.10581342595621      0.39557886041467      1.43749806260883
  H   -1.54227245923051      1.25985408059134      1.14138666349551
  H   -1.81157196379203     -0.19078176948519      1.86124880750774
