16
Coordinates from ORCA-job run
  C   0.81163149549830      0.34238575614370      0.40513336500835
  C   -0.40591059154087     -0.49768485072830      0.01761936225713
  F   0.41348015696468      1.46018753902703      1.06263619130346
  H   -0.01356674672979     -1.40173789733573     -0.45639710346417
  N   1.51806497485125      0.78315159221215     -0.87782764236742
  O   1.48034122165128      1.96801313978066     -1.16686368320227
  O   2.01083173276087     -0.13418974527916     -1.52269482026690
  C   1.77888340186214     -0.39795091458427      1.21671238811169
  N   2.56499551809995     -0.98846244021608      1.85860170190782
  C   -1.30053400281427      0.25724394451930     -0.96397499293963
  H   -0.81204709189136      0.43251879716943     -1.92516521468799
  H   -2.19784629692203     -0.33612327392148     -1.14964481702236
  H   -1.60363683085184      1.22092935407652     -0.54830683629191
  N   -1.02907577913786     -0.87511125488110      1.27497652000516
  H   -1.62108808396305     -0.12833324414935      1.61717839887325
  H   -1.59452307783740     -1.70483650183333      1.15801718277577
