16
Coordinates from ORCA-job run
  C   0.95389707658665     -0.17193510801462      0.22944069393932
  C   -0.55757753994162     -0.00904366116498      0.35406646544953
  F   1.38911864433165     -1.23419118218070      0.96609232326280
  H   -0.72740051111188      0.12902123527624      1.42604587685334
  N   1.61822010874445      1.06823331668714      0.82513064688461
  O   2.31886716560962      1.75387493464923      0.09471471036426
  O   1.37727770337297      1.24923713754129      2.01089087722684
  C   1.37729701203654     -0.32431851168319     -1.16473954567532
  N   1.62016195276895     -0.51273404259650     -2.29837665285856
  C   -1.28266486862285     -1.25528896325639     -0.13722208448463
  H   -1.12738757689726     -1.39486169920598     -1.21098175514489
  H   -2.35419838494198     -1.14155540272987      0.04009822246852
  H   -0.94038100578100     -2.15242249605904      0.38204994837474
  N   -0.88408996447771      1.23006940060799     -0.33111222250387
  H   -1.65681920672002      1.70437954772219      0.11418419425130
  H   -1.12532060495652      1.06153549440720     -1.30028169840800
