16
Coordinates from ORCA-job run
  C   0.94016272457248     -0.15273098289349      0.24677613250656
  C   -0.57537458824139     -0.04138209047892      0.34834783481519
  F   1.41622043594282     -1.13366899895156      1.07249794908468
  H   -0.78500869871109      0.04153886740388      1.42014817350526
  N   1.56846269593546      1.14587503448840      0.75801176669995
  O   1.06868233907745      1.59782449546400      1.78197931079123
  O   2.53498992033130      1.58951579858865      0.15251676968095
  C   1.39364216556251     -0.39217852928069     -1.12398389605586
  N   1.70370639337577     -0.67606093903024     -2.22045756274759
  C   -1.23871466680045     -1.28722974661866     -0.21542081342005
  H   -1.09358404564000     -1.34518057714061     -1.29722452236158
  H   -0.83163325849437     -2.19209102399452      0.23838396135941
  H   -2.31044442988144     -1.25306744991763     -0.00856008292275
  N   -0.93254388974970      1.16079080338263     -0.38721326566461
  H   -1.13761990059883      1.93197235974154      0.23253181611494
  H   -1.72094319668052      1.00707297923722     -0.99933357138572
