16
Coordinates from ORCA-job run
  C   0.79667562681322      0.41300531796486      0.09710061262868
  C   -0.54618774354317     -0.32720775770718      0.27279411826867
  F   0.58005190614412      1.68502056355491     -0.32233681265294
  H   -0.29581985719150     -1.33437868007156      0.61824252664665
  N   1.61724714885923     -0.30385861388279     -0.96878288072574
  O   1.99186360769005     -1.42463735804217     -0.64444567556525
  O   1.76930759760334      0.25875144941486     -2.04077414701746
  C   1.57833344463505      0.42723973930564      1.33574622890643
  N   2.13935400023694      0.43778975814425      2.36780181397577
  C   -1.28119869022506     -0.40381806558129     -1.05871699490798
  H   -0.73329402895974     -0.98746430477332     -1.80016646346398
  H   -2.24524775203453     -0.88058048952492     -0.88381433216321
  H   -1.45548631846487      0.59462172199759     -1.46560766791164
  N   -1.38106452981236      0.30514941558106      1.27004039464213
  H   -1.56643853180661      1.27101471925208      1.02962981524736
  H   -0.96909587994412      0.26735258436798      2.19428946409250
