13

C	-0.478594	-0.06101	-1.437465
C	0.0	0.0	0.0
Br	-0.430079	1.848541	-2.184494
H	1.098049	0.0	0.0
H	0.258433	-0.544152	-2.080833
H	-0.384879	0.90089	0.486209
N	-1.748691	-0.660872	-1.594265
H	-2.106501	-0.565901	-2.534478
H	-2.410635	-0.29781	-0.922168
N	-0.503288	-1.183739	0.748221
H	0.200423	-1.35083	1.462827
H	-0.442638	-1.984053	0.127997
H	3.019095	0.0	0.0
