13

C	-0.532953	0.052624	-1.412331
C	0.0	0.0	0.0
Br	-0.286362	1.812772	-2.239098
H	1.093104	0.0	0.0
H	0.08098	-0.606302	-2.039454
H	-0.278735	-1.013224	0.358208
N	-1.965925	-0.244613	-1.450906
H	-2.281893	-0.263133	-2.415276
H	-2.083405	-1.182927	-1.074471
N	-0.50398	1.067391	0.844475
H	0.137669	1.189203	1.6191
H	-1.426607	0.854204	1.198302
H	3.043292	0.0	0.0
