13

C	-0.621115	0.004335	-1.384478
C	0.0	0.0	0.0
Br	-0.142768	-1.67985	-2.332479
H	1.092438	0.0	0.0
H	-1.711626	-0.100549	-1.312571
H	-0.339516	-0.893553	0.536605
N	-0.190481	1.131026	-2.144002
H	-0.119561	1.904853	-1.487962
H	-0.851219	1.35531	-2.877401
N	-0.390045	1.256211	0.672075
H	-1.113303	1.096988	1.360231
H	0.436941	1.588404	1.156775
H	3.04117	0.0	0.0
