13

C	-0.599012	-0.017891	-1.384858
C	0.0	0.0	0.0
Br	-0.028901	1.694255	-2.374586
H	1.096307	0.0	0.0
H	-0.137872	-0.77785	-2.014882
H	-0.329167	-0.941685	0.458599
N	-2.007689	-0.136999	-1.330563
H	-2.440753	0.033432	-2.227971
H	-2.341025	0.533294	-0.64536
N	-0.594828	1.110558	0.771595
H	-0.041944	1.93347	0.550932
H	-0.413368	0.92078	1.751352
H	3.066269	0.0	0.0
