13

C	-0.412237	0.095279	-1.459202
C	0.0	0.0	0.0
Br	-0.33121	-1.702787	-2.317763
H	1.102206	0.0	0.0
H	-1.460186	0.374641	-1.592426
H	-0.309933	0.962948	0.434342
N	0.445301	0.980624	-2.205714
H	1.401667	0.826306	-1.876936
H	0.193887	1.934238	-1.969108
N	-0.660853	-1.067625	0.757579
H	-0.27291	-1.943085	0.420355
H	-0.331105	-0.983225	1.714369
H	3.07339	0.0	0.0
