13

C	-0.59834	-0.037421	-1.385163
C	0.0	0.0	0.0
Br	-0.029789	1.659912	-2.396722
H	1.095885	0.0	0.0
H	-0.139573	-0.807184	-2.003674
H	-0.329716	-0.935313	0.471023
N	-2.00597	-0.152447	-1.329357
H	-2.439535	0.011706	-2.227805
H	-2.336183	0.526132	-0.650598
N	-0.595284	1.120587	0.756352
H	-0.043327	1.940986	0.523685
H	-0.413547	0.944781	1.738269
H	3.066901	0.0	0.0
