14

C	0.0	0.0	0.0
C	-0.499561	0.159007	-1.424693
Br	2.008907	0.0	0.0
H	-1.597396	0.223204	-1.352473
H	-0.116577	1.083779	-1.854092
N	-0.277007	1.341766	0.765517
O	-0.410471	1.239511	1.977612
O	-0.297818	2.381881	0.120648
N	-0.522669	-1.113548	0.634708
H	-1.547543	-1.071422	0.516529
H	-0.298204	-1.100212	1.622751
C	-0.113504	-0.972283	-2.257221
N	0.196741	-1.85019	-2.97178
Cl	-3.493407	0.0	0.0
