14

C	0.0	0.0	0.0
C	-0.278486	-0.227363	-1.502437
Br	2.017475	0.0	0.0
H	-0.108172	-1.29821	-1.656622
H	0.496789	0.302209	-2.053445
N	-0.2845	1.476802	0.384086
O	-0.293481	2.302813	-0.518483
O	-0.428221	1.699727	1.578866
N	-0.547473	-0.933279	0.859676
H	-0.397098	-0.634707	1.819435
H	-1.571073	-0.899671	0.675503
C	-1.516037	0.156663	-2.192393
N	-2.207155	0.435467	-3.103643
Cl	-3.365648	0.0	0.0
