14

C	0.0	0.0	0.0
C	-0.539703	0.271877	-1.400425
Br	1.937691	0.0	0.0
H	-0.428879	-0.665154	-1.952256
H	-1.617594	0.464962	-1.283978
N	-0.323213	1.223165	0.92147
O	-0.331857	0.99072	2.124682
O	-0.509883	2.309238	0.391177
N	-0.533577	-1.192605	0.499883
H	-1.558721	-1.11122	0.408837
H	-0.302337	-1.279713	1.483269
C	0.10658	1.338389	-2.15157
N	0.584426	2.165625	-2.833912
Cl	-3.51221	0.0	0.0
