14

C	0.0	0.0	0.0
C	-0.527584	-0.135819	-1.420965
Br	1.995238	0.0	0.0
H	-0.429836	-1.194101	-1.676486
H	-1.603225	0.092987	-1.366528
N	-0.293857	1.435435	0.53397
O	-0.325671	1.555865	1.75231
O	-0.439429	2.329046	-0.287718
N	-0.514804	-1.003083	0.819607
H	-0.283832	-0.801412	1.786929
H	-1.540183	-0.965217	0.714449
C	0.133122	0.655803	-2.447224
N	0.679243	1.195589	-3.335066
Cl	-3.510777	0.0	0.0
