18

C	0.0	0.0	0.0
C	-0.485241	0.1171	-1.444238
Br	1.98239	0.0	0.0
H	-0.052111	-0.709044	-2.019311
H	-1.569241	-0.043537	-1.389074
C	-0.475091	1.154396	0.863512
H	-1.56934	1.162041	0.811543
H	-0.080636	2.111634	0.51874
H	-0.165104	1.008286	1.901624
C	-0.458582	-1.32446	0.586466
H	-0.077946	-1.457794	1.602299
H	-0.119099	-2.162863	-0.027688
H	-1.553343	-1.305599	0.604475
C	-0.210405	1.444875	-2.139092
H	0.849402	1.710738	-2.102908
H	-0.792242	2.249342	-1.686058
H	-0.510087	1.3826	-3.189235
Cl	-3.903276	0.0	0.0
