17

C	0.0	0.0	0.0
C	-0.398954	-0.018622	-1.472131
F	1.43769	0.0	0.0
H	-1.493354	-0.031294	-1.46493
N	-0.445697	1.136872	0.732428
H	-1.449959	0.993175	0.852969
H	-0.327455	1.949417	0.138106
N	-0.456185	-1.166085	0.639502
H	-0.208833	-1.98485	0.1055
H	-0.11777	-1.197535	1.58987
N	0.081042	-1.260663	-2.081511
H	1.084653	-1.19344	-2.210754
H	-0.354076	-1.386739	-2.987164
N	0.057315	1.229352	-2.082926
H	1.066216	1.197629	-2.180368
H	-0.354344	1.330426	-3.002144
Cl	-3.880925	0.0	0.0
