17

C	0.0	0.0	0.0
C	-0.450044	-0.392696	-1.441278
F	1.438372	0.0	0.0
H	0.479271	-0.384077	-2.020394
N	-0.382181	1.348191	0.312401
H	-1.398493	1.3336	0.399321
H	0.001905	1.586086	1.221925
N	-0.431638	-0.949252	0.962965
H	-0.167159	-1.879846	0.667091
H	-0.039656	-0.731237	1.870579
N	-1.387108	0.507271	-2.092114
H	-1.047331	1.458429	-2.00314
H	-2.280518	0.452251	-1.598776
N	-0.962082	-1.757649	-1.425977
H	-1.850043	-1.72135	-0.923723
H	-1.19149	-1.979785	-2.389125
Cl	-3.962308	0.0	0.0
