14

C	-0.453901	0.012151	-1.45763
C	0.0	0.0	0.0
Cl	-2.271222	-0.139642	-1.559985
H	1.095161	0.0	0.0
H	-0.338888	-0.947419	0.429949
C	-0.104947	1.263642	-2.135732
N	0.172739	2.265666	-2.682628
C	0.091438	-1.12353	-2.206296
N	0.515217	-2.028346	-2.824568
C	-0.498054	1.192784	0.801095
H	-1.588422	1.2462	0.848026
H	-0.113372	2.125718	0.382856
H	-0.108719	1.112484	1.818018
Br	3.518236	0.0	0.0
