14

C	-0.451996	0.009625	-1.458334
C	0.0	0.0	0.0
Cl	-2.269886	-0.131415	-1.564172
H	1.095115	0.0	0.0
H	-0.339782	-0.946119	0.432
C	-0.095224	1.25699	-2.140928
N	0.14762	2.262273	-2.697941
C	0.087653	-1.135151	-2.197367
N	0.503206	-2.07613	-2.765432
C	-0.496787	1.195514	0.798054
H	-1.587111	1.250263	0.845011
H	-0.107466	1.117379	1.815185
H	-0.111115	2.127068	0.37747
Br	3.517045	0.0	0.0
