14

C	-0.451862	0.013171	-1.458599
C	0.0	0.0	0.0
Cl	-2.269137	-0.142962	-1.5663
H	1.095079	0.0	0.0
H	-0.339337	-0.94764	0.429082
C	-0.104268	1.266015	-2.134263
N	0.170684	2.268243	-2.6817
C	0.098132	-1.120165	-2.206855
N	0.523359	-2.023236	-2.826414
C	-0.499832	1.193055	0.799262
H	-0.112808	2.125754	0.382611
H	-0.114351	1.11207	1.817617
H	-1.590371	1.247385	0.842272
Br	3.518296	0.0	0.0
