16
Coordinates from ORCA-job run
  C   0.78188765527013      0.09235523972486      0.57539683799788
  C   -0.66789198724031     -0.16739312327167      0.12846474626553
  Cl  0.63134467969679      1.01756913573015      2.17158989751424
  H   -1.17046752817775     -0.69961292129975      0.93831066961351
  N   1.48448380824698     -1.12505672715321      0.69075756237922
  H   1.02235707867728     -1.77867425995065      1.31116476386391
  H   2.44909458249712     -0.99511683853225      0.96644047928434
  C   1.49288196053616      0.99233336383962     -0.33558110122986
  N   2.07468166406166      1.72298412071838     -1.04793849120718
  N   -0.60488101507326     -1.15611724925569     -1.00225916610165
  O   -0.21767296838358     -0.73463858521635     -2.08700765055798
  O   -0.93917665710225     -2.31011714895823     -0.74611962774156
  C   -1.43635043857125      1.06052759269936     -0.30937194354716
  H   -0.93916415423131      1.54280311761966     -1.15080540520532
  H   -2.44184536734959      0.76940886158818     -0.61912401302727
  H   -1.52028131285681      1.76674542171758      0.51608244169935
