16
Coordinates from ORCA-job run
  C   0.72722424929970     -0.11107693341101      0.74335486264184
  C   -0.72909665332965     -0.03840876651185      0.23310378632088
  Cl  0.77326819530246     -0.97663959040755      2.31836033734412
  H   -1.37299911329323      0.16033661441929      1.09011698164284
  N   1.56064033257551     -0.82840663037842     -0.17298565186481
  H   1.43958271006175     -0.51053824160125     -1.12642346676568
  H   2.53470986689251     -0.77221016392240      0.09590629093824
  C   1.17591636852477      1.26658776098444      1.02736354239938
  N   1.56811439735777      2.36265836556423      1.19511641967684
  N   -1.12312316454819     -1.40803997240891     -0.24676161046451
  O   -1.65619614006314     -2.15006259308230      0.57254066795404
  O   -0.88007614286610     -1.67910598437841     -1.41991441764266
  C   -0.95053834837615      0.97932262410267     -0.87113650411436
  H   -1.97955139860414      0.90705576225294     -1.22699433197456
  H   -0.29511146707082      0.81169063470322     -1.72511770894817
  H   -0.78976369186303      1.98683711407530     -0.48652919714345
