16
Coordinates from ORCA-job run
  C   0.89710347131668     -0.01820999875394      0.23511689389848
  C   -0.62560324664526      0.05744746247212     -0.00477093296517
  Cl  1.67732631787878     -1.16296115799737     -0.89031686852247
  H   -1.00181037630980      0.82411827501274      0.67829991085033
  N   1.43724629989225      1.29922694993729     -0.03371326806275
  H   1.13672672259134      1.94102259632635      0.69417608900080
  H   2.45074259453138      1.26078696700732     -0.02159706609036
  C   1.19249289579826     -0.48759605933976      1.60128606950619
  N   1.47362227098649     -0.77487682340801      2.70646765025276
  N   -1.27343802168998     -1.20812649207511      0.48118704553429
  O   -1.34289527002192     -2.14943795786599     -0.30392042335658
  O   -1.67523451883340     -1.20336934732471      1.64431451206268
  C   -1.01240381458811      0.34902043188363     -1.43665613324758
  H   -0.74800453119383     -0.48382742350899     -2.08412501646067
  H   -2.09074767722009      0.50860193733106     -1.49645282365311
  H   -0.49612311649279      1.24818064030337     -1.77029563874683
