16
Coordinates from ORCA-job run
  C   0.85824440955021     -0.12837912333851      0.32726938048128
  C   -0.59746304271109      0.17366729809002     -0.08590029732940
  Cl  1.43365677494455     -1.65866605906250     -0.38938016496089
  H   -0.83612562945220      1.15183075320743      0.34090202416445
  N   1.68217421265818      0.94084148258638     -0.19999948727114
  H   1.49245922639057      1.79638391462920      0.31380445477079
  H   2.66166731949919      0.70892518477365     -0.07543515822163
  C   0.97259932968941     -0.26690740735907      1.79060001835939
  N   1.12534824842008     -0.29652590316630      2.95628843983323
  N   -1.52716873733328     -0.76744076848511      0.62640488005688
  O   -1.97874173588497     -0.37692375474811      1.70246929726053
  O   -1.75522308011216     -1.85144325573391      0.09719295515310
  C   -0.83602672280971      0.14502263724083     -1.57829848896463
  H   -0.12282890746313      0.80704680217644     -2.06749966783173
  H   -0.72279081307141     -0.86420403864527     -1.96746184124725
  H   -1.85078085231424      0.48777223783484     -1.78995634425299
