16
Coordinates from ORCA-job run
  C   0.78788890529610      0.00891859534642      0.63774864071960
  C   -0.69297139048584     -0.01253678036721      0.21572690791412
  Cl  0.93196172587967     -1.13473779669253      2.08362245776148
  H   -1.29299978730385      0.29465050213670      1.07236229750302
  N   1.67648044226005     -0.27058099192996     -0.42038737211886
  H   2.64334550201273     -0.20432787186295     -0.13025558112730
  H   1.47980593193310     -1.17295988204395     -0.83496423005952
  C   1.07225741574508      1.34518555610323      1.17295834119419
  N   1.28162800739887      2.42798871136740      1.57769215985773
  N   -1.13936148136615     -1.41673693870326     -0.06672333528602
  O   -0.44913611671894     -2.08803232189556     -0.83300794247684
  O   -2.19150327606757     -1.77626876230589      0.44926076470221
  C   -0.97298040155876      0.83911489847597     -1.00956261304533
  H   -2.04290477702988      0.82196298138131     -1.22706698365612
  H   -0.67485634919808      1.87121517040088     -0.81844839564317
  H   -0.41665435079655      0.46814493058938     -1.86895511623920
