16
Coordinates from ORCA-job run
  C   0.80763676105176     -0.07303910692127      0.47136859869093
  C   -0.63832228161470      0.17416510240943     -0.00789741476096
  Cl  1.31533104051675     -1.75997674229860     -0.03770454008230
  H   -0.98102422318564      1.06825104433841      0.51869297893574
  N   1.64363794059998      0.95112515423839     -0.05895553321468
  H   1.75316157634266      0.84603464608139     -1.06024792302084
  H   2.55898287324079      0.93308818140019      0.37453182693420
  C   0.91279948184530     -0.03777917374505      1.93376635838905
  N   1.07717672392365      0.03625659996687      3.09450472425020
  N   -1.52378956528197     -0.93152696792621      0.50241515350383
  O   -1.75135106846230     -0.91827881562023      1.71021609976620
  O   -1.94479000785107     -1.75526270057528     -0.30353073091612
  C   -0.77126790789039      0.33108974938661     -1.50601789597011
  H   -0.34266095014681     -0.51836292849548     -2.03651180757174
  H   -0.28909975247035      1.25758181312082     -1.81988349157394
  H   -1.82542064061764      0.39563414464000     -1.77474640335946
