16
Coordinates from ORCA-job run
  C   0.81245160356749      0.00288412670771      0.60511111279764
  C   -0.68442994583352     -0.01309596446544      0.24337667306079
  Cl  1.01318479486375     -1.15482225780131      2.03334703049142
  H   -1.24854115149068      0.28640122644989      1.12672541633349
  N   1.65671508540439     -0.26813752956368     -0.49059118328515
  H   2.63477858990415     -0.20633048081830     -0.23976613990711
  H   1.44090785337765     -1.16555680079298     -0.90607185299581
  C   1.12061709400455      1.33328275517677      1.14148262358145
  N   1.35127874846499      2.41122986993228      1.54760628243102
  N   -1.14210486376464     -1.41494591616479     -0.03279551999617
  O   -2.16360106412002     -1.78564414051910      0.53407743044116
  O   -0.49096221702953     -2.07432236913180     -0.84248756134535
  C   -1.01233635839570      0.84947315709791     -0.96204528087046
  H   -2.08967846148328      0.83348184691462     -1.13846468936231
  H   -0.70797062011945      1.88006306655455     -0.77315066649765
  H   -0.48930908735015      0.48703941042368     -1.84535367487697
