16
Coordinates from ORCA-job run
  C   0.75928961061626      0.12137291849794      0.60059334111766
  C   -0.66797084413613     -0.18011615819468      0.10915029900062
  Cl  0.53268528986802      1.07171538579545      2.17234852538703
  H   -1.18639965280737     -0.70822906355345      0.91167985913820
  N   1.48449787554166     -1.07735712719458      0.76328667668909
  H   2.43609643110146     -0.92031165870190      1.06839605211378
  H   1.01583346781761     -1.72920063877719      1.38056539936761
  C   1.48052308685320      1.02042846803021     -0.30327160331379
  N   2.06754826348241      1.75158088483628     -1.01091986428245
  N   -0.54351391002528     -1.18885309283144     -0.99891683922007
  O   -0.86299119062175     -2.34466144186711     -0.73173628869088
  O   -0.12677171287169     -0.77984339382958     -2.07753422440638
  C   -1.44736445639041      1.02127548480453     -0.37982444930786
  H   -1.57151655356675      1.74353630272920      0.42642509973442
  H   -2.43653500955404      0.70264915675369     -0.71425486781727
  H   -0.93341069530719      1.49501397350261     -1.21598711550970
