16
Coordinates from ORCA-job run
  C   0.88166532013477     -0.07573418968861      0.49405396967138
  C   -0.56075071341915      0.13458532147621     -0.04614275337726
  Cl  1.39552947661074     -1.76143731029879      0.17621124631437
  H   -0.86718031030486      1.12864287388564      0.29195862457268
  N   1.86026557287967      0.79693501270896     -0.10514568883717
  H   1.92549427541574      0.64100777322535     -1.10295068049257
  H   1.64883852235134      1.76914899501722      0.08930547385830
  C   0.91623196810527      0.14938249808197      1.94534886993724
  N   0.93203892566029      0.37020113425741      3.09892719837875
  N   -1.51444787805240     -0.79886583518906      0.64824080751370
  O   -1.80982866893706     -1.84411737670361      0.07593986103761
  O   -1.91661032923574     -0.43793056354374      1.75326634578746
  C   -0.68897714883498      0.00063872498502     -1.54791998595475
  H   -0.32864460368065     -0.96684002424695     -1.89248344692623
  H   -0.13811179373542      0.80009419658302     -2.04508250820053
  H   -1.73751261495755      0.09328876944994     -1.83352733328299
