16
Coordinates from ORCA-job run
  C   0.77378266661034      0.10298406601879      0.58457274918798
  C   -0.66631244234234     -0.17989353706423      0.12021569220709
  Cl  0.58901846439585      1.01497102952962      2.18467043324799
  H   -1.16812138021968     -0.72512465551420      0.92186329398473
  N   1.49704243797233     -1.10227161967213      0.69994559946889
  H   2.45595528432979     -0.95664584762328      0.98717060385070
  H   1.03993912142346     -1.76838330197051      1.31072935671092
  C   1.47823352708300      1.02155090964644     -0.31279819988697
  N   2.05408651878949      1.76772754789303     -1.01385554809697
  N   -0.57315357544704     -1.16140446730790     -1.01471019943297
  O   -0.18084540084687     -0.72745269768759     -2.09274845487822
  O   -0.88960599063066     -2.32249719026114     -0.76789461617148
  C   -1.45127007495997      1.03672982318686     -0.31983311169739
  H   -2.44872289159124      0.72999498789003     -0.64044309906234
  H   -1.55486062252522      1.73798407523891      0.50759184534413
  H   -0.95416564204126      1.53073087769727     -1.15447634477611
