16
Coordinates from ORCA-job run
  C   0.69840422541640      0.02003232035708      0.73287709617304
  C   -0.71595391396161      0.02831987739956      0.12304938389525
  Cl  0.60501863108239     -1.03861518337188      2.24654155456678
  H   -1.40589634423499      0.40982959905505      0.87584013960391
  N   1.70065892471594     -0.35851057424132     -0.18319770967781
  H   2.62423558848796     -0.31660126783641      0.22722322005517
  H   1.51437162333779     -1.27438042149448     -0.57229212500293
  C   0.97250831903956      1.37453004398960      1.22572517605110
  N   1.17748184485858      2.47128745827393      1.59331025461000
  N   -1.18141441693133     -1.37466728565384     -0.13285115681059
  O   -0.44411721223773     -2.10197655918637     -0.79802152382865
  O   -2.28598423937217     -1.68095038575341      0.30080873327610
  C   -0.79695849526190      0.81182659591692     -1.17455775253398
  H   -1.82788511235038      0.81412894959260     -1.53463522306461
  H   -0.14539409910848      0.37246841474449     -1.92803078218803
  H   -0.48807532348004      1.84427841820850     -1.00278928512475
