16
Coordinates from ORCA-job run
  C   0.78696446643944      0.01929684628335      0.63806827137646
  C   -0.69370500473594     -0.00007527093523      0.21479692285614
  Cl  0.91977109441948     -1.08822631486305      2.11278298193971
  H   -1.29157024860900      0.33543175234868      1.06229463475378
  N   1.67396187568658     -0.29571044298542     -0.41153851958562
  H   1.46922478913197     -1.20728390945982     -0.80145310546654
  H   2.64103965423257     -0.23137420321431     -0.12166162472573
  C   1.08203268544588      1.36628184584996      1.13941134148178
  N   1.30036221138168      2.45725017751260      1.51623977696962
  N   -1.15103062000335     -1.40772428527706     -0.02989719983895
  O   -2.19944389319641     -1.75002050258292      0.50485453898989
  O   -0.47170303011434     -2.10058852163283     -0.78687713182646
  C   -0.96433016982429      0.82048972788057     -1.03345001179793
  H   -0.40743120104731      0.42323325546026     -1.88039315648245
  H   -0.66062015618808      1.85550678950169     -0.86876066418004
  H   -2.03352245301887      0.80451305611354     -1.25441705446367
