16
Coordinates from ORCA-job run
  C   0.72417321181174      0.01283149559453      0.70818742947800
  C   -0.71061512555478      0.03369664625862      0.14811509539423
  Cl  0.67546942521527     -1.04773434437557      2.22210387794776
  H   -1.37056705863227      0.41986099194444      0.92498537935707
  N   1.69065280681889     -0.37175329991945     -0.24327665926623
  H   2.62831532167552     -0.33842479042473      0.13495451368694
  H   1.48336783010002     -1.28556451454687     -0.62667839830405
  C   1.02486713988448      1.36465118754727      1.19285589497747
  N   1.24763443581536      2.46021844032753      1.55346738599470
  N   -1.19672865488392     -1.36486526498860     -0.09277586257893
  O   -2.28744401306913     -1.66285731870902      0.38005049482066
  O   -0.48926541002999     -2.09772850384157     -0.78382891519783
  C   -0.83036893463561      0.81955761294230     -1.14503423184886
  H   -0.21011259144733      0.37504269206978     -1.92151052353999
  H   -0.50598911861213      1.84889114137448     -0.98351448787374
  H   -1.87338926445611      0.83217782874687     -1.46810099304720
