16
Coordinates from ORCA-job run
  C   0.73532527112308     -0.11697404212311      0.73328373440404
  C   -0.72741361885381     -0.03980104617095      0.24167262507388
  Cl  0.80281198368193     -0.99427599694418      2.29981457808992
  H   -1.36091684305462      0.15253718072959      1.10796110784050
  N   1.55576786175479     -0.82940227587867     -0.20010849345365
  H   1.43627688001194     -0.48726676932569     -1.14556076892244
  H   2.53147588036859     -0.78665163144513      0.06581381706191
  C   1.18935533001081      1.25829126196566      1.02035356883510
  N   1.58369712529458      2.35338871953404      1.18948754918624
  N   -1.12713057114095     -1.40607885854893     -0.24397675227387
  O   -0.90628296738687     -1.66555069455071     -1.42387969110366
  O   -1.64264950629368     -2.15699393953150      0.57855573258584
  C   -0.96225069092001      0.98647531806735     -0.85169631881693
  H   -0.79104608555093      1.99075191861252     -0.46312551398472
  H   -1.99721687922170      0.92102980522500     -1.19111266077250
  H   -0.32180316982313      0.82152105038472     -1.71748251374965
