16
Coordinates from ORCA-job run
  C   0.88308026714831     -0.07619313303618      0.48349178310123
  C   -0.57438122406085      0.09271224703215     -0.02935543178763
  Cl  1.52213247475860     -1.65773721209791     -0.06372202124083
  H   -0.96016958917520      0.99746827708311      0.44930308230925
  N   1.78718751755788      0.94404685908635      0.01611307944504
  H   1.84889344132230      0.94303098816742     -0.99398044176914
  H   1.51202859286805      1.85873029878223      0.35538704286675
  C   0.91317862904941     -0.05182225342511      1.95219454658049
  N   0.96526016630601      0.02779953093033      3.12292113008898
  N   -1.44147739682102     -1.00892663475987      0.51666844944928
  O   -1.68077019776209     -1.96573139729734     -0.21440180377499
  O   -1.83399632066839     -0.86422135047552      1.67341918092563
  C   -0.70046487008516      0.17028992551123     -1.53505341590144
  H   -0.25963446998734     -0.70064795742564     -2.01649879243982
  H   -1.75489823999229      0.21145304687482     -1.81058914489264
  H   -0.22596878045822      1.07974876504996     -1.90589724296017
