16
Coordinates from ORCA-job run
  C   0.69264492783467     -0.08984198147576      0.77805682760541
  C   -0.73953592706015     -0.02353896040013      0.20113784704016
  Cl  0.66510152262755     -0.89796462980643      2.38173115809367
  H   -1.41755085528553      0.21563581760740      1.02088484732445
  N   1.55635518927485     -0.84999517368660     -0.07602854914958
  H   2.51427263066369     -0.81144345964612      0.24924741409578
  H   1.50328026947415     -0.53867173091505     -1.03816041631741
  C   1.14103556022713      1.29406155927878      1.02967719633271
  N   1.51479518554447      2.40046617441400      1.16883903971581
  N   -1.12612176593766     -1.40728564364512     -0.24208373526768
  O   -1.68955336525614     -2.11652024671183      0.58596885904961
  O   -0.84816519140885     -1.72127494540306     -1.39647272908327
  C   -0.90032208940646      0.95286338204584     -0.94991081158077
  H   -0.74908523987397      1.97305118479575     -0.59608013185978
  H   -1.91187258680005      0.87434496010436     -1.35149085659058
  H   -0.20727826461771      0.74811369344397     -1.76531595940851
