16
Coordinates from ORCA-job run
  C   0.73919688567153      0.15098355106761      0.72538897208113
  C   -0.66010871758722     -0.16072023203710      0.13582659842128
  Cl  0.40645988218747      0.95136334471066      2.31219085238571
  H   -1.21565792534300     -0.71295459447435      0.89568479145672
  N   1.57212479391146     -0.98886830972846      0.96041229527056
  H   2.02593634548716     -1.30284477080397      0.11174003307763
  H   1.05684417135791     -1.74730339525638      1.39056262988300
  C   1.46777303234902      1.11120745869295     -0.10922659007998
  N   2.04714994896814      1.88545352885336     -0.77588869084683
  N   -0.44311898413563     -1.15043778200856     -0.96878431591554
  O   -0.81237701810904     -2.30615228340728     -0.76709089626253
  O   0.12528045082417     -0.74108761665720     -1.97893801520140
  C   -1.43039541116457      1.03265537566705     -0.38715671054336
  H   -0.88270818992183      1.51643757235164     -1.19604299814111
  H   -2.40321086449836      0.70983848005428     -0.76359329729239
  H   -1.59318839999720      1.75042967297576      0.41691534170712
