16
Coordinates from ORCA-job run
  C   0.70985075033237      0.06507154141497      0.70174854043443
  C   -0.69745819654350     -0.16788023840210      0.13173712412214
  Cl  0.47044580035074      0.92185037765912      2.26299715434153
  H   -1.26975319685244     -0.67956204518842      0.90702269313503
  N   1.33952902080839     -1.19855951145866      1.00367673907196
  H   1.66099754793183     -1.62256141756279      0.14002894061057
  H   2.14014598692727     -1.04754148490658      1.60654568244256
  C   1.50789465473882      0.96364191155503     -0.15037285317694
  N   2.17193075245638      1.66547100636113     -0.82001963250863
  N   -0.63620745007868     -1.14477645490665     -1.00895557021492
  O   0.40254208924561     -1.20273481437667     -1.66742476300359
  O   -1.66099405804276     -1.77905562519233     -1.22896055370259
  C   -1.40138003103215      1.07801413538772     -0.37585476562651
  H   -0.84817525910658      1.52053583104838     -1.20689302298310
  H   -2.40339417081709      0.81267078673735     -0.71499377223477
  H   -1.48797424031821      1.81441600183049      0.42271805929282
