16
Coordinates from ORCA-job run
  C   0.91592405215238      0.03327146386154      0.14340411756748
  C   -0.62325984992588     -0.04540428638271      0.06315242289809
  Cl  1.67281253350625     -0.43152924947341     -1.40476692847293
  H   -0.99540665950198      0.31765456691686      1.02522015172707
  N   1.25942134551906      1.41700114162614      0.40255972427684
  H   0.98343400996259      1.66040345191475      1.34943078766411
  H   2.26348468710084      1.53853179479404      0.32593845406059
  C   1.43746750990664     -0.88576752113454      1.17172846503904
  N   1.88975171086325     -1.53902828264194      2.03872317724498
  N   -1.05131631754620     -1.48520446688177      0.03095200110460
  O   -1.11073045153887     -2.03704188667524     -1.06415731466358
  O   -1.29855967736871     -2.00495890302486      1.11867289711806
  C   -1.22249679343168      0.72404785758126     -1.09181969007811
  H   -0.86084848652779      1.75104724244591     -1.06328862386169
  H   -0.94997037515102      0.26804545297887     -2.04079727199139
  H   -2.31070723801888      0.72193162409510     -1.00395236963315
