16
Coordinates from ORCA-job run
  C   0.82827201260694     -0.15076386568027      0.41314451774940
  C   -0.63749223066228      0.16998590097067      0.05288023075891
  Cl  1.30535394192848     -1.71943990594715     -0.40939324191765
  H   -0.95252248649593      0.95558925917227      0.74404368987235
  N   1.64219675856608      0.95428976682967      0.03374934521619
  H   2.57768160981822      0.86344629401257      0.41122412175854
  H   1.70167284114420      1.03040548939212     -0.97425552813921
  C   1.00213324737476     -0.37520654490255      1.85192613991880
  N   1.22169221762678     -0.50665079617275      2.99838585726352
  N   -1.50180165997007     -1.01272484758746      0.40086823688703
  O   -1.67146559852081     -1.21436325832066      1.60141786583978
  O   -1.96287757577153     -1.68343084784179     -0.51716986253938
  C   -0.83960622535773      0.58859285003892     -1.38613805365276
  H   -0.43666160225500     -0.14985014247750     -2.07837288902340
  H   -1.90516733452894      0.69197563726403     -1.59036565778360
  H   -0.37240791550318      1.56014501124986     -1.55194477220852
