16
Coordinates from ORCA-job run
  C   0.87784136072581     -0.12034544293064      0.27469216386736
  C   -0.61833367685449      0.10684225360034     -0.02785271147838
  Cl  1.63986054147428     -1.16297961391310     -0.95726258510821
  H   -0.97913756431007      0.80233129775694      0.73506214354521
  N   1.52629448062283      1.17422823720154      0.21685320524082
  H   1.22950869410932      1.73505761268492      1.01016571933717
  H   2.53182779567143      1.05423066321024      0.27413744514245
  C   1.05627834476455     -0.78937682808280      1.57651916016064
  N   1.25057888125684     -1.24353867297233      2.64380431995453
  N   -1.38331851175336     -1.15714120774253      0.24615058200913
  O   -1.47423019081675     -1.97606775973672     -0.66401792095630
  O   -1.85277527174135     -1.27584333808980      1.37747312842057
  C   -0.89679691714374      0.61680318776058     -1.42330651945895
  H   -0.65548501939485     -0.14097205593617     -2.16515631455665
  H   -1.95528837162888      0.86846692496984     -1.51374398386831
  H   -0.29782457498155      1.50830474221969     -1.60451783225108
