16
Coordinates from ORCA-job run
  C   0.87060776778028     -0.06673675357967      0.34314238019006
  C   -0.65297986729705     -0.00514981416044      0.10626757546469
  Cl  1.61617211998705     -1.17718473969741     -0.91170046227306
  H   -1.07903124090446      0.45202623187710      1.00271274311834
  N   1.39098806905893      1.25852066630905      0.30302832341586
  H   2.35063255011094      1.28094811377938      0.62673505156454
  H   1.35388963743951      1.63261795469154     -0.63734474498156
  C   1.19809964065548     -0.64787727087047      1.64926273747664
  N   1.52650844528434     -1.04852497056346      2.70353288411891
  N   -1.20760704357928     -1.40509113199099      0.09292080139608
  O   -1.23806440520192     -1.97710052204268      1.18039590305483
  O   -1.57784214323012     -1.87116418077903     -0.97991725184738
  C   -1.05140758464083      0.75060330056666     -1.14140844796122
  H   -0.54969759504734      0.35701395082603     -2.02472500795626
  H   -0.82331724279761      1.80970120363420     -1.01514199297963
  H   -2.12595110761792      0.65739796200020     -1.29776049180083
