16
Coordinates from ORCA-job run
  C   0.92467876832798     -0.10441639257039      0.39080955792863
  C   -0.58252253815556     -0.00470353404725      0.02405578690070
  Cl  1.74054540605616     -1.20759543533350     -0.76123704662298
  H   -1.05422269355422      0.55805984393965      0.83482006536048
  N   1.61898403485604      1.15739442892385      0.35149201182119
  H   1.24473528470654      1.80228074594222      1.03807332650132
  H   1.58716863357867      1.56433146915081     -0.57443637933709
  C   1.08506462709985     -0.65306913473533      1.74423873578399
  N   1.23350171038494     -1.03188903791276      2.84619026790572
  N   -1.22073572230203     -1.36476929840064      0.10209787647601
  O   -1.52254038653829     -1.75584162890346      1.22861468518626
  O   -1.38018039884958     -1.98402779010531     -0.94585615712662
  C   -0.85592975142953      0.63396054680020     -1.32003567938685
  H   -1.92527071905046      0.59521195660394     -1.53085000040973
  H   -0.55950412945850      1.68358881691720     -1.30458983778653
  H   -0.33477212567200      0.11348444373075     -2.12138721319449
