16
Coordinates from ORCA-job run
  C   0.84659375898282     -0.06628650170242      0.67614077340140
  C   -0.65935637370570     -0.04572539401589      0.29491525059423
  Cl  1.01035270858704     -1.22720066488137      2.05012801673402
  H   -1.23665565468569      0.25212260262127      1.17093211148600
  N   1.79494098224578     -0.40366717503671     -0.33661963404623
  H   1.99968657944821      0.38176027324369     -0.93974843526015
  H   1.48027677214779     -1.20260786399976     -0.87263811214011
  C   1.15714313638044      1.27382934235247      1.18865901802934
  N   1.36902742517103      2.36980524505366      1.55464099345944
  N   -1.12390701741112     -1.43641227432889     -0.00896101173005
  O   -2.07458182538345     -1.86558246236851      0.63526964575316
  O   -0.53378569437327     -2.03922316837106     -0.90635499396583
  C   -0.94760860707856      0.83633225371078     -0.90483070982685
  H   -2.01779984976953      0.82869156378404     -1.12068767079821
  H   -0.65099347804856      1.86573236686579     -0.69470068018758
  H   -0.41333286250722      0.47643185707291     -1.78414456150257
