16
Coordinates from ORCA-job run
  C   0.80028581906230      0.00939838187284      0.62153355612694
  C   -0.68948380986982     -0.00920720383698      0.23041799324023
  Cl  0.97265580254836     -1.12952404703418      2.06618347656646
  H   -1.27030477291861      0.30073462003118      1.09922351604121
  N   1.66500855248049     -0.27680096286962     -0.45537860122918
  H   1.45275565322282     -1.17821217238291     -0.86466121400130
  H   2.63782624876831     -0.21989962013057     -0.18323271267817
  C   1.09928897948800      1.34738748687780      1.14455093583511
  N   1.32238017626866      2.43188498671932      1.53749233345600
  N   -1.14057941795404     -1.41470351984398     -0.03741361364436
  O   -0.48936998405162     -2.07180816764112     -0.84937161741970
  O   -2.15507030305229     -1.79131108363295      0.53775861963720
  C   -0.99277847931389      0.83982637812488     -0.99073434970930
  H   -2.06520870635938      0.81367949518947     -1.19476342309932
  H   -0.70194457838816      1.87461002756236     -0.80246744570966
  H   -0.44446117993114      0.47394540099447     -1.85713745341217
