16
Coordinates from ORCA-job run
  C   0.79998804067616      0.01345561009103      0.62141764497757
  C   -0.68970691260539     -0.00218407740907      0.22936404107196
  Cl  0.96549329899380     -1.10953394235692      2.07953535482906
  H   -1.26961317606691      0.32380101726435      1.09290175928226
  N   1.66326959731326     -0.29017991408642     -0.45135698098327
  H   1.44669174914600     -1.19537387228354     -0.84981205176797
  H   2.63643229019534     -0.23365945777206     -0.18107521148789
  C   1.10544919161193      1.35545988078131      1.13002472087989
  N   1.33231173681475      2.44241334093422      1.51352758279958
  N   -1.14862313157245     -1.40862202725970     -0.01837507931600
  O   -2.16523907040466     -1.77125823271104      0.56201869374818
  O   -0.50067048498944     -2.08119827509529     -0.82016062263932
  C   -0.98688938907143      0.83117075343325     -1.00407546136790
  H   -0.68473755660559      1.86560838586163     -0.83211739799166
  H   -2.05996456051383      0.81330400323197     -1.20580300480444
  H   -0.44419162292154      0.44679680737628     -1.86601398723005
