16

C	-0.479591	-0.006486	-1.456567
C	0.0	0.0	0.0
F	-0.083386	1.199805	-2.014678
H	1.093212	0.0	0.0
C	0.096143	-1.083548	-2.281018
N	0.531703	-1.886119	-3.021378
C	-1.955988	-0.05019	-1.544702
N	-3.127133	0.019709	-1.611645
N	-0.445517	-1.251166	0.670155
O	-0.944492	-2.138743	-0.030075
O	-0.276738	-1.327605	1.88105
C	-0.496985	1.206473	0.771072
H	-1.586515	1.213817	0.868931
H	-0.044129	1.187425	1.760803
H	-0.166851	2.110681	0.261151
Cl	3.189148	0.0	0.0
