16

C	-0.496359	-0.06987	-1.44084
C	0.0	0.0	0.0
F	-1.888063	-0.144693	-1.463811
H	1.093112	0.0	0.0
C	-0.128212	1.1764	-2.143174
N	0.101168	2.17327	-2.720776
C	0.031294	-1.194235	-2.234633
N	0.400158	-2.015517	-2.98823
N	-0.433394	-1.235092	0.727894
O	-0.435183	-1.184358	1.952949
O	-0.729029	-2.229908	0.068462
C	-0.495506	1.234995	0.728342
H	-0.112494	1.213413	1.745826
H	-0.097612	2.125462	0.240716
H	-1.586456	1.283608	0.751007
Cl	3.179844	0.0	0.0
