16

C	-0.460273	0.047823	-1.459095
C	0.0	0.0	0.0
F	-0.052612	-1.094641	-2.109879
H	1.091727	0.0	0.0
C	-1.923565	0.196267	-1.63277
N	-3.066784	0.401187	-1.809472
C	0.161346	1.21285	-2.120343
N	0.629209	2.127901	-2.688643
N	-0.464741	-1.273887	0.624375
O	0.263372	-1.761321	1.479832
O	-1.571203	-1.708327	0.295169
C	-0.527784	1.152808	0.833541
H	-0.179998	2.09666	0.41078
H	-0.113862	1.068309	1.839858
H	-1.620325	1.152307	0.882538
Cl	3.269603	0.0	0.0
