16

C	-0.478061	0.00484	-1.457971
C	0.0	0.0	0.0
F	-0.076872	1.211483	-2.00893
H	1.093189	0.0	0.0
C	0.101554	-1.07414	-2.273066
N	0.546585	-1.909769	-2.967476
C	-1.953582	-0.036223	-1.54961
N	-3.124962	0.017577	-1.620491
N	-0.45147	-1.251424	0.665
O	-0.952163	-2.133866	-0.039349
O	-0.286711	-1.333068	1.876998
C	-0.495029	1.204367	0.776478
H	-0.163286	2.111098	0.271442
H	-1.585335	1.212536	0.873832
H	-0.043176	1.180807	1.766956
Cl	3.19525	0.0	0.0
