16

C	-0.481668	-0.017652	-1.457825
C	0.0	0.0	0.0
F	-0.134124	1.205813	-2.010497
H	1.093229	0.0	0.0
C	0.129483	-1.06648	-2.290388
N	0.58698	-1.874366	-3.008469
C	-1.954416	-0.118879	-1.540947
N	-3.127769	-0.121311	-1.599109
N	-0.439717	-1.252266	0.675118
O	-0.334431	-1.299577	1.894944
O	-0.863582	-2.171195	-0.032293
C	-0.502899	1.209553	0.760921
H	-0.161061	2.11172	0.255626
H	-0.067406	1.191111	1.75844
H	-1.593849	1.221412	0.842972
Cl	3.189943	0.0	0.0
