15

C	0.0	0.0	0.0
C	-0.626826	-0.233763	-1.379241
Cl	1.783497	0.0	0.0
H	-1.634888	0.185298	-1.278223
H	-0.340479	-0.775279	0.686208
C	-0.379314	1.313971	0.534467
N	-0.610356	2.375233	0.979916
N	-0.691951	-1.68251	-1.594689
H	-1.541654	-1.990826	-1.125565
H	-0.849599	-1.846301	-2.582963
C	0.1123	0.460173	-2.506633
H	1.069522	-0.025893	-2.706015
H	0.29378	1.511787	-2.272807
H	-0.499124	0.419437	-3.412719
Br	-3.768766	0.0	0.0
