15

C	0.0	0.0	0.0
C	-0.519468	0.269373	-1.413428
Cl	1.793079	0.0	0.0
H	-1.602451	0.137005	-1.316616
H	-0.332384	-0.991365	0.306292
C	-0.416901	1.000435	0.98099
N	-0.642849	1.803136	1.807902
N	-0.005146	-0.787452	-2.283655
H	0.904	-0.524467	-2.648622
H	-0.636198	-0.892839	-3.068676
C	-0.228608	1.68753	-1.886687
H	0.84524	1.897134	-1.894363
H	-0.726404	2.423738	-1.251806
H	-0.608538	1.81129	-2.903973
Br	-3.689959	0.0	0.0
