15

C	0.0	0.0	0.0
C	-0.511652	1.095317	-1.023088
Cl	1.790463	0.0	0.0
H	0.387079	1.654116	-1.303704
H	-0.334516	-1.002158	-0.274339
C	-0.417889	0.282717	1.369293
N	-0.67938	0.541939	2.484171
N	-1.474797	2.049974	-0.533241
H	-2.352108	1.574554	-0.304771
H	-1.12751	2.507781	0.30265
C	-1.067003	0.380081	-2.246834
H	-1.340286	1.121105	-2.999889
H	-1.969496	-0.166499	-1.96267
H	-0.328978	-0.310572	-2.668755
Br	-4.12349	0.0	0.0
