15

C	0.0	0.0	0.0
C	-0.545678	0.275261	-1.416586
Cl	1.790928	0.0	0.0
H	-1.628765	0.336745	-1.261961
H	-0.343027	-0.978796	0.336482
C	-0.403147	1.020276	0.969194
N	-0.608768	1.878473	1.744126
N	-0.297565	-0.823454	-2.337935
H	-0.901554	-1.599975	-2.091975
H	0.667219	-1.131116	-2.274088
C	-0.037998	1.584319	-1.996536
H	-0.58174	1.776661	-2.92258
H	-0.210633	2.416315	-1.309357
H	1.029601	1.537069	-2.229321
Br	-3.719126	0.0	0.0
