19

C	0.0	0.0	0.0
C	-0.256179	-0.06314	-1.568388
Cl	1.752929	0.0	0.0
H	0.53494	0.599076	-1.928755
N	-0.431768	1.352041	0.56675
O	-0.763715	1.47181	1.729835
O	-0.275821	2.276269	-0.227521
N	-0.426586	-1.163389	0.870902
O	-0.230005	-1.034559	2.073045
O	-0.782364	-2.195749	0.325283
C	-1.522098	0.471329	-2.231203
H	-1.285782	0.563281	-3.304491
H	-1.80001	1.447912	-1.848315
H	-2.361007	-0.194722	-2.071763
C	0.048185	-1.446504	-2.158687
H	-0.808058	-2.106402	-2.038119
H	0.919284	-1.932178	-1.716848
H	0.244164	-1.316206	-3.228733
F	-2.272871	0.0	0.0
