19

C	0.0	0.0	0.0
C	-0.243162	-0.025115	-1.5637
Cl	1.795153	0.0	0.0
H	0.571083	0.615171	-1.911898
N	-0.39504	1.350625	0.59858
O	-0.202684	2.288667	-0.171349
O	-0.749209	1.453358	1.756816
N	-0.404466	-1.176655	0.861499
O	-0.73312	-2.212869	0.304506
O	-0.222082	-1.051762	2.066538
C	-1.487861	0.573064	-2.213294
H	-2.347852	-0.071562	-2.080481
H	-1.243883	0.695646	-3.280756
H	-1.73671	1.544044	-1.798518
C	0.012067	-1.404484	-2.182072
H	0.876424	-1.91937	-1.759501
H	0.194139	-1.260459	-3.253501
H	-0.860378	-2.041735	-2.057024
F	-2.230607	0.0	0.0
