14

C	0.0	0.0	0.0
C	-0.500385	0.202127	-1.428326
F	1.347101	0.0	0.0
H	-1.581267	0.394698	-1.31275
H	-0.376257	0.822887	0.63074
N	-0.600838	-1.197334	0.591915
O	-1.767126	-1.439289	0.033783
O	-0.363801	-1.356355	1.814692
N	-0.184551	-0.958753	-2.271024
H	-0.740645	-1.707447	-1.864897
H	-0.565526	-0.780453	-3.195801
C	0.132422	1.400309	-1.987843
N	0.629518	2.362413	-2.4419
H	-2.828129	0.0	0.0
