14

C	0.0	0.0	0.0
C	-0.428306	0.092882	-1.469795
F	1.351533	0.0	0.0
H	-1.513001	0.249039	-1.463946
H	-0.39174	0.846593	0.586204
N	-0.593813	-1.178959	0.628545
O	-0.368779	-1.289889	1.857809
O	-1.756278	-1.42803	0.068593
N	-0.121196	-1.098249	-2.261845
H	-0.721244	-1.815056	-1.868683
H	0.838851	-1.36793	-2.07274
C	0.206963	1.265731	-2.088099
N	0.689651	2.208525	-2.594498
H	-2.790984	0.0	0.0
