14

C	0.0	0.0	0.0
C	-0.434343	-0.070852	-1.458909
F	1.352667	0.0	0.0
H	-1.530448	-0.135605	-1.432924
H	-0.390135	0.918564	0.465725
N	-0.599903	-1.080621	0.78505
O	-1.764442	-1.404454	0.298459
O	-0.323427	-1.040335	2.011581
N	0.151291	-1.241691	-2.099471
H	-0.220201	-1.34017	-3.035995
H	1.155215	-1.124428	-2.167586
C	-0.052261	1.192213	-2.130741
N	0.258958	2.155941	-2.728005
H	-2.825106	0.0	0.0
