16
Coordinates from ORCA-job run
  C   -0.45859397543303      0.38476705312717      0.26549558767459
  C   0.97398011812534      0.26333815526259     -0.21767458803359
  F   -0.46543744042227      0.51326854488846      1.62705310972329
  H   0.97042588268578      0.28967096684739     -1.30919339296446
  H   1.50225309604167      1.15669745901703      0.13198054780480
  N   -1.01109508907123      1.69187887909062     -0.29554004907837
  O   -1.28391604152707      2.59215552348544      0.48602378500350
  O   -1.12599083026962      1.72456530130672     -1.51799818778782
  C   -1.40492061638008     -0.72233303842619     -0.12917511014050
  H   -1.09236685198642     -1.65055620671079      0.34912196748996
  H   -1.41665711382382     -0.85088759938373     -1.21036040837304
  H   -2.41188440477917     -0.47969442610016      0.21568913686089
  C   1.66663828123685     -0.99140451419684      0.30312180647675
  H   1.60042246976674     -1.05009384080485      1.39052521978453
  H   1.23455500319002     -1.89942674073358     -0.12126524794176
  H   2.72358751264631     -0.97294551666929      0.03119582350123
