16
Coordinates from ORCA-job run
  C   -0.47953869863777      0.36935745007023      0.24962127770154
  C   0.98083424451825      0.28292942723951     -0.15103229344074
  F   -0.56901831915984      0.45089982564314      1.61187410039337
  H   1.04128303971248      0.34377845174289     -1.23948760714511
  H   1.47381462437716      1.17180386735991      0.25674881456779
  N   -1.01694638776247      1.68773776772127     -0.29904790035338
  O   -1.34826083069043      2.55743544262218      0.49450818355727
  O   -1.05958857622046      1.76103817990771     -1.52447636662272
  C   -1.38402167297757     -0.73580823343965     -0.23775229865525
  H   -2.41276758593349     -0.51953646975560      0.05671153659455
  H   -1.08470819510919     -1.67611592369652      0.22518980232141
  H   -1.33171537980522     -0.82567489533040     -1.32161932896174
  C   1.66063989640333     -0.97833770716157      0.37112167201268
  H   1.52801141659116     -1.07444478434414      1.44972839692900
  H   1.27097693742066     -1.87781648260571     -0.10889394751703
  H   2.73200548727339     -0.93524591597326      0.16680595861837
