16
Coordinates from ORCA-job run
  C   -0.54229937416201      0.12276757907787      0.29005936168308
  C   0.67237333022987     -0.74465985371754      0.02848695459996
  F   -0.47582940959339      0.62809274139210      1.55899391287680
  H   0.62559117934908     -1.56312789111913      0.75379065973587
  H   0.57389032836869     -1.17776662795644     -0.96904480474751
  N   -0.46295838769341      1.31524743857366     -0.65562868357148
  O   -0.53367116688917      1.03281881496998     -1.84895579230825
  O   -0.31632588488164      2.43175747093785     -0.17884518671524
  C   -1.87972224245264     -0.54689434710864      0.09402648705133
  H   -2.68047509803909      0.16048033816779      0.31852723019203
  H   -1.98470235557180     -0.90016697632809     -0.93035695304625
  H   -1.95515179912203     -1.39020962198329      0.78239579930891
  C   1.98705552040273      0.01645536140871      0.16495355677122
  H   2.04406282627022      0.52876548832792      1.12610065301704
  H   2.83044940470619     -0.67253597637125      0.09431406523712
  H   2.09971312907842      0.75897606172851     -0.62781726008465
