16
Coordinates from ORCA-job run
  C   -0.64962793293946      0.30526571327614      0.41474114378928
  C   0.75797470889477     -0.07580360453412      0.82972842632154
  F   -1.29332468008107      0.82772542450494      1.50928794190542
  H   0.66008389268476     -0.89169751016908      1.55247080154450
  H   1.16441025558835      0.78639745963902      1.36592480254578
  N   -0.51895706980282      1.46112104578231     -0.57270949798776
  O   -0.63368652510032      1.19615358670859     -1.76726845154384
  O   -0.24109484520488      2.55569921888270     -0.09764716777278
  C   -1.50439388664222     -0.78678895682093     -0.17034734180160
  H   -2.48450766144672     -0.38699790741227     -0.43271417513574
  H   -1.63098760561023     -1.56017391429553      0.58946925182123
  H   -1.05541265492448     -1.21912294626629     -1.06085157789735
  C   1.67324354793600     -0.47500146384676     -0.32264295846327
  H   2.65009926232701     -0.76617298489774      0.06736474866319
  H   1.82899646669483      0.35119473286045     -1.01835891445581
  H   1.27618472762648     -1.32079789341143     -0.88644703153278
