16
Coordinates from ORCA-job run
  C   -0.64055058543272      0.31225762540969      0.42420643469977
  C   0.76920833679669     -0.08379928620173      0.81792677216026
  F   -1.26194002026955      0.84067780794377      1.52854177430901
  H   0.67313118064179     -0.89962068944293      1.54107302089190
  H   1.19238148236759      0.77327436465336      1.34940560966833
  N   -0.51274556561803      1.46649077966321     -0.56504865381718
  O   -0.22492026949198      2.56019094887694     -0.09400673538591
  O   -0.63903012142288      1.20006465128352     -1.75814611898539
  C   -1.51521165117230     -0.77075170777903     -0.14834557182651
  H   -2.49383449484169     -0.36018243136663     -0.39944804982645
  H   -1.64143455750958     -1.54166003799323      0.61401986863642
  H   -1.08185894725116     -1.20932677407210     -1.04356161664725
  C   1.66418238594221     -0.49218945066434     -0.34704282286533
  H   1.81928258106886      0.33214929366025     -1.04505856572739
  H   2.64303285319474     -0.79392905252782      0.02972852083815
  H   1.25030739299802     -1.33364604144293     -0.90524386612244
