15
Coordinates from ORCA-job run
  C   0.70187878931820      0.03682112761978     -0.67299792988229
  C   -0.72755128485340      0.30356659193160     -0.18763365544904
  F   0.64539908361678     -0.43190374446092     -1.94338112449778
  H   -1.20871695628109      1.00146731004629     -0.87385183007341
  N   1.41226862087322     -1.05520568570258      0.13982442636703
  O   0.77422111946895     -2.09273510803710      0.23981985215777
  O   2.54037257315081     -0.81421320783717      0.53565412481800
  C   1.47726350222849      1.27567739339344     -0.62298740650563
  N   2.03722888117496      2.30901802216483     -0.64835361454065
  N   -0.73061903432058      0.90605510880976      1.17514858238803
  O   0.21647885933680      0.61934781739247      1.90250308847824
  O   -1.70148948475260      1.60177017241680      1.44393429034871
  N   -1.60242565011803     -0.93684660306600     -0.15915734764354
  O   -1.90604131919679     -1.35589455228884     -1.26481570176049
  O   -1.92726769964571     -1.36692464238236      0.93529424579505
