15
Coordinates from ORCA-job run
  C   0.68590862593753     -0.18317623556441     -0.53795294040800
  C   -0.58910813968048     -0.38755452670083      0.27285323925413
  F   0.68282388438340     -1.12596978162986     -1.52018883947592
  H   -0.53262963602720     -1.32957935814652      0.81782131534296
  N   1.90032575965519     -0.53557542591446      0.35127672378978
  O   2.89089718586998      0.16705619851840      0.24427042637759
  O   1.75951712304966     -1.54787117162309      1.02240540315129
  C   0.86095357920898      1.14902259027624     -1.10041819148826
  N   1.00954377779200      2.21393279710936     -1.57507157727286
  N   -1.78077158814983     -0.43661956264651     -0.62929739798893
  O   -1.90584201877965      0.50562228075514     -1.40310622661113
  O   -2.51825121387138     -1.40539107263316     -0.49342683655707
  N   -0.78403587381648      0.72129374716252      1.26563734856642
  O   -1.93271819128769      0.99456367553178      1.57613198999888
  O   0.25438672571597      1.20124584550540      1.70806556332110
