15
Coordinates from ORCA-job run
  C   0.68805275754281     -0.13146546225838     -0.58614364325530
  C   -0.59962873097050     -0.46530543017051      0.16248300132707
  F   0.75919609568436     -0.96215270446311     -1.66027109849116
  H   -0.66293487214485     -1.53698419960218      0.33735876311618
  N   1.87403441513662     -0.51623657954813      0.31675721554970
  O   1.73807575348697     -1.59329216902849      0.88338957800313
  O   2.84105023195635      0.22556935825061      0.32824283068893
  C   0.80610169600076      1.25479930610440     -1.02062776706760
  N   0.87366196797339      2.33777999786447     -1.47341842975403
  N   -1.78078701120296     -0.04957416222659     -0.67471443236659
  O   -2.20646823032479     -0.90924072417390     -1.43529476050509
  O   -2.16505020233607      1.10550829812836     -0.53921653824671
  N   -0.69236704155617      0.24315569125344      1.47301947537374
  O   0.15427846077778      1.10156511944162      1.70729555647984
  O   -1.62821529002372     -0.10412633957160      2.18014024914790
