15
Coordinates from ORCA-job run
  C   0.61050186690420     -0.33357077607055     -0.51062224995819
  C   -0.53224518149032      0.38327784708433      0.20555213385793
  F   0.32033513817642     -1.62296185226667     -0.73910196176217
  H   -0.38251535779328      1.45988559829828      0.23818002523662
  N   1.86423184011677     -0.25054164792583      0.38988444934764
  O   2.03971067769385      0.85075689667061      0.89126832362359
  O   2.54835115887814     -1.24989964411403      0.46586307616833
  C   0.95507840520226      0.34934472494647     -1.75884970096339
  N   1.25447275591570      0.89574914377067     -2.75584619723610
  N   -0.73589365887538     -0.09619663568578      1.61021387647642
  O   -0.12840868848659     -1.09783940238989      1.96893229820013
  O   -1.52710133821422      0.57704707442432      2.25717079857706
  N   -1.80449868936534      0.10896114083801     -0.56116055243478
  O   -2.51101013978269     -0.80512984170888     -0.16338921583034
  O   -1.97100878887952      0.83011737412894     -1.53709510330275
