15
Coordinates from ORCA-job run
  C   0.66564765386923      0.05693126809501     -0.70733049796661
  C   -0.72977773174746      0.32792607783379     -0.13313078397818
  F   0.53202629932665     -0.34578020244042     -1.99415574594981
  H   -1.23076418708509      1.06947523457732     -0.75650861665420
  N   1.39288298102355     -1.08871646732513      0.01182148795083
  O   0.73526057712128     -2.11470141515538      0.10176517696241
  O   2.54802501511605     -0.89288724940615      0.35053175864323
  C   1.47180508861677      1.27505628409642     -0.63785772523249
  N   2.05539870644541      2.29559680347137     -0.63776638103415
  N   -0.64732218302967      0.85937882491267      1.25619012160056
  O   -1.58448330503000      1.56306912430542      1.61019508714267
  O   0.32881138778410      0.51454920407268      1.91693938916886
  N   -1.63057581483666     -0.89490084910192     -0.12012168744579
  O   -1.99833594230956     -1.25239066585044     -1.22785431523492
  O   -1.90859854526460     -1.37260597208525      0.96728273202756
