17

C	0.0	0.0	0.0
C	-0.268926	-0.086763	-1.556327
Br	1.951999	0.0	0.0
H	0.237473	0.807864	-1.933686
N	-0.643194	1.082161	0.625076
H	-0.443563	1.929805	0.104343
H	-1.672395	0.83682	0.524002
N	-0.442752	-1.250495	0.76785
O	-1.137658	-2.060758	0.173997
O	-0.092869	-1.311098	1.940575
N	-1.588248	-0.192227	-2.033067
H	-2.2871	-0.27767	-1.241097
H	-1.814611	0.627241	-2.576419
N	0.564414	-1.183929	-2.272768
O	0.73264	-2.286126	-1.765948
O	0.938784	-0.86742	-3.402885
F	-3.002199	0.0	0.0
