17

C	0.0	0.0	0.0
C	-0.407996	-0.00619	-1.519362
Br	1.980015	0.0	0.0
H	-1.4901	0.159903	-1.538866
N	-0.347987	1.152204	0.815931
H	-0.260732	0.940999	1.789669
H	0.056295	1.997037	0.478034
N	-0.426781	-1.345515	0.760502
O	0.246793	-1.633041	1.749604
O	-1.494731	-1.967916	0.511638
N	-0.129891	-1.214401	-2.21435
H	0.835921	-1.483348	-2.089432
H	-0.737458	-1.930498	-1.829753
N	0.074641	1.198461	-2.263912
O	-0.087263	2.283777	-1.70386
O	0.431447	1.069845	-3.427611
F	-2.031939	0.0	0.0
