19

C	-0.4854	-0.020383	-1.449773
C	0.0	0.0	0.0
Cl	0.151108	1.567431	-2.236177
H	1.094064	0.0	0.0
C	0.151667	-1.123917	-2.267755
H	-0.087284	-1.000444	-3.327216
H	1.235239	-1.095405	-2.138484
H	-0.237631	-2.088197	-1.93578
N	-1.904418	-0.053548	-1.488421
H	-2.247336	0.122568	-2.424252
H	-2.246194	0.662639	-0.855217
C	-0.453734	-1.247963	0.749302
H	-0.048057	-1.211792	1.765269
H	-0.060179	-2.15325	0.286426
H	-1.542898	-1.308492	0.796297
N	-0.574495	1.178949	0.672639
H	-0.381031	1.082154	1.663655
H	-0.042734	1.987079	0.365421
Br	3.686519	0.0	0.0
