19

C	-0.27423	-0.032339	-1.506223
C	0.0	0.0	0.0
Cl	-2.050793	-0.322982	-1.846661
H	1.105767	0.0	0.0
C	0.075237	1.301285	-2.147442
H	-0.074384	1.249451	-3.22919
H	-0.541262	2.101499	-1.738409
H	1.132322	1.502584	-1.943505
N	0.458561	-1.154327	-2.050958
H	1.41692	-1.091374	-1.705427
H	0.482474	-1.082952	-3.06221
C	-0.511793	-1.22864	0.725319
H	-1.596657	-1.166377	0.854358
H	-0.279274	-2.13059	0.160367
H	-0.035908	-1.296537	1.70801
N	-0.519947	1.229563	0.609796
H	0.242561	1.896311	0.668408
H	-0.79031	1.02375	1.564241
Br	3.605411	0.0	0.0
