19

C	-0.384352	0.044101	-1.485191
C	0.0	0.0	0.0
Cl	0.0351	-1.612882	-2.241533
H	1.104805	0.0	0.0
C	-1.861895	0.243836	-1.757749
H	-2.188196	1.161957	-1.269168
H	-2.039905	0.309433	-2.83487
H	-2.441434	-0.594364	-1.369463
N	0.396242	1.075622	-2.079416
H	0.270493	1.100988	-3.08424
H	1.382484	0.927759	-1.865315
C	-0.535007	-1.173991	0.793189
H	-0.160119	-2.120367	0.406851
H	-1.628851	-1.181315	0.795716
H	-0.195777	-1.082244	1.829242
N	-0.512659	1.251362	0.601438
H	-0.104692	1.307146	1.530553
H	-0.095395	2.012139	0.072498
Br	3.669283	0.0	0.0
