19

C	-0.481609	-0.021254	-1.450951
C	0.0	0.0	0.0
Cl	0.156268	1.56349	-2.238935
H	1.099397	0.0	0.0
C	0.150998	-1.128438	-2.267151
H	-0.084099	-1.00356	-3.327136
H	-0.245105	-2.089394	-1.93643
H	1.233339	-1.106319	-2.134685
N	-1.900299	-0.050089	-1.492261
H	-2.239835	0.126881	-2.42986
H	-2.240309	0.668852	-0.86023
C	-0.453052	-1.246479	0.75281
H	-0.057583	-1.202816	1.772305
H	-1.541961	-1.314791	0.789037
H	-0.049056	-2.151179	0.298421
N	-0.577939	1.179046	0.66695
H	-0.039754	1.98813	0.371713
H	-0.405985	1.07827	1.661614
Br	3.703531	0.0	0.0
