19

C	-0.365436	0.179435	-1.481729
C	0.0	0.0	0.0
Cl	-0.052978	-1.447819	-2.358764
H	1.095785	0.0	0.0
C	-1.822582	0.497881	-1.755488
H	-2.089591	1.413186	-1.227972
H	-1.98182	0.627081	-2.829826
H	-2.465442	-0.312803	-1.410678
N	0.488371	1.195334	-1.988155
H	0.38745	1.306179	-2.989169
H	1.460828	0.985231	-1.761557
C	-0.552186	-1.231341	0.686106
H	-0.268579	-1.20223	1.742788
H	-1.644704	-1.258006	0.630445
H	-0.140163	-2.143645	0.257867
N	-0.501638	1.204177	0.699948
H	-0.059552	1.998572	0.245877
H	-0.106951	1.173023	1.635666
Br	3.652522	0.0	0.0
