19

C	-0.385737	0.031823	-1.475851
C	0.0	0.0	0.0
Cl	-2.279722	0.404648	-1.540295
H	1.097102	0.0	0.0
C	0.27879	1.177862	-2.199875
H	0.016538	2.115025	-1.715728
H	-0.028503	1.204516	-3.249544
H	1.359337	1.023494	-2.125309
N	-0.128503	-1.192546	-2.117515
H	-0.647114	-1.958865	-1.712878
H	-0.315798	-1.138412	-3.109627
C	-0.475539	-1.251108	0.731559
H	-0.181693	-1.173749	1.781011
H	-0.001588	-2.152698	0.335638
H	-1.565476	-1.352973	0.68162
N	-0.397271	1.252693	0.639175
H	0.240642	1.427946	1.40668
H	-1.339248	1.175878	1.00711
Br	3.64492	0.0	0.0
