19

C	-0.232186	-0.028786	-1.521198
C	0.0	0.0	0.0
Cl	-2.030848	-0.156514	-1.890551
H	1.100888	0.0	0.0
C	0.250063	1.25625	-2.179876
H	0.14379	1.181466	-3.265659
H	-0.310333	2.128927	-1.843181
H	1.309005	1.377827	-1.928568
N	0.408489	-1.21101	-2.046024
H	0.490677	-1.132719	-3.054598
H	1.353005	-1.237788	-1.658163
C	-0.525073	-1.234792	0.710369
H	-0.235919	-2.146757	0.188335
H	-0.115833	-1.246626	1.72198
H	-1.617006	-1.20207	0.777358
N	-0.468347	1.198265	0.680426
H	0.143257	1.975944	0.466501
H	-1.4067	1.427891	0.369375
Br	3.599763	0.0	0.0
