15

C	0.0	0.0	0.0
C	-0.555411	0.229041	-1.404344
F	1.383249	0.0	0.0
H	-1.583829	0.593333	-1.265526
H	-0.33307	-0.988953	0.32785
C	-0.454395	1.070965	0.966322
H	-1.54249	1.057963	1.043067
H	-0.118491	2.051417	0.615959
H	-0.011959	0.887222	1.94839
N	-0.525443	-1.022935	-2.17878
H	-0.781622	-0.809094	-3.137493
H	-1.295184	-1.577706	-1.808686
C	0.217546	1.266177	-2.093523
N	0.805997	2.107747	-2.662564
Br	-3.827003	0.0	0.0
