15

C	0.0	0.0	0.0
C	-0.551815	-0.109924	-1.419364
F	1.384057	0.0	0.0
H	-1.590981	0.247124	-1.36412
H	-0.331585	-0.883884	0.552583
C	-0.458553	1.26827	0.682469
H	-1.546438	1.270803	0.757155
H	-0.018993	1.325935	1.680953
H	-0.124109	2.138855	0.110869
N	-0.480147	-1.502986	-1.893012
H	-1.238591	-1.982277	-1.412753
H	-0.729675	-1.516775	-2.877114
C	0.196714	0.769164	-2.321453
N	0.763765	1.487988	-3.056609
Br	-3.831751	0.0	0.0
