15

C	0.0	0.0	0.0
C	-0.351593	-0.271061	-1.483276
F	1.390989	0.0	0.0
H	0.193379	0.503601	-2.039183
H	-0.331881	-0.831765	0.629051
C	-0.549073	1.308234	0.500322
H	-0.179823	1.506886	1.509143
H	-0.23673	2.12892	-0.152618
H	-1.640798	1.254884	0.52883
N	-1.730519	-0.245293	-1.912831
H	-2.103237	0.692661	-1.835561
H	-2.338852	-0.790263	-1.306478
C	0.259135	-1.558889	-1.870605
N	0.71446	-2.596026	-2.177348
Br	-4.42926	0.0	0.0
