15

C	0.0	0.0	0.0
C	-0.350601	-0.239626	-1.488313
F	1.390808	0.0	0.0
H	0.224145	0.524451	-2.028598
H	-0.332016	-0.843672	0.61295
C	-0.549506	1.297942	0.527047
H	-0.247591	2.131262	-0.114707
H	-0.172716	1.480867	1.535966
H	-1.640781	1.237822	0.563597
N	-1.724098	-0.162963	-1.926598
H	-2.061678	0.788282	-1.847881
H	-2.356017	-0.689666	-1.327278
C	0.224955	-1.539103	-1.888834
N	0.678797	-2.579255	-2.188025
Br	-4.417463	0.0	0.0
