15

C	0.0	0.0	0.0
C	-0.494543	-0.136238	-1.437156
F	1.395246	0.0	0.0
H	-1.588421	-0.033453	-1.390635
H	-0.330748	-0.889764	0.544364
C	-0.467788	1.260318	0.684636
H	-0.075625	1.290763	1.704092
H	-0.099524	2.136212	0.14462
H	-1.558528	1.268175	0.712077
N	-0.1689	-1.415363	-2.068982
H	0.766064	-1.688538	-1.78503
H	-0.82293	-2.105584	-1.717558
C	0.049737	0.957093	-2.257479
N	0.503236	1.827577	-2.901062
Br	-3.830686	0.0	0.0
