14

C	-0.535644	0.018807	-1.422603
C	0.0	0.0	0.0
F	-0.016019	1.078664	-2.075881
H	1.091984	0.0	0.0
H	-1.622865	0.05618	-1.463952
N	-0.134436	-1.249955	-2.140575
O	0.7562	-1.191603	-2.971299
O	-0.791176	-2.236917	-1.817434
C	-0.519547	-1.098842	0.80025
N	-0.938514	-1.951615	1.491497
N	-0.47651	1.279626	0.663703
O	-1.602895	1.674934	0.359827
O	0.276733	1.79539	1.475227
Br	3.328143	0.0	0.0
