14

C	-0.589293	-0.073121	-1.396262
C	0.0	0.0	0.0
F	-1.948169	-0.041294	-1.339615
H	1.093423	0.0	0.0
H	-0.261041	-0.995577	-1.877792
N	-0.127054	1.035116	-2.322123
O	-0.960475	1.843637	-2.704454
O	1.050606	0.964266	-2.639999
C	-0.474392	-1.159245	0.74629
N	-0.84298	-2.135204	1.285469
N	-0.414148	1.263136	0.70011
O	-0.289896	2.293244	0.046831
O	-0.784116	1.183268	1.866019
Br	3.286867	0.0	0.0
