14

C	-0.591855	-0.079297	-1.394619
C	0.0	0.0	0.0
F	-1.95016	-0.025813	-1.336291
H	1.09344	0.0	0.0
H	-0.280069	-1.012178	-1.866694
N	-0.112753	1.010685	-2.333135
O	1.065575	0.921397	-2.643133
O	-0.934205	1.823541	-2.731047
C	-0.474962	-1.15196	0.75645
N	-0.827343	-2.117945	1.323761
N	-0.41208	1.270609	0.689862
O	-0.779732	1.202075	1.856816
O	-0.288304	2.293651	0.025787
Br	3.287537	0.0	0.0
