14

C	-0.386655	-0.03375	-1.471387
C	0.0	0.0	0.0
F	0.033069	-1.193817	-2.015226
H	1.092537	0.0	0.0
H	0.025331	0.822576	-2.002392
N	-1.894461	0.032992	-1.623176
O	-2.374978	1.159779	-1.51993
O	-2.503728	-1.012631	-1.809319
C	-0.565861	-1.111123	0.740398
N	-1.029718	-2.010353	1.336814
N	-0.398693	1.320057	0.59481
O	0.016947	2.308091	-0.001618
O	-1.062123	1.318749	1.628666
Br	3.269508	0.0	0.0
