18

C	-0.455389	-0.042055	-1.474454
C	0.0	0.0	0.0
Cl	0.187724	1.386537	-2.365723
H	1.092062	0.0	0.0
C	0.17939	-1.27398	-2.107023
H	-0.002224	-1.269221	-3.184344
H	-0.247706	-2.1843	-1.67912
H	1.25547	-1.255152	-1.911396
C	-1.969245	-0.018662	-1.611462
H	-2.249355	-0.065212	-2.667221
H	-2.386635	0.894819	-1.182732
H	-2.40037	-0.877961	-1.090241
C	-0.466449	-1.20252	0.66741
N	-0.774293	-2.231814	1.148149
N	-0.490736	1.178	0.737299
O	-1.38005	1.024166	1.589468
O	0.048787	2.255559	0.477975
H	2.545494	0.0	0.0
