18

C	-0.452805	0.004872	-1.464114
C	0.0	0.0	0.0
Cl	0.380214	1.339376	-2.359629
H	1.095146	0.0	0.0
C	0.04735	-1.290693	-2.09634
H	1.117485	-1.396129	-1.899293
H	-0.482419	-2.150731	-1.679987
H	-0.121983	-1.257686	-3.175093
C	-1.951642	0.185834	-1.641996
H	-2.268361	1.150471	-1.247363
H	-2.478169	-0.615995	-1.113135
H	-2.209026	0.135069	-2.703901
C	-0.417573	-1.21528	0.666172
N	-0.725185	-2.244464	1.148608
N	-0.388765	1.133878	0.827759
O	-0.209416	0.998622	2.047467
O	-0.720117	2.199563	0.28605
H	2.411555	0.0	0.0
