18

C	-0.464856	-0.01285	-1.471606
C	0.0	0.0	0.0
Cl	0.138861	1.477357	-2.283539
H	1.092072	0.0	0.0
C	0.213332	-1.202645	-2.135552
H	-0.192068	-2.135659	-1.734629
H	1.286904	-1.158195	-1.928079
H	0.036201	-1.175832	-3.213442
C	-1.977267	-0.029875	-1.623719
H	-2.389005	-0.916425	-1.134403
H	-2.23919	-0.054055	-2.684952
H	-2.429753	0.854587	-1.173454
C	-0.483815	-1.195831	0.666954
N	-0.845466	-2.204908	1.15171
N	-0.501206	1.189202	0.736883
O	-1.577471	1.097466	1.340609
O	0.197225	2.198675	0.698879
H	2.615492	0.0	0.0
