18

C	-0.335786	0.017675	-1.489274
C	0.0	0.0	0.0
Cl	-2.149182	0.073051	-1.725498
H	1.093834	0.0	0.0
C	0.279177	1.197176	-2.220132
H	-0.183447	2.13838	-1.936541
H	0.160962	1.046446	-3.296427
H	1.341156	1.230807	-1.956367
C	0.184856	-1.284124	-2.078999
H	0.03202	-1.287539	-3.16038
H	-0.316939	-2.151769	-1.649677
H	1.256359	-1.338866	-1.85304
C	-0.482327	-1.194798	0.664612
N	-0.775161	-2.216148	1.167964
N	-0.412361	1.189123	0.755406
O	0.033018	2.272563	0.363589
O	-1.092316	1.043955	1.779076
H	2.502604	0.0	0.0
