18

C	-0.437377	-0.070883	-1.479393
C	0.0	0.0	0.0
Cl	-0.071501	-1.77361	-1.998077
H	1.09126	0.0	0.0
C	-1.929529	0.140281	-1.667075
H	-2.184733	1.160225	-1.374415
H	-2.198219	-0.006579	-2.716857
H	-2.499174	-0.566206	-1.059766
C	0.411594	0.825742	-2.370734
H	0.172581	1.870302	-2.181398
H	0.211005	0.586157	-3.418302
H	1.466027	0.656293	-2.144084
C	-0.49352	-1.097559	0.806073
N	-0.872112	-2.011846	1.44257
N	-0.33225	1.24904	0.671984
O	-0.282637	1.248804	1.910801
O	-0.47985	2.27702	-0.012135
H	2.428856	0.0	0.0
