18

C	-0.454293	0.004188	-1.463557
C	0.0	0.0	0.0
Cl	0.351621	1.362887	-2.345524
H	1.092105	0.0	0.0
C	0.074844	-1.276439	-2.102966
H	1.145672	-1.362431	-1.902251
H	-0.440693	-2.148829	-1.694306
H	-0.090702	-1.239564	-3.182109
C	-1.956362	0.151761	-1.644167
H	-2.297436	1.105061	-1.243658
H	-2.464446	-0.665916	-1.123496
H	-2.20848	0.102359	-2.707279
C	-0.416011	-1.217548	0.663936
N	-0.720861	-2.250062	1.140985
N	-0.401851	1.130584	0.83119
O	-0.793372	2.176676	0.295194
O	-0.194364	1.005959	2.046426
H	2.424753	0.0	0.0
