18

C	-0.433667	0.07718	-1.479991
C	0.0	0.0	0.0
Cl	-0.031837	-1.556302	-2.171751
H	1.09127	0.0	0.0
C	-1.929197	0.275667	-1.652474
H	-2.189528	0.243308	-2.71413
H	-2.483684	-0.509573	-1.132703
H	-2.210436	1.249507	-1.246934
C	0.399536	1.081722	-2.263764
H	0.209567	0.948643	-3.331684
H	1.458008	0.913978	-2.048374
H	0.133787	2.095698	-1.966132
C	-0.489983	-1.179682	0.683476
N	-0.875483	-2.159051	1.207819
N	-0.346839	1.168371	0.798468
O	-0.525699	2.256193	0.222916
O	-0.291165	1.041144	2.031257
H	2.427288	0.0	0.0
