18

C	0.059439	-0.028465	-0.019802
C	-0.409876	0.068442	-1.492106
F	1.434574	0.305652	0.024398
H	0.346611	-0.496614	-2.058132
C	-0.693018	0.862458	0.942227
H	-0.395038	1.895923	0.754722
H	-0.442655	0.60774	1.975402
H	-1.779521	0.785169	0.771971
C	-0.009255	-1.443125	0.400409
N	-0.028409	-2.570569	0.729351
C	-0.401685	1.519066	-1.958237
H	-0.535949	1.5351	-3.041802
H	0.535717	2.021207	-1.70437
H	-1.243958	2.050332	-1.510121
N	-1.721071	-0.489511	-1.73975
H	-2.441655	0.035824	-1.195762
H	-1.763039	-1.458767	-1.441984
H	-3.63612	0.823238	-0.191242
