18

C	0.052188	-0.035131	-0.003742
C	-0.409326	-0.108309	-1.480633
F	1.432798	0.280371	0.005012
H	0.355052	-0.729559	-1.972386
C	-0.688784	0.97551	0.840638
H	-0.360031	1.973294	0.54308
H	-0.461564	0.832009	1.900266
H	-1.774501	0.911496	0.654935
C	-0.038444	-1.389004	0.580712
N	-0.080494	-2.47398	1.028831
C	-0.406976	1.280575	-2.106718
H	0.526599	1.813031	-1.905554
H	-0.533899	1.174203	-3.186173
H	-1.256183	1.850465	-1.723605
N	-1.711965	-0.703541	-1.677569
H	-1.753934	-1.629038	-1.264305
H	-2.452036	-0.119042	-1.232904
H	-3.562308	0.93638	-0.337347
