18

C	0.0563	-0.0368	-0.002302
C	-0.398638	-0.136971	-1.479517
F	1.438159	0.272918	0.006793
H	0.365205	-0.770899	-1.955647
C	-0.684228	0.993367	0.818551
H	-0.462126	0.87049	1.881842
H	-1.769331	0.930007	0.629117
H	-0.349853	1.983594	0.502532
C	-0.042959	-1.378635	0.60814
N	-0.091886	-2.454617	1.076782
C	-0.387864	1.239223	-2.132902
H	-1.236456	1.820046	-1.765142
H	0.546991	1.771842	-1.9382
H	-0.510749	1.111869	-3.210551
N	-1.702924	-0.730753	-1.670989
H	-1.750412	-1.64803	-1.240338
H	-2.442368	-0.134875	-1.240566
H	-3.552732	0.941582	-0.370976
