18

C	0.05634	-0.030725	-0.013673
C	-0.411958	-0.088158	-1.488289
F	1.43262	0.301388	-0.003703
H	0.342383	-0.712881	-1.990924
C	-0.693411	0.959556	0.848222
H	-0.391152	1.966288	0.553046
H	-1.780024	0.869022	0.685887
H	-0.44483	0.814263	1.902777
C	-0.017974	-1.392519	0.554283
N	-0.0445	-2.476002	1.007112
C	-0.397955	1.305009	-2.105178
H	-1.238455	1.883805	-1.716554
H	0.54125	1.827669	-1.905055
H	-0.531702	1.206849	-3.184469
N	-1.725441	-0.663909	-1.67624
H	-2.443366	-0.08173	-1.18931
H	-1.770741	-1.596646	-1.278864
H	-3.637528	0.812999	-0.281686
