17
Coordinates from ORCA-job run
  C   -0.80959312665952      0.30110827238951     -0.27160430009889
  C   0.66600349015573     -0.10196106005881     -0.34973691986517
  Br  -1.28114772656988      1.59298165871930     -1.65547938456647
  H   0.86493760125566     -0.40846392804637     -1.38058374111930
  N   -1.65395058233756     -0.95889707640421     -0.66682279822189
  O   -2.74282435204317     -1.07573647024141     -0.11887661018933
  O   -1.17680688129764     -1.72926631764247     -1.49335901623571
  N   -1.15230325026857      0.78708683832985      0.99490771530747
  H   -2.15222091259918      0.90987660248297      1.09008855391131
  H   -0.81143617319015      0.11761550348075      1.67936472533427
  N   0.81784433424385     -1.20256622234236      0.60637060387090
  H   0.66965953980913     -2.09127158000289      0.14420404486545
  H   1.75113639742833     -1.20265540799822      0.99717909811160
  C   1.57714181869971      1.05217254243840      0.03457915684882
  H   1.41838513421211      1.33219966873077      1.07669504043546
  H   2.61925399806785      0.75003657615490     -0.10088118063219
  H   1.39392069109331      1.92774040001028     -0.58704498775634
