17
Coordinates from ORCA-job run
  C   -0.81724152778155     -0.20762994660611     -0.24211482148427
  C   0.66612204048410      0.17599576307919     -0.12461794707892
  Br  -1.09087949740519     -2.08194655349328     -0.59263200297608
  H   0.63348965881040      1.26956193180809      0.03374957631768
  N   -1.43430418933523      0.12951718406248      1.15135165636470
  O   -1.58375789097778     -0.74184842177064      1.99371063887201
  O   -1.65324769227538      1.33113380680177      1.30749878356859
  N   -1.42709130756969      0.55099380390791     -1.27876112701441
  H   -1.45268396022370      1.52767806882756     -1.00560371118924
  H   -2.36771261383702      0.22972022023687     -1.47204842812115
  N   1.31987088782947     -0.20802519903843     -1.36284526826588
  H   2.27540757444801      0.12682411167485     -1.35803261514438
  H   0.83230811201582      0.20809418068769     -2.14726186199329
  C   1.37832802600985     -0.46033026651841      1.05674568324324
  H   0.96636597176577     -0.13388022375412      2.01268325197231
  H   1.32318012959773     -1.54743496133728      0.99163567491546
  H   2.43184627844440     -0.16942349856813      1.03654251801363
