17
Coordinates from ORCA-job run
  C   -0.85456878794681     -0.13391653427320     -0.12582372602875
  C   0.57984299974404      0.36683925603262      0.10101545909518
  Br  -0.77960148294700     -1.85184161466791     -1.20321219501019
  H   0.45901605621059      1.17651374935463      0.82774926840843
  N   -1.56460846384487     -0.53648690785368      1.16418791263886
  O   -0.95513500267128     -0.39746963382783      2.21969381149446
  O   -2.72570099965962     -0.90232866100568      1.04472001329804
  N   -1.64210149662881      0.85957013608943     -0.69433923203944
  H   -2.56452634394598      0.54018936830728     -0.95682317873490
  H   -1.13278918889354      1.30775953786062     -1.44702356733544
  N   0.99792325295824      0.97698360289808     -1.16381936590747
  H   1.70798698554960      1.67605743864895     -0.98708410160910
  H   1.40452166538705      0.26674210610974     -1.76293871256490
  C   1.57022719480915     -0.65403098673974      0.64704666713358
  H   2.49502302628107     -0.13253336244320      0.90805610439275
  H   1.80522957557641     -1.40575505247440     -0.10771629058141
  H   1.19926101002176     -1.15529244201571      1.53931113335029
