17
Coordinates from ORCA-job run
  C   -0.85598424762932     -0.28643699270055     -0.32832422046667
  C   0.49298816565322      0.37555484540028      0.03304180644073
  Br  -0.55440822614439     -1.83111292094146     -1.47117024846565
  H   0.19468966770773      1.23903604121210      0.64028289360217
  N   -1.47921855253703     -0.73295612145408      0.99538924990396
  O   -1.90301891863271      0.20258345329710      1.67366950478101
  O   -1.45746094171339     -1.90720866607201      1.32833911556886
  N   -1.80340648411086      0.56932159019652     -0.96558964332374
  H   -2.09470558816496      1.27345150135304     -0.29474781463979
  H   -1.31316368977152      1.02748111789965     -1.72769113906756
  N   1.04898041693282      0.90106053129259     -1.20858284396135
  H   1.56991705985885      0.17533555595002     -1.68791616865486
  H   1.68867504425954      1.65842526710562     -1.00387962404493
  C   1.43051028451998     -0.50483565508250      0.85013210146607
  H   0.98225967503913     -0.82772665037623      1.79255768906794
  H   2.33507014062761      0.06045430637367      1.08810423930319
  H   1.71827619410531     -1.39442720345377      0.28638510249063
