17
Coordinates from ORCA-job run
  C   -0.86219325383063     -0.11954399404432     -0.07788473877604
  C   0.60195157833386      0.34321090387094     -0.03460045283579
  Br  -0.89998973982230     -2.11692869390707     -0.44322957387052
  H   0.53748898105364      1.36997731722486      0.33938066560130
  N   -1.58192785833023      0.02511832853570      1.26003952461572
  O   -0.95512617556618      0.50980608969615      2.19663831858178
  O   -2.76368546936745     -0.29054682127418      1.26954972217826
  N   -1.59455572460884      0.63709833578537     -0.98350674065494
  H   -1.06741881214668      0.74476076886917     -1.84215863317900
  H   -2.53784954417438      0.30054566794813     -1.11998310834338
  N   1.04213827751420      0.41549193741625     -1.43013479816485
  H   1.79405120858414      1.08719852070605     -1.51672282590433
  H   1.39880416491005     -0.48891484435163     -1.71907375842567
  C   1.53519730675373     -0.45998024476523      0.86274489805384
  H   2.49239401372495      0.06485370053715      0.92303883316696
  H   1.71595734978552     -1.45050246293353      0.44311608009890
  H   1.14476369718661     -0.57164450931381      1.87278658785775
