17
Coordinates from ORCA-job run
  C   -0.90588326568980      0.20449758729066     -0.27333442429654
  C   0.60113296196647     -0.10453207662953     -0.38302671621735
  Br  -1.45631374198139      1.43886634217987     -1.67063020417307
  H   0.80670974311103     -0.39294821181830     -1.41869942113974
  N   -1.61401126378497     -1.13845949818300     -0.58183204381859
  O   -1.23503843851696     -1.71666861174578     -1.59665998990070
  O   -2.44456113164405     -1.54730631464797      0.21386865575260
  N   -1.38210173843151      0.66891295278798      0.97414144654578
  H   -0.97851340318664      0.09673204506310      1.70890607441080
  H   -1.15900055398997      1.64490499690956      1.10942577809571
  N   0.83210908485283     -1.19114445774004      0.56989601435167
  H   1.77631392984210     -1.15259667473328      0.93175043810586
  H   0.71037226709037     -2.09020257674572      0.11914755836048
  C   1.44437701811640      1.09867128634301      0.00015940812930
  H   2.50105879791887      0.87043543630068     -0.16101352334521
  H   1.30652097960698      1.33844703638697      1.05719068459714
  H   1.19582875472021      1.97439073898180     -0.59928973545814
