17
Coordinates from ORCA-job run
  C   -0.76927389682973      0.27399424338470     -0.27527681231796
  C   0.73059916691312     -0.06916840861164     -0.38782792112628
  Br  -1.30701197072546      1.60687638053257     -1.59099813436886
  H   0.91148062391877     -0.29970831401549     -1.43928817976937
  N   -1.55103920579696     -1.01041630345031     -0.71424821599494
  O   -1.16417666010927     -1.58678786494296     -1.72310426735504
  O   -2.48139329615354     -1.36000477459497      0.00507430207797
  N   -1.14410824660358      0.71085615600736      1.00671843668116
  H   -2.14113145072819      0.87389608450040      1.06846130219434
  H   -0.89052918413172      0.01213377685023      1.69546694920869
  N   1.10271443997303     -1.24355563018088      0.37917584782028
  H   1.04685843558045     -1.10424419956464      1.37880358049968
  H   0.60748063775822     -2.08026821819960      0.10365208586743
  C   1.59653348128087      1.10470279528169      0.04123399515111
  H   1.44285536128385      1.33269663726452      1.09799335669582
  H   1.36775556231046      2.00280364054240     -0.53144933865033
  H   2.64238620205966      0.83719399919662     -0.11438698661371
