17
Coordinates from ORCA-job run
  C   -0.86128623249369      0.06321583471162     -0.35986818815999
  C   0.67219259161175      0.11879316851773     -0.45518000708202
  Br  -1.62698657185618     -0.61585231618004     -2.07759290917850
  H   0.84687334303665      0.93828263370766     -1.16486943533422
  N   -1.34225008100949     -0.96196710421742      0.66550908328372
  O   -2.44635112843972     -0.77047743450074      1.15929908306236
  O   -0.60546225508752     -1.91245147349533      0.90453662781359
  N   -1.39380442230381      1.30325107559077      0.03642062524303
  H   -1.18192712161438      2.01722611992154     -0.64845550359009
  H   -2.39421551009836      1.24424720451758      0.18060440675121
  N   1.24264039377248     -1.06953132285695     -1.05843180919832
  H   1.28300490655848     -1.81793484159508     -0.37967959561406
  H   2.18117380467829     -0.86708956177808     -1.37677334735639
  C   1.28092761417623      0.51504655591855      0.89576980046564
  H   1.18282658261391     -0.30160350347351      1.61345471264710
  H   0.81351305119911      1.40842754704146      1.31046278853612
  H   2.34713103525627      0.70941741817025      0.75479366771081
