17
Coordinates from ORCA-job run
  C   -0.85073032573243      0.13961965843478     -0.15285633632390
  C   0.62273818901685     -0.13307280993675     -0.45128827946514
  Br  -1.57406529444456      1.48953603102841     -1.45974463189268
  H   0.69072803748971     -0.38440226549928     -1.51111849868019
  N   -1.64668710285865     -1.12589249762483     -0.48164126704059
  O   -2.51225981087373     -1.46049328835127      0.31887777732000
  O   -1.37596110468739     -1.68283588655116     -1.53185654048299
  N   -1.06901603166036      0.47059252100839      1.19143810264865
  H   -0.78640045191663      1.42117636246979      1.38705506325500
  H   -2.03394978771732      0.32125592161038      1.45900239815945
  N   0.93641903102544     -1.33458323500856      0.31130604525972
  H   1.76930801613797     -1.77827736862339     -0.05278167050486
  H   1.08042518606419     -1.10236307534062      1.28598431563663
  C   1.50730308917220      1.07100328216535     -0.14069434540737
  H   2.53944402431224      0.83065650291559     -0.40569868684374
  H   1.21272099305440      1.96274503092366     -0.69690449654442
  H   1.48998334361808      1.29433511637951      0.92992105090645
