17
Coordinates from ORCA-job run
  C   -0.88660768269757      0.12048215745690     -0.27255094030692
  C   0.63221501887284      0.11193913877061     -0.51101847610798
  Br  -1.84159599000390     -0.43378844806089     -1.94021069399253
  H   0.78093841675608      0.95835185678222     -1.19450794922915
  N   -1.32076428810395     -0.93370468572653      0.74374442700673
  O   -2.36318671828647     -0.71844835899734      1.34917825953988
  O   -0.61419926620920     -1.92844975707355      0.86487035542647
  N   -1.31752797360060      1.36104730697414      0.23047301758390
  H   -1.13327011438657      2.09936733691585     -0.43629679740576
  H   -2.30198633273100      1.34083384196450      0.46590439411815
  N   1.08454255890476     -1.06789019363212     -1.22168152689728
  H   1.14847252758492     -1.85215589044549     -0.58661336519751
  H   1.99959737007258     -0.89197247090185     -1.61534348179039
  C   1.38258156354258      0.40980670265503      0.79323074285439
  H   2.43983610224741      0.56074478293888      0.56117794242973
  H   1.30922606646941     -0.43685524575194      1.47836890001296
  H   1.00172874156868      1.30169192613160      1.29127519195525
