17
Coordinates from ORCA-job run
  C   -0.92026410717351      0.17087864498569     -0.24611960586670
  C   0.59262260644557     -0.08475012133777     -0.40162698119201
  Br  -1.55670899160907      1.37862814046115     -1.63106853363595
  H   0.77669430917027     -0.36806025753984     -1.44264230777510
  N   -1.59009147813576     -1.19720043671579     -0.52767782741889
  O   -2.38802461703993     -1.62700486007776      0.29004596272051
  O   -1.21679204929987     -1.77012333468378     -1.54762523616942
  N   -1.37477154189993      0.62458505410126      1.01323431771674
  H   -1.17647740400547      1.60712072728216      1.13986208000809
  H   -0.93366659331875      0.06704318492656      1.73761007382475
  N   0.89065401715953     -1.15992390626884      0.54556967259336
  H   1.84199303071991     -1.08474896943519      0.88210294349695
  H   0.79136060420897     -2.06371436465151      0.09883053864716
  C   1.40390767659200      1.14880693271279     -0.04666395651776
  H   2.46248864839099      0.95733783038866     -0.24013049180581
  H   1.29070418884927      1.38644779598421      1.01379770721535
  H   1.10637170094573      2.01367793986798     -0.63949835584126
