17
Coordinates from ORCA-job run
  C   -0.87275135536587      0.12229865218260     -0.31779539043607
  C   0.66269163666271      0.09494067967978     -0.40698461306347
  Br  -1.59667098229344     -0.26510634195676     -2.15208874441940
  H   0.90498791102331      0.84708249157119     -1.17780149217688
  N   -1.33353291554337     -1.02891676789228      0.59841944973046
  O   -1.68753681996376     -2.08432231006339      0.10117740927888
  O   -1.24544499182946     -0.78158399027964      1.79713667228515
  N   -1.35181443821485      1.33146464572704      0.20064170140851
  H   -2.36261550942093      1.38123289841810      0.20766784117619
  H   -0.97386199782984      2.12010712073288     -0.30801124275628
  N   1.09264395447733     -1.24974328456736     -0.74423237001202
  H   2.10007492168085     -1.31172478507279     -0.67224278525097
  H   0.82335435854986     -1.49564068523820     -1.68877081906804
  C   1.32779022297752      0.50774157573786      0.90159749610950
  H   2.40408168983322      0.60458642314886      0.73050852010133
  H   1.16219555131552     -0.25165702451190      1.66493229737444
  H   0.94740876394120      1.45924070238401      1.26884606971863
