17
Coordinates from ORCA-job run
  C   -0.87343872762988      0.16300314283382     -0.46621906302982
  C   0.66306543941405      0.12422009845309     -0.53977508645992
  Br  -1.71211666625930     -0.43361004602077     -2.10527829485715
  H   0.90047726372313      0.97141399665865     -1.19064284256360
  N   -1.31446583470493     -0.86987198400668      0.62443162785761
  O   -1.98233809878577     -0.43259662004113      1.55597378695210
  O   -0.92190195334482     -2.02459160026649      0.50688827392741
  N   -1.34198015223110      1.46402048234438     -0.17696936199445
  H   -1.02703499843150      1.76376029876854      0.73702893502680
  H   -2.35332378987868      1.49704120856104     -0.19120692708728
  N   1.16334516785874     -1.06931286167845     -1.19556408911232
  H   1.03788624932950     -1.88256751175195     -0.60676745310723
  H   2.15038742250369     -0.95350104784380     -1.38712135109453
  C   1.26958475103360      0.37805805020006      0.84883293864863
  H   0.93015093045961      1.30654409420580      1.31568586507328
  H   2.35447995058525      0.45146739598567      0.74556294120939
  H   1.05822304635842     -0.45447709640179      1.52514010061108
