17
Coordinates from ORCA-job run
  C   -0.85761975054569      0.10957773209399     -0.13644849953023
  C   0.62082973302518     -0.09358482984972     -0.46315642562083
  Br  -1.65317183773449      1.46934958796621     -1.39148347233202
  H   0.68317904434640     -0.30914786501504     -1.53115147137096
  N   -1.60657166413999     -1.17654302208096     -0.49476658855256
  O   -1.32948685724660     -1.68829706026149     -1.56607918918933
  O   -2.44538871667128     -1.57158229720879      0.30665037619310
  N   -1.07031416162943      0.39015998019880      1.21993884976433
  H   -0.82283179476593      1.34500588462893      1.44102293848647
  H   -2.02522105804255      0.19526766910287      1.49422373835341
  N   0.99347683108773     -1.30465743649724      0.25682717288450
  H   1.83760911232578     -1.70313077119282     -0.13274746930466
  H   1.14290662430649     -1.09745369837615      1.23630613082966
  C   1.46129420635869      1.13481793163452     -0.12663474270514
  H   2.49860170999995      0.94360370824924     -0.41075152499607
  H   1.12452244326526      2.03023054352461     -0.65213038609072
  H   1.44918613606060      1.32538394308304      0.95038056318090
