17
Coordinates from ORCA-job run
  C   -0.86124150112290      0.18801148562535     -0.29353405799959
  C   0.66899503055312     -0.05709439614519     -0.42449945793174
  Br  -1.44564311523993      1.43478538061830     -1.68022913171320
  H   0.85667674456696     -0.27903702055226     -1.47812453785065
  N   -1.49852963524135     -1.17009766488139     -0.60061045762927
  O   -2.04842146993367     -1.74995834359600      0.33062961313356
  O   -1.30588762868927     -1.62774413212574     -1.71959125694069
  N   -1.38124988006646      0.63102706511095      0.95004906454244
  H   -0.97379683770270      1.51376904332916      1.22422544785640
  H   -1.28824104708775     -0.07010252659766      1.67227427443680
  N   1.12539384433239     -1.19886716568936      0.34529863164242
  H   0.75619785990378     -2.07580564641407      0.00175921843912
  H   0.91380525576012     -1.10548712084733      1.33076807621816
  C   1.46074659390632      1.16985708306776     -0.00053564318445
  H   2.51559375870074      0.99050300558837     -0.20892752150693
  H   1.36427709331018      1.33756764409900      1.07638223928188
  H   1.14232493405040      2.06967330941007     -0.52733450079434
