17
Coordinates from ORCA-job run
  C   -0.84607527535948      0.11443935329750     -0.19219779275491
  C   0.64283635507554     -0.14131259993016     -0.41874020168212
  Br  -1.54107595309888      1.38521659724961     -1.59207067839215
  H   0.75832571852595     -0.44203957682776     -1.46143192714847
  N   -1.60422783368354     -1.18135644096495     -0.49082420402682
  O   -2.49564050580691     -1.49478560493784      0.28967068806973
  O   -1.27999556955262     -1.78253059469558     -1.50067258955474
  N   -1.12585034153644      0.50522419223074      1.12414496230779
  H   -0.86902284061719      1.46980245616349      1.28374450277605
  H   -2.09856103653268      0.35028389663088      1.35849651291996
  N   0.94809039622710     -1.29826578335842      0.41327123880987
  H   1.04980510452006     -1.01688645730999      1.38027801799415
  H   1.80209449627205     -1.74267426511097      0.10302890310155
  C   1.49155510792505      1.09412262848645     -0.13264403245816
  H   1.20415008168091      1.95124239150149     -0.74424394484842
  H   1.42548033544861      1.36953724347625      0.92387355435192
  H   2.53811176051244      0.86198256409920     -0.34268300946525
