17
Coordinates from ORCA-job run
  C   -0.80916901964667      0.23249134514496     -0.33481170086342
  C   0.68664713555256     -0.09609094178817     -0.30850233052452
  Br  -1.27412578683774      1.36984556783395     -1.84956998394024
  H   0.95183440255299     -0.48144235866091     -1.29706293127850
  N   -1.56787593475145     -1.10199600530768     -0.65180840435203
  O   -2.67328075747828     -1.23186148892762     -0.14117813150446
  O   -1.01385044280004     -1.91261610160547     -1.38669715874260
  N   -1.23868407346274      0.80879729960788      0.86558049688897
  H   -2.24675382490664      0.88797549666983      0.90294103610582
  H   -0.90169731019681      0.22087067529676      1.62287130946730
  N   0.84399886523338     -1.09922172879349      0.74877489706524
  H   1.75354489990502     -1.01213517546539      1.18347709268610
  H   0.76828106696730     -2.03178327509817      0.36152061067505
  C   1.51952197799960      1.13431207666603      0.01126973780028
  H   1.29612463010976      1.49412317029337      1.01643739235131
  H   1.32379921246434      1.94189630418328     -0.69302383329693
  H   2.58068495929548      0.87783513995090     -0.05021809853735
