17
Coordinates from ORCA-job run
  C   -0.94383116654207      0.10942781559263     -0.43755294087187
  C   0.60997173280228      0.08280352177835     -0.48628115321955
  Br  -1.61867823994346      0.00268288584537     -2.24890557896323
  H   0.86844653780856      0.72059626432082     -1.33681133290811
  N   -1.38574359548348     -1.13256573161027      0.34495962261138
  O   -1.99641420242472     -2.04025828145783     -0.18630464788471
  O   -1.04085051641883     -1.08460071380542      1.52797380657093
  N   -1.59562094853034      1.20527384250656      0.21506646453293
  H   -1.23365976291538      1.31594925112572      1.15439585258833
  H   -1.48129156501932      2.05980706307989     -0.31304823484258
  N   1.02427504689207     -1.27588514066646     -0.80305313383793
  H   1.83951651563091     -1.28164172969169     -1.39931538012707
  H   1.24533192339482     -1.78658845137489      0.04358860774782
  C   1.28584393315904      0.66790415657606      0.75396477080809
  H   2.36655438755402      0.64792231377195      0.59371047878702
  H   1.00101478711807      1.70725520630314      0.93187142822610
  H   1.05713513291788      0.08191772770604      1.64474137078241
