17
Coordinates from ORCA-job run
  C   -0.93325916534886      0.13704864766469     -0.22013932667635
  C   0.58541744212656     -0.04631132129305     -0.41759000285761
  Br  -1.65511442074375      1.35355386918177     -1.55389456740888
  H   0.75576511591972     -0.29195422299812     -1.47059342015948
  N   -1.54699592044604     -1.25180355019815     -0.52527516259900
  O   -2.29154783603318     -1.74702715244648      0.30587628420241
  O   -1.18374505458358     -1.77287800267464     -1.57610676859688
  N   -1.37755720629256      0.53406467445894      1.06217244915603
  H   -1.21480899916246      1.51965172059479      1.21403756674323
  H   -0.89722703306672     -0.02571484876757      1.75943102917631
  N   0.95445955106435     -1.13319031666034      0.49003874469872
  H   1.90988194274532     -1.02558184598427      0.80533667707657
  H   0.88234998215098     -2.02802013398940      0.02069693358782
  C   1.34969210366523      1.21187337687189     -0.04546964341637
  H   0.99836689628782      2.07903739318724     -0.60461123598831
  H   1.25274734402873      1.41329494987029      1.02405974574801
  H   2.41057525768844      1.07495676318237     -0.26996930268629
