17
Coordinates from ORCA-job run
  C   -0.86805843932375     -0.07735059910898     -0.06656489496362
  C   0.62132142611284      0.29823653964486     -0.07793302356027
  Br  -1.02734734179704     -2.09997686668805     -0.15059221162550
  H   0.61954048302066      1.36915723085661      0.14907775449358
  N   -1.57569481977280      0.29517621807461      1.23362354720152
  O   -0.91875970519765      0.86415650624598      2.09940209717024
  O   -2.77483251813444      0.05758236031618      1.27755965848258
  N   -1.55473076185000      0.58867733170216     -1.07349008549711
  H   -2.51662971722885      0.29331336256513     -1.16903010749603
  H   -1.02270430626805      0.54493993710786     -1.93475714591814
  N   1.06302241817844      0.14929204359642     -1.46707532027399
  H   1.36168420318884     -0.80703750648279     -1.62521350566557
  H   1.85646971042879      0.75346971660726     -1.63910965725248
  C   1.50620787664835     -0.42628424828092      0.92866481007043
  H   1.11309171051367     -0.36955243598132      1.94220529189543
  H   2.49428263037243      0.04164532983550      0.91896170924545
  H   1.62413715110862     -1.47544492001046      0.65427108369349
