17
Coordinates from ORCA-job run
  C   -0.90778925581394      0.09832892367618     -0.42683222527338
  C   0.63858033499535      0.08012929535859     -0.42320155678975
  Br  -1.51455940160918     -0.21891182237115     -2.25512271153895
  H   0.91220153765195      0.81314532525938     -1.20118927841282
  N   -1.38421294498551     -1.04634145525680      0.47105248057093
  O   -1.35399300890395     -0.76710012842756      1.66923550298726
  O   -1.69723724730530     -2.11960111005912     -0.01136489052376
  N   -1.56419904747843      1.27593679303951      0.04170892989048
  H   -1.36264157240872      1.41596548419602      1.02381491939864
  H   -1.28569777524417      2.08194413286051     -0.50250219136255
  N   1.09958933586025     -1.27108134810906     -0.69254861820229
  H   2.10861874123402     -1.31023664868531     -0.62218438879475
  H   0.83603343326032     -1.56629162732733     -1.62491769689973
  C   1.24093738045529      0.54488586877482      0.89692639338585
  H   2.32762287145363      0.59755717343526      0.78551399055022
  H   1.00940077090328     -0.15542894560345      1.69866586881924
  H   0.89734584793511      1.54210008923949      1.17394547219538
