17
Coordinates from ORCA-job run
  C   -0.86650328131712      0.09869894420043     -0.05698467156781
  C   0.66420817397434      0.19830959581642      0.02440244828418
  Br  -1.35539404575361     -1.65852867506321     -0.94831574962312
  H   0.83283049604861      1.06883620663139      0.66633688167990
  N   -1.54081024377697      0.02051465899731      1.31018367254641
  O   -0.82465694757785      0.07472436947278      2.30472023830602
  O   -2.76347456800305     -0.01664802288385      1.30291724552186
  N   -1.40367124068161      1.21930456451554     -0.67780636821146
  H   -0.86240468278103      1.44264391754495     -1.50475456782440
  H   -2.39820773328112      1.14950890697805     -0.84426662527996
  N   1.11623487994452      0.55748911543573     -1.32232219941839
  H   1.25987418035447     -0.28644026976638     -1.86626245972773
  H   2.00194984434173      1.04383318011774     -1.26631621344484
  C   1.38669502102923     -1.00685230560223      0.61331017027257
  H   0.97661503112545     -1.30611663354226      1.57627783905488
  H   2.43785191362324     -0.74280151183941      0.75713235536646
  H   1.33986320273078     -1.85647604101304     -0.06925199593454
