17
Coordinates from ORCA-job run
  C   -0.81360970926602      0.11822014780428     -0.26900076595512
  C   0.72611700188247      0.15603222626951     -0.45379302214022
  Br  -1.67052634665720     -0.54329465338542     -1.98539807772460
  H   0.87617187084627      1.02936837880587     -1.10269510210037
  N   -1.26671178334103     -0.92904502169559      0.74383779853394
  O   -0.58507030965743     -1.94257995076060      0.84818427820450
  O   -2.29623393358241     -0.69153552100699      1.36389744422867
  N   -1.31244301149829      1.34921403805299      0.15602493528519
  H   -1.09181738081544      2.08802148098644     -0.49757794482311
  H   -2.30236431615020      1.32243901658570      0.36250988744430
  N   1.37601938192240     -0.96049565329034     -1.09635120849015
  H   1.02020042691375     -1.09468892497113     -2.03362444445158
  H   1.20014226653407     -1.80587623624314     -0.56959363716956
  C   1.39970306200696      0.43223295583222      0.89039464098667
  H   1.35457488103340     -0.45178307618423      1.52982174189323
  H   2.45047945543092      0.65432957017206      0.70223251647690
  H   0.93636844439781      1.26944122302834      1.41113095980128
