17
Coordinates from ORCA-job run
  C   -0.83926993095686      0.13932170202784     -0.25660343968949
  C   0.66947023459824     -0.13708201649948     -0.26985365086124
  Br  -1.28654661339838      1.44175594359220     -1.71391113621397
  H   0.89501627003816     -0.55159976174533     -1.25851445050185
  N   -1.62298023165060     -1.11567548374493     -0.74158108818327
  O   -2.82772013955669     -1.10075664427887     -0.54431532906119
  O   -0.98300016730621     -2.03043094067699     -1.25422907359610
  N   -1.32030028774169      0.48560702390346      0.98528971047539
  H   -2.19717445128093      0.97088278317296      1.04676333329491
  H   -0.63215818340147      0.65919112542958      1.69660917194873
  N   0.94954168465627     -1.05906831601864      0.82989976197728
  H   0.58637755421029     -1.97827320493531      0.60474539973654
  H   1.95286513839481     -1.14897206780151      0.93798583263089
  C   1.49590966524433      1.12517099108748     -0.05794967827610
  H   2.55572552916063      0.85582014610973     -0.05569692376018
  H   1.33758313950784      1.85237192643203     -0.85127579948365
  H   1.26866078948226      1.59173679394581      0.90263735956324
