17
Coordinates from ORCA-job run
  C   -0.82694972825976      0.18194912288025     -0.46453143943673
  C   0.70792075959452      0.08282373582531     -0.42848933954783
  Br  -1.46105782737309     -0.08030587349331     -2.28532285134860
  H   1.03166316343037      0.77492096857640     -1.22034742989649
  N   -1.38321520558789     -0.99370321738609      0.39968972937846
  O   -1.69424295700733     -2.05312183675138     -0.11463323808748
  O   -1.41125371153485     -0.73326046463156      1.60265026780570
  N   -1.28723689597186      1.44275484949725     -0.01068368328505
  H   -2.27282624735542      1.56418356827804     -0.20988047494733
  H   -1.14294506259624      1.50929341075929      0.99044942508144
  N   1.09881766987297     -1.30082053068482     -0.64313783490802
  H   0.82417628953438     -1.61633010213295     -1.56616807403706
  H   2.10510445382600     -1.38276894263890     -0.57209518271185
  C   1.30069986014965      0.56214851402061      0.89123199341237
  H   0.96097726665642     -0.05693210610515      1.72159712380075
  H   1.06145126174571      1.60909268932516      1.07936231776395
  H   2.38991691087642      0.48707621466187      0.83130869096380
