17
Coordinates from ORCA-job run
  C   0.84153326567107      0.36517481717760     -0.20350646969787
  C   -0.63942486395504      0.42216523820149      0.17286083801574
  Cl  1.19475453401517      1.62081301172054     -1.36516441004784
  H   -0.79271751511087      1.38181772015459      0.67002887618609
  N   1.27309111059995     -0.99085794274321     -0.79115135033125
  O   2.01844042311578     -1.67712111854251     -0.11283516354407
  O   0.80385173130490     -1.24485454934102     -1.88824096298434
  N   1.74248000336671      0.58786369908274      1.02044789287813
  O   2.91879760386095      0.81161232988852      0.79425334233470
  O   1.19311288226213      0.49995219927959      2.11199749489656
  N   -0.99781590294806     -0.61260121030334      1.20343369481047
  O   -1.74690184431258     -0.24830487589563      2.09892537163256
  O   -0.57738292321118     -1.74931263018290      1.01132779270098
  C   -1.62006672278272      0.23877506571483     -0.97750772588792
  H   -1.44778832213765      0.97381620748857     -1.76115418289400
  H   -2.62754514625186      0.37997140541119     -0.58157682327925
  H   -1.53641831348670     -0.75990936711104     -1.40213821478868
