17
Coordinates from ORCA-job run
  C   0.77200542135916      0.59356159013271     -0.00089601850436
  C   -0.73007229097746      0.31658914413946     -0.01601019912372
  Cl  1.10153023148159      2.24280977418450      0.44699536569578
  H   -1.16509145030866      1.13640461542679     -0.58901230494669
  N   1.29607894907616      0.39276741285242     -1.43229320480638
  O   2.33350007630112     -0.23829982113040     -1.56835263191163
  O   0.62538328449125      0.92716377207000     -2.30334408683095
  N   1.58556631966962     -0.38404521136593      0.85929276255556
  O   2.49800543954373      0.06307231671616      1.52716223069255
  O   1.24828768771574     -1.55246738955054      0.73738807205879
  N   -1.29008001362709      0.46881209992289      1.36792234026275
  O   -2.49385232437863      0.69333162324109      1.42227870358580
  O   -0.52837718859647      0.34959923336005      2.32432489098580
  C   -1.21561901499630     -1.01171043480567     -0.58587952663634
  H   -0.69948402981566     -1.25216867620141     -1.51468439082540
  H   -1.05488980293991     -1.82542111474374      0.11728275184539
  H   -2.28189129399818     -0.91999893424838     -0.79317475409694
