17
Coordinates from ORCA-job run
  C   0.81459160069612      0.41155249513760     -0.21305087643152
  C   -0.67153594937247      0.35072001676545      0.15383629424273
  Cl  1.10470826952836      1.78450409044073     -1.24769550068612
  H   -0.85839048150978      1.29566651424528      0.67088980129508
  N   1.41280018277439     -0.80338886157910     -0.92421665281054
  O   0.65501712660300     -1.45894523709303     -1.62226621667103
  O   2.61950654575423     -0.94264005327620     -0.79639437930085
  N   1.60853443932847      0.54938611059512      1.10283815446870
  O   1.99888746020987      1.65761761120447      1.42467141154699
  O   1.70823880341824     -0.49878036429183      1.72546939701323
  N   -0.91225817012390     -0.69976920553711      1.21103482603676
  O   -1.15104239672828     -0.28235691008682      2.34135854219324
  O   -0.87674607958681     -1.87170967264580      0.85553598968731
  C   -1.67117595410684      0.15471181851706     -0.97202299616869
  H   -1.60651928479694     -0.84925105683936     -1.37885194168177
  H   -1.50125618693652      0.88148117396941     -1.76572294136932
  H   -2.67135992515115      0.31920153047414     -0.56541291136422
