17
Coordinates from ORCA-job run
  C   0.76550970220298     -0.34356470700788     -0.03960009065120
  C   -0.61604676408100      0.25922527813311      0.15735302644322
  Cl  0.76929461597184     -2.06184172100312     -0.14109516355097
  H   -0.48930971151047      1.33715082016434      0.26660383637287
  N   1.76288090288024      0.16227587718967      1.04049071241340
  O   2.62608701446004     -0.60858930444225      1.41408477676477
  O   1.60366270609786      1.33159246643766      1.35910715899193
  N   1.38200381576302      0.27353700159949     -1.32554851663005
  O   1.10632542195271      1.45273256547189     -1.51106021606486
  O   2.11447604709091     -0.43353684171357     -1.99668701220406
  N   -1.17874676095171     -0.19692455463704      1.48697326605473
  O   -2.38629795009440     -0.05920968247055      1.63729590637498
  O   -0.39041439961996     -0.61503486779524      2.32953519495075
  C   -1.58411224504480     -0.07027713295240     -0.96231658261069
  H   -1.77306909821362     -1.14233975656609     -1.01681630546164
  H   -1.18577852997021      0.27518942416130     -1.91646858487972
  H   -2.52746476693343      0.44061513543070     -0.78085140631345
