15

C	-0.116793	-0.056921	-1.531641
C	0.0	0.0	0.0
Br	-0.030526	1.760139	-2.272638
H	1.099594	0.0	0.0
H	-0.344743	-0.981123	0.350915
N	0.956981	-0.818777	-2.08989
H	0.7535	-1.795704	-1.905547
H	1.792444	-0.559939	-1.519768
N	-1.449267	-0.680509	-1.943961
O	-2.416978	0.027012	-2.193187
O	-1.481797	-1.913918	-1.881902
N	-0.736619	1.062955	0.668795
H	-0.142878	1.884435	0.680753
H	-0.863039	0.788686	1.636239
F	2.725589	0.0	0.0
