15

C	-0.104899	0.106312	-1.519644
C	0.0	0.0	0.0
Br	-1.841459	0.888739	-2.187033
H	1.097324	0.0	0.0
H	-0.457354	-0.920989	0.355159
N	0.986348	0.79701	-2.008683
H	1.131304	0.662899	-2.998644
H	1.826047	0.583585	-1.417493
N	-0.220123	-1.3425	-2.1328
O	0.409295	-1.556349	-3.165608
O	-0.926337	-2.167431	-1.562999
N	-0.454868	1.209645	0.669672
H	0.318443	1.567928	1.212712
H	-1.226105	1.012798	1.290708
F	2.719987	0.0	0.0
