15

C	-0.021971	-0.097084	-1.522623
C	0.0	0.0	0.0
Br	-0.545801	1.992263	-2.269233
H	1.100453	0.0	0.0
H	-0.464416	0.911076	0.371149
N	1.144298	-0.537284	-1.984568
H	1.991389	-0.33868	-1.343394
H	1.230454	-0.749595	-2.964725
N	-1.220305	-0.766516	-2.157233
O	-1.043882	-1.347206	-3.226538
O	-2.283935	-0.70135	-1.553955
N	-0.466411	-1.258187	0.565126
H	0.155703	-1.526406	1.3158
H	-1.410014	-1.172464	0.914552
F	2.766165	0.0	0.0
