15

C	-0.469058	-0.018542	-1.389823
C	0.0	0.0	0.0
Br	-2.785197	-0.453255	-1.245233
H	1.097478	0.0	0.0
H	-0.355112	-0.882471	0.531892
N	-0.293591	1.101795	-2.093668
H	-0.637277	1.118432	-3.039203
H	-0.40303	1.916587	-1.500485
N	-0.160182	-1.246196	-2.191514
O	0.107291	-2.26712	-1.572879
O	-0.194403	-1.131506	-3.415188
N	-0.386814	1.287546	0.582892
H	0.359173	1.563726	1.208436
H	-1.252856	1.205189	1.100766
F	2.559437	0.0	0.0
