15

C	-0.584323	0.008304	-1.398518
C	0.0	0.0	0.0
Br	-0.089838	-1.557387	-2.423973
H	1.093942	0.0	0.0
H	-0.342792	0.944483	0.45602
N	-2.006649	0.115181	-1.41199
H	-2.254417	0.982087	-0.949375
H	-2.358059	0.139003	-2.362472
N	0.059027	1.251014	-2.096599
O	-0.505298	2.314065	-1.816234
O	1.051742	1.144674	-2.795603
N	-0.433762	-1.187364	0.725837
H	0.368717	-1.506462	1.252861
H	-1.19338	-0.993177	1.361737
F	2.639703	0.0	0.0
