15

C	-0.581622	0.050122	-1.399125
C	0.0	0.0	0.0
Br	-0.137788	-1.512092	-2.450317
H	1.094875	0.0	0.0
H	-0.337138	0.935356	0.478673
N	-2.001655	0.199762	-1.406966
H	-2.355045	0.248336	-2.355934
H	-2.220526	1.066981	-0.930292
N	0.089464	1.287698	-2.075915
O	1.011849	1.168614	-2.86468
O	-0.391195	2.362127	-1.697514
N	-0.442815	-1.200842	0.695038
H	0.347254	-1.523636	1.239159
H	-1.223638	-1.021663	1.310934
F	2.642134	0.0	0.0
