15
Coordinates from ORCA-job run
  C   0.26409144087636     -0.44431587006813     -0.39026702531945
  C   -1.00134134466035      0.45465195528831     -0.35133722843571
  F   0.06666755267042     -1.31759179938292     -1.44548594239028
  H   -1.04471588080273      1.01729598918260     -1.29122951720481
  C   1.51110937634625      0.36422587662432     -0.69676323006060
  H   1.40763076670089      0.90011554617508     -1.64296273896410
  H   1.71725569156567      1.08089049086855      0.10050252443257
  H   2.35773675194009     -0.32025950669717     -0.77878644969351
  N   0.28995842816867     -1.24494467742248      0.80176134266022
  H   0.54120260973442     -0.68979621967218      1.61129976144170
  H   0.96950975062648     -1.98874161900618      0.69384353823439
  C   -0.90221299071627      1.39921866545068      0.76328220652409
  N   -0.76234555384502      2.13926407820535      1.66393768122087
  C   -2.21372492623255     -0.36080326847671     -0.24031327316754
  N   -3.20182167237232     -0.99020964106911     -0.18048164927784
