15
Coordinates from ORCA-job run
  C   0.32088150459982     -0.39967003329979     -0.34778683059166
  C   -0.97068902819582      0.45885682443252     -0.36830070965968
  F   0.16738230803035     -1.24827050533192     -1.46772654484209
  H   -1.05407307312558      0.90174898163959     -1.36697174754592
  C   1.55759084104008      0.43635570562393     -0.58506408568441
  H   1.46023752104649      1.00038660382833     -1.51381707240326
  H   2.41774145011622     -0.22927106390418     -0.68493675797534
  H   1.72915778999877      1.12073159748438      0.24530708853812
  N   0.39779584789727     -1.11633667119809      0.86341164161048
  H   1.27925262075568     -1.60447682533942      0.95124716547841
  H   -0.36474632117576     -1.77563227017034      0.96549577607821
  C   -0.90622355121357      1.53126268437719      0.62641803955972
  N   -0.83041338596335      2.41612523936756      1.39358856341491
  C   -2.14510069483439     -0.38933191734886     -0.14141665461690
  N   -3.05879382897619     -1.10147835016090      0.04755212863944
