15
Coordinates from ORCA-job run
  C   0.33318204817034     -0.61433717568316     -0.18237988895940
  C   -1.10198822525854     -0.02450953605947      0.03644895949190
  F   0.09737645149846     -1.71567508823852     -0.99669057420627
  H   -1.70618388509729     -0.83311440829671      0.46650975812964
  C   1.24723262216642      0.34413862662180     -0.90777456173054
  H   2.21528445085979     -0.14034916129769     -1.03756918931082
  H   0.83686776129821      0.58371176441052     -1.88880794378046
  H   1.38000319045715      1.26950454418802     -0.34283638465315
  N   0.93038332930473     -1.08136653842044      1.01969566746145
  H   0.29110656384573     -1.59469168278119      1.61236510248839
  H   1.38274965477089     -0.34579107827295      1.54298961691183
  C   -1.72580173077849      0.39572427777782     -1.21972608401022
  N   -2.20708774549828      0.71710427776797     -2.24104980414758
  C   -1.04003684592911      1.08311783883000      0.99088962874687
  N   -0.93308763980995      1.95753333945402      1.76693569756833
