15
Coordinates from ORCA-job run
  C   0.31388039178763     -0.39253899014051     -0.36458235721678
  C   -0.83721850110496      0.44104243293500      0.30074847631467
  F   -0.22794732893493     -0.82848148596639     -1.56379221606674
  H   -0.45417177467786      0.84255347099966      1.24664646114517
  C   1.51528601960542      0.47687381808885     -0.65873831210681
  H   2.27260120822334     -0.14349422579713     -1.13813006910576
  H   1.24026890976312      1.28658008549750     -1.33469187138208
  H   1.93004639057733      0.90421964994828      0.25770400321279
  N   0.68828794590753     -1.54734187311089      0.37575122158981
  H   -0.10397806302160     -2.10772136800611      0.66398707441335
  H   1.28531045148440     -1.33483475036658      1.16154258097863
  C   -1.97047750035835     -0.43712452398551      0.60003641597840
  N   -2.83913745899592     -1.18787532551526      0.84457628504260
  C   -1.25628439087769      1.56130245953753     -0.54424611401369
  N   -1.55746629937748      2.46684062588151     -1.22781157878359
