15
Coordinates from ORCA-job run
  C   0.33745189673745     -0.46105356376370     -0.07252261033280
  C   -0.84021036024215      0.56770365267455      0.05698942975877
  F   -0.28201987761600     -1.64595679764304     -0.43921179523672
  H   -0.40628639053852      1.54042985745078      0.31810748966743
  C   1.29844866189721     -0.05383299068271     -1.16641428296968
  H   2.07905147704090     -0.81201623855954     -1.23002008390577
  H   0.78071288701233      0.00328704911950     -2.12390903323501
  H   1.75684771228849      0.91482914942303     -0.95173156264215
  N   1.02597152113498     -0.70213389059508      1.14773914933628
  H   0.40451465687407     -0.88886757906375      1.92464799078161
  H   1.68545610403242      0.02625471625060      1.37887314732118
  C   -1.73205131420547      0.15931594972700      1.14499788971350
  N   -2.38888309456310     -0.18732708747509      2.05407175258629
  C   -1.58005400643144      0.70955376919579     -1.19864335277612
  N   -2.13694987342121      0.82981400394167     -2.22497412806681
