15
Coordinates from ORCA-job run
  C   0.34891920056932     -0.58499101508315     -0.27364931531187
  C   -1.09635645069448     -0.07954384788636      0.06146923541998
  F   0.12190954102018     -1.57549732818694     -1.22118645671885
  H   -1.66162380125361     -0.95919778648563      0.39369795224040
  C   1.21016205584895      0.49289498090201     -0.88730651939228
  H   0.76148757598902      0.84972600234638     -1.81444691019508
  H   1.33439502738583      1.33693630982842     -0.20520479022251
  H   2.18717830585950      0.06281589802431     -1.10888079383628
  N   0.99804979641980     -1.18810869041410      0.83809777005723
  H   1.43236506190912     -0.51250843240043      1.45020590327828
  H   0.39523509845650     -1.80600250263347      1.36578320325070
  C   -1.77117901320838      0.48516321352997     -1.10875751225693
  N   -2.29113060456385      0.92948769790060     -2.06283293777217
  C   -1.03756781220227      0.89133009299913      1.15488003804292
  N   -0.93084398153566      1.65849540755927      2.03713113341645
