15
Coordinates from ORCA-job run
  C   0.23544890381852     -0.59861403539996     -0.21604236991697
  C   -1.16373575627231      0.01671003398655      0.06267334062142
  F   0.01145946523897     -1.61523200179938     -1.12812528075533
  H   -1.78412097705424     -0.81825320051111      0.40584394115111
  C   1.20257411763742      0.38336762259584     -0.84452039432917
  H   1.39039551123412      1.22309097956801     -0.17173896642910
  H   0.81556157503032      0.76359116509163     -1.79139223413020
  H   2.14684693907816     -0.13032768917125     -1.03547789744587
  N   0.66237625457167     -1.23827341917712      1.00337803177167
  H   1.42520707772755     -1.87019763644353      0.78642782841965
  H   0.99974260685747     -0.55308398558272      1.67008096345628
  C   -1.74992171381137      0.59976317849517     -1.14538553534459
  N   -2.20149844179192      1.05840230945164     -2.12684329991922
  C   -1.06523149967222      1.00817157167791      1.13479489277309
  N   -0.92410406259215      1.77288510721833      2.01432698007727
