15
Coordinates from ORCA-job run
  C   0.36260640845380     -0.33606297747921     -0.01674423895717
  C   -0.88730985417909      0.58196930624540      0.02764984026699
  F   -0.13719772131985     -1.63381060384381     -0.22753037863416
  H   -0.53383182493908      1.61238957084741      0.14428456479065
  C   1.26352457366318     -0.00240423786075     -1.18395189555402
  H   1.64923260304014      1.01381199988655     -1.09410057231063
  H   0.72421960377803     -0.11267907659905     -2.12468209980310
  H   2.10315623421219     -0.70083369142224     -1.19329749399242
  N   1.04373931671903     -0.21806458979383      1.21816672577962
  H   0.48960195727993     -0.58409570229912      1.98414686631583
  H   1.92769496389431     -0.70997560863739      1.18951686341496
  C   -1.71980552830310      0.24504262323150      1.18661449416681
  N   -2.35202626476464     -0.04992163051932      2.13046655608897
  C   -1.66707450136838      0.48095243708573     -1.20849301939729
  N   -2.26652996616646      0.41268218115812     -2.21504621217504
