15
Coordinates from ORCA-job run
  C   0.33519684029713     -0.39384460703638     -0.34013765069723
  C   -0.99180355207270      0.40926934796721     -0.37388155531817
  F   0.20553086443396     -1.28431499189434     -1.43056813168193
  H   -1.10210349245388      0.81608477478154     -1.38518813740197
  C   1.53273895019384      0.48498939242986     -0.61968061494208
  H   2.41995681689092     -0.14623102145293     -0.70529125556935
  H   1.40255185040888      1.01057029481083     -1.56676139138475
  H   1.68253216442584      1.20520215916045      0.18421961650910
  N   0.45463348478579     -1.06608322133737      0.89207730526760
  H   -0.27873478274384     -1.75175309789046      1.02704609223428
  H   1.35740426792060     -1.51116719531047      0.98928014689719
  C   -0.96275135997177      1.51389948011771      0.58666370893663
  N   -0.92465192670835      2.41196072991952      1.34118311063965
  C   -2.12685716133734     -0.47919233088731     -0.10633124183855
  N   -3.00564296406907     -1.22138971337784      0.12736999834960
