15
Coordinates from ORCA-job run
  C   0.30517034001747     -0.53484275094452     -0.18465968035915
  C   -1.10922896633426      0.02199598249408      0.12585796842911
  F   0.06425844591434     -1.55367580141555     -1.12909480252060
  H   -1.69348857111595     -0.80045962220981      0.55792703804731
  C   1.21440991367675      0.48367377656722     -0.82900485143704
  H   2.16299444397069      0.00387978749749     -1.08001075831591
  H   0.76977602720387      0.85580521868227     -1.75227086864723
  H   1.40324331310059      1.31505049318041     -0.14933671286136
  N   0.85077664862207     -1.04234044740400      1.01620046317499
  H   0.32819720094315     -1.84075092832764      1.35573210619925
  H   1.82082323182843     -1.30480039300919      0.89973059271893
  C   -1.78518142255577      0.46432342045812     -1.09719630782243
  N   -2.31303345958835      0.82188523797889     -2.08250818325108
  C   -1.03817352034579      1.11402811658974      1.09899849249450
  N   -0.98154362533724      1.99822790986248      1.86863550415072
