15
Coordinates from ORCA-job run
  C   0.31122175615309     -0.37472071362043      0.02751791845525
  C   -0.90708380142470      0.58843257042039      0.06288778084309
  F   -0.20662100662568     -1.65270785941963     -0.09230364393943
  H   -0.51894974484531      1.58801339658944      0.29081620135398
  C   1.20855041150515     -0.11104812302513     -1.16361716338189
  H   2.08321247106469     -0.76001317346084     -1.09486829897421
  H   0.68432810500044     -0.32443058035628     -2.09559101372463
  H   1.54048489642606      0.93049919473439     -1.17673673958893
  N   0.96026746101228     -0.28978605917239      1.31428638086895
  H   1.82777211314832      0.22763677466370      1.25408372507580
  H   1.15887241866466     -1.22424098506887      1.64721076476146
  C   -1.82121183245083      0.19819497232584      1.13983150862823
  N   -2.56498471131194     -0.10604852032037      1.99451831959718
  C   -1.61149912851441      0.63739762791593     -1.22188479442475
  N   -2.14235940780180      0.67382147779424     -2.26815094555006
