15
Coordinates from ORCA-job run
  C   0.32482304990538     -0.35948187898433     -0.23076373112853
  C   -0.89308936447313      0.49832593707931      0.20116078932488
  F   0.01461733497992     -0.81886332829116     -1.52344347055411
  H   -0.67119342167316      0.91108956290547      1.19146392279731
  C   1.58655531844749      0.46669340072665     -0.33348231564192
  H   2.40297040839008     -0.17430664029191     -0.67327727740628
  H   1.45940106837929      1.26519990317480     -1.06442516907220
  H   1.84935560434788      0.89042570986849      0.63654911068161
  N   0.47003163161833     -1.42080129648054      0.69459610770154
  H   -0.31612703337470     -2.05960480446017      0.65250967233645
  H   1.32144680994942     -1.93826932295126      0.51682877140044
  C   -2.09044376544333     -0.34064220739469      0.31239952170672
  N   -3.03690466840292     -1.02353967110147      0.43685349302266
  C   -1.12754832335866      1.60126522552309     -0.73419256671820
  N   -1.29389464929186      2.50450941067772     -1.46477685845036
