15
Coordinates from ORCA-job run
  C   0.37277071850440     -0.43216071857383     -0.05569274979681
  C   -0.88266206999531      0.50538656012127      0.02983178547177
  F   -0.14896346379925     -1.67463988802338     -0.38062289452435
  H   -0.52731514404101      1.52037868396127      0.24471172063973
  C   1.30684903250014      0.01003291767319     -1.15929715697783
  H   0.79237199634283     -0.00345720561867     -2.12021291890284
  H   2.14291685831582     -0.68850331557836     -1.19484578369702
  H   1.68952036848743      1.01705958613715     -0.97481935272661
  N   1.06938180963110     -0.57430950585612      1.17572467930098
  H   1.66240494429609      0.21489359676068      1.38657329508341
  H   0.45849176987165     -0.78622910529136      1.95462098167257
  C   -1.74186065280467      0.07972120056093      1.13714611906074
  N   -2.37103082324209     -0.26984915139233      2.06445347317857
  C   -1.62906343477053      0.52937396531652     -1.22978540893927
  N   -2.19381190929662      0.55130237980305     -2.25878578884302
