15
Coordinates from ORCA-job run
  C   0.33920165698896     -0.45756568558207     -0.41299117774358
  C   -0.95480038968755      0.43323391505837     -0.39624813358164
  F   0.12292862889917     -1.29628940651446     -1.49896610456436
  H   -1.03977957202234      0.93627821591308     -1.36602017791273
  C   1.56905672404480      0.37903556636134     -0.68259148604805
  H   1.44589090128070      0.93998779151636     -1.61034964030091
  H   2.41833311512117     -0.29617739926468     -0.78722943271941
  H   1.76554794984757      1.07861808478034      0.13184113198506
  N   0.51664048878713     -1.27650000006560      0.73215331304418
  H   0.86747317723022     -0.76464243389692      1.52889721952414
  H   -0.31681327918237     -1.79621214039087      0.97765927029012
  C   -0.85375761245892      1.43471696987644      0.66565039526308
  N   -0.70988681020513      2.22871617335443      1.51849753059022
  C   -2.13179351592650     -0.41331447060599     -0.19255706678655
  N   -3.03924146271683     -1.12988518053980      0.01025435896044
