15
Coordinates from ORCA-job run
  C   0.31159673660242     -0.61035447870483     -0.25988180870445
  C   -1.10874501286528      0.01784371485840     -0.05341222208814
  F   0.09559406561548     -1.54831547532951     -1.26240277950976
  H   -1.78252734247708     -0.81342114715984      0.18927332807099
  C   1.32506365935599      0.39923370513025     -0.74366213357532
  H   1.45017183543798      1.21121998548588     -0.02383523510920
  H   2.27839850180466     -0.11233482787980     -0.87835802740558
  H   1.01004113246570      0.81844946791805     -1.69928691782159
  N   0.78495111910414     -1.30133544503270      0.88836340292596
  H   1.22443784961799     -0.68874129491998      1.56000115925794
  H   0.07602174167131     -1.86672510547932      1.33689318379544
  C   -1.60570874542494      0.67302776910998     -1.26519633199209
  N   -1.97555848682586      1.20437361263051     -2.24450686413604
  C   -1.07865002697234      0.95006623264830      1.07406146788684
  N   -1.00608702711016      1.66701328672457      2.00094977840505
