11

C	0.0	0.0	0.0
C	-0.22342	-0.017352	-1.545999
Br	1.949859	0.0	0.0
H	0.200806	-0.963444	-1.895944
H	-0.384086	-0.884658	0.49994
H	0.420284	0.768801	-1.948967
C	-0.431651	1.224049	0.664125
N	-0.587735	2.238238	1.237481
C	-1.503559	0.161942	-2.24298
N	-2.179738	0.314164	-3.196292
Br	-3.248509	0.0	0.0
