11

C	0.0	0.0	0.0
C	-0.526591	-0.006252	-1.434919
Br	1.949905	0.0	0.0
H	-1.627023	0.015725	-1.346887
H	-0.349129	-0.89294	0.517776
H	-0.226504	-0.9386	-1.920915
C	-0.39683	1.192634	0.747415
N	-0.596978	2.167669	1.371247
C	-0.049605	1.12093	-2.226572
N	0.324977	2.008271	-2.897938
Br	-3.57414	0.0	0.0
