11

C	0.0	0.0	0.0
C	-0.496648	-0.33691	-1.409151
Br	1.947501	0.0	0.0
H	-1.597361	-0.285095	-1.365802
H	-0.346564	-0.741201	0.719799
H	-0.11695	0.402773	-2.119174
C	-0.411729	1.33873	0.415873
N	-0.595855	2.450608	0.747926
C	-0.068359	-1.667851	-1.822342
N	0.272297	-2.739761	-2.159087
Br	-3.532186	0.0	0.0
