11

C	0.0	0.0	0.0
C	-0.213558	0.040772	-1.549619
Br	1.949756	0.0	0.0
H	0.243599	0.972854	-1.895455
H	-0.381857	-0.909378	0.462362
H	0.421954	-0.759957	-1.937635
C	-0.407118	1.181956	0.753896
N	-0.596098	2.083285	1.482346
C	-1.472816	-0.080028	-2.301834
N	-2.201269	0.037704	-3.222201
Br	-3.214636	0.0	0.0
