14
Coordinates from ORCA-job run
  C   0.58732347465728      0.26694441610310      0.14161585510500
  C   -0.19167484092229     -0.07503101325913     -1.11100072964115
  Br  2.39181385780085      0.89517795487200     -0.51158744535571
  H   -0.24283720941544      0.78154451349099     -1.77988179919416
  H   0.24662557424067     -0.93868653934466     -1.60680561853594
  N   -0.09704481210242      1.14296809322135      0.96981537295219
  H   -0.33168088741145      2.01766966167462      0.52138581803097
  H   0.34550069957350      1.27629084795594      1.86863457246401
  N   0.93898074279290     -0.99489029766030      0.94084151778670
  O   0.97636634659727     -0.86656888041182      2.15718493023459
  O   1.19758496362669     -1.99928388030462      0.29898427293150
  N   -1.59564751328824     -0.41868698586341     -0.72791108002186
  O   -2.48719876350777      0.29592827080809     -1.17759590812313
  O   -1.73811163264155     -1.38237616128215      0.01632024136700
