14
Coordinates from ORCA-job run
  C   0.54496043185548      0.18646337856309      0.07695195451137
  C   -0.53444929528640     -0.72641456247038     -0.49413820283313
  Br  1.89722419731494      0.63739730935618     -1.25133077675790
  H   -0.10391352900639     -1.50273165469905     -1.11831804357207
  H   -1.11247888352361     -1.16179740640620      0.32245118807675
  N   0.01913976779145      1.35229589822936      0.63045479023252
  H   0.71297875219897      1.89617251331494      1.12467943206519
  H   -0.80313410966507      1.18828123089694      1.19737574217696
  N   1.32934190704178     -0.69697004278574      1.10836042440512
  O   1.75302450331980     -0.11516783337038      2.09770997629620
  O   1.46406962105810     -1.88425362457176      0.83967986060090
  N   -1.48616453410023      0.07410393711883     -1.31253146819064
  O   -1.23471872774796      0.19661093464099     -2.50675373354442
  O   -2.44688010125086      0.55600992218316     -0.71459114346684
