14
Coordinates from ORCA-job run
  C   0.52284963133892      0.21483595567986      0.12761574819614
  C   -0.86341938510063      0.26480876500664     -0.47855554134785
  Br  1.83278531526676     -0.32529574089045     -1.25389756446085
  H   -1.59677859405255      0.38945960701530      0.31812996619499
  H   -0.92989488763256      1.09334354869812     -1.18239723066799
  N   0.81121058798576      1.45882782331924      0.73551140630931
  H   1.72805170993762      1.44202378206387      1.16880915398322
  H   0.77330200240287      2.21714890253000      0.06606050150643
  N   0.59930857950089     -0.78883166160104      1.28726492567559
  O   -0.46406968948061     -1.14332059477664      1.77541457005305
  O   1.72063422582308     -1.05353312586708      1.69515686780018
  N   -1.26086812631091     -0.95813634080956     -1.23857716885962
  O   -0.79270801171478     -2.03419553107085     -0.88701857418571
  O   -2.07940335796386     -0.77613538929744     -2.13451706019688
