14
Coordinates from ORCA-job run
  C   0.54783010997612      0.16707401235001      0.10027677702731
  C   -0.53900980743713     -0.70723197930512     -0.51454102512956
  Br  1.97410726176305      0.55962422641477     -1.16755494099551
  H   -0.11164958653950     -1.50437964585309     -1.11418620188152
  H   -1.17045480593655     -1.11374272835077      0.27711516238509
  N   0.04262976173319      1.35456586884112      0.62632821465387
  H   -0.80933065586966      1.22296497579569      1.15684012087606
  H   0.73357737571516      1.87226591787960      1.15187026992079
  N   1.25038200601362     -0.74192052338331      1.16870558078720
  O   1.63535721422117     -0.17621301361257      2.18300981122881
  O   1.36505020555506     -1.93171226998579      0.90223848747174
  N   -1.42084841333361      0.12400776510444     -1.37957106301982
  O   -1.11040730402971      0.22846120012941     -2.56159482768622
  O   -2.38923336183121      0.64523619397560     -0.82893636563825
