14
Coordinates from ORCA-job run
  C   0.54313174933784      0.19403535534641      0.07419290961430
  C   -0.52697650721407     -0.73298441418312     -0.49136609337351
  Br  1.88358730161313      0.66203773106339     -1.25981452860016
  H   -1.09559634991178     -1.17522828489777      0.32819847480062
  H   -0.08951674824742     -1.50418673557681     -1.11705181115245
  N   0.00472127188582      1.35283922249612      0.63021331659667
  H   -0.81222273716686      1.17762929609035      1.20150520579306
  H   0.69342077965548      1.90597953047467      1.12133500578290
  N   1.34343669166885     -0.67973505599049      1.10241028900441
  O   1.75888339102338     -0.09418718932593      2.09305672302819
  O   1.49659020835049     -1.86393046600986      0.82994286282710
  N   -1.49273842814531      0.05460272838240     -1.30589329692815
  O   -1.24738836583644      0.17982986824604     -2.50119666241531
  O   -2.45733225701312      0.52429841388459     -0.70453239497765
