14
Coordinates from ORCA-job run
  C   0.62054547428633      0.22391312751682      0.04722256852268
  C   -0.82618702948989      0.25430008468954     -0.43622059255251
  Br  1.78994697029921     -0.18716689012973     -1.42293023786279
  H   -1.48330811755194      0.37595904159769      0.42726329885209
  H   -0.95884509601660      1.06712291591950     -1.14752102722469
  N   1.05297845270388      1.44246865605830      0.66413892791825
  H   0.39952859566092      1.72734082255675      1.38496649389925
  H   1.18027223875668      2.17696323428959     -0.01883202679502
  N   0.74417787893676     -0.82740768280565      1.16719075209653
  O   1.56470244504753     -1.72028843332641      1.09301725466288
  O   -0.01992995160658     -0.59571971175578      2.10028920941022
  N   -1.24558140403629     -1.00053970458051     -1.12226505547497
  O   -1.83294639323877     -0.88550599021414     -2.19304063316861
  O   -0.98435406375123     -2.05043946981599     -0.54127893228330
