14
Coordinates from ORCA-job run
  C   0.47966932398389      0.09798762723571      0.22996911127376
  C   -0.67890688225412     -0.64273986419724     -0.41719726167865
  Br  1.76540766905376      0.59025129522240     -1.24273244907319
  H   -1.41512350844257     -0.89120242485407      0.35063589923138
  H   -0.33588161808880     -1.53262807547099     -0.93228017759415
  N   0.09184053453504      1.12850528649206      1.07502188850075
  H   0.87815825728602      1.60231622919717      1.49918045720671
  H   -0.55465349071832      1.76273471369956      0.62452424597746
  N   1.29100845993661     -0.88946241291567      1.07699188064511
  O   2.08085380276678     -0.38610095342032      1.86102264699045
  O   1.08538133977715     -2.08501101227196      0.90820693235746
  N   -1.37653521134073      0.20726545915474     -1.42867758109206
  O   -1.74123647801786      1.32714912818645     -1.07170653363399
  O   -1.57098219847683     -0.29006499605784     -2.53095905911104
