14
Coordinates from ORCA-job run
  C   0.44284285299187      0.13092317063347      0.28203062024293
  C   -0.55459667683525     -0.67176329222356     -0.53606070533405
  Br  1.77105320599294      0.91947561837490     -1.01537307368275
  H   -0.05906792882309     -1.45449858194466     -1.09891513215781
  H   -1.31121981384434     -1.08921920621748      0.13234398990306
  N   -0.13902246267522      1.01628081976354      1.17799361561240
  H   -0.82169143948723      1.61304619330931      0.72973769175927
  H   0.54413137250458      1.53291614825796      1.71566936752407
  N   1.30271849653029     -0.83540393878454      1.10612419100886
  O   1.95570339306751     -0.32466359536243      2.00319067610411
  O   1.26553299339173     -2.02293105725715      0.80917557838785
  N   -1.27430150432054      0.18749309567812     -1.52421804845928
  O   -1.32447120682868     -0.21990464199531     -2.67823891294740
  O   -1.79861128166457      1.21824926776783     -1.10345985796126
