14
Coordinates from ORCA-job run
  C   0.47575374257250      0.09127712696740      0.24148572166316
  C   -0.69445407631734     -0.63701080612492     -0.39801685929831
  Br  1.83795457859546      0.41180157974106     -1.21089177067946
  H   -0.37854543274274     -1.57607555972446     -0.83769363068057
  H   -1.46917226350001     -0.79816680302374      0.35516109731326
  N   0.11192924374337      1.19794429916686      0.99581881645832
  H   0.90668282004388      1.66178372604384      1.41538750408245
  H   -0.48338228939300      1.82918407417316      0.47584259490216
  N   1.20387124112677     -0.87130019989996      1.18734720122082
  O   1.99225787356151     -0.35223697808082      1.96257624126657
  O   0.93995042676656     -2.06388788000369      1.09745457741581
  N   -1.31346820671430      0.17110914578850     -1.49188546081137
  O   -1.62728290783511      1.33202956072043     -1.23063487223210
  O   -1.50109474990754     -0.39645128574367     -2.56095116062074
