14
Coordinates from ORCA-job run
  C   0.54093984057651      0.18964053823341      0.09904099612281
  C   -0.51066725758573     -0.72445845406790     -0.52001432799796
  Br  1.93979123124486      0.65951689081213     -1.17321293964590
  H   -0.05219212134063     -1.49323099971342     -1.13350301937461
  H   -1.11655436958357     -1.16943173452559      0.27086675786678
  N   -0.01232962013557      1.34691302425489      0.64299355085682
  H   -0.85712935425994      1.17393579221298      1.17280227250080
  H   0.65791283738493      1.88863866539513      1.17093028130927
  N   1.29098441282344     -0.69970630219603      1.15165507158970
  O   1.44882190757621     -1.88199750649622      0.87377410968022
  O   1.66593662038301     -0.12683800330039      2.16561692470339
  N   -1.43541040091231      0.07709009304050     -1.36786823731663
  O   -2.42034363129985      0.55027237336723     -0.80316955479923
  O   -1.13976009487135      0.20965562298328     -2.55091188549548
