14
Coordinates from ORCA-job run
  C   0.47632336976123      0.07082629960571      0.24687297315267
  C   -0.71928156791946     -0.60666929263571     -0.40163268308577
  Br  1.86905142669731      0.31515100046096     -1.19112090792594
  H   -1.50986442056829     -0.72432862905061      0.34306768997071
  H   -0.44239886764657     -1.56325307024698     -0.82970881741131
  N   0.15580786092183      1.19931973216678      0.98825876127462
  H   -0.40314605137010      1.85370684581604      0.45676778457478
  H   0.96592338877031      1.62857060074263      1.41510616293036
  N   1.14733624323758     -0.91746120763712      1.20827684619323
  O   1.94731126522991     -0.42916433176052      1.99171295523003
  O   0.83261047637502     -2.09780162407592      1.12029133950518
  N   -1.28585321202835      0.22027542272410     -1.50966930419311
  O   -1.54871795505322      1.39664795938767     -1.26145678292115
  O   -1.48610195640718     -0.34681970549703     -2.57676601729429
