14
Coordinates from ORCA-job run
  C   0.57031013086928      0.10704333803632      0.04041823919655
  C   -0.65860012575696     -0.68733237373521     -0.38765650000888
  Br  1.91843306981859      0.17984543350398     -1.36412957668901
  H   -0.37853679534689     -1.59019838577313     -0.92060118292187
  H   -1.26145422470734     -0.92654283974183      0.48979414517322
  N   0.25165989351750      1.39786151772094      0.45751261984617
  H   -0.56192834062998      1.43268662657485      1.05857720923719
  H   1.03983127866919      1.88164075998438      0.86517150764831
  N   1.25308068505661     -0.75995193107112      1.15517771549493
  O   1.19903802717690     -1.97692966629668      1.02865592854208
  O   1.79514536134337     -0.13877595228539      2.05917564419048
  N   -1.51097489220994      0.14897272822790     -1.27688790340402
  O   -2.36182570743810      0.84224265722609     -0.72173847559367
  O   -1.29317836036223      0.08843808762893     -2.48246937071149
