14
Coordinates from ORCA-job run
  C   0.60740095026155      0.18185735056678      0.13684633883720
  C   -0.57950644162348     -0.63615085756646     -0.40162073774468
  Br  1.72047860835743      0.71968921277692     -1.34032770406813
  H   -1.24286583696093     -0.88387722067216      0.42904499978597
  H   -0.24028891841048     -1.53360729600972     -0.91731181237601
  N   0.35010228364829      1.30515883144258      0.97130866494902
  H   -0.22390108285964      1.01863224806116      1.75689121111392
  H   -0.13706075544922      2.02027018719299      0.44648142006399
  N   1.34695933796605     -0.83455684960697      1.03384278311348
  O   2.42568285152442     -1.29102320952353      0.69918211290300
  O   0.71081184097889     -1.11566900343567      2.04776795085770
  N   -1.37687289343655      0.15189894144494     -1.38038564597859
  O   -1.52249826381948     -0.32229187506454     -2.50192694143025
  O   -1.84144168017684      1.21866954039367     -0.98079264002661
