14
Coordinates from ORCA-job run
  C   0.58713797084410      0.26555752450127      0.14304597644129
  C   -0.19039382543638     -0.06992568466154     -1.11254659326652
  Br  2.39023061180348      0.90352457490776     -0.50564706050947
  H   0.24745639643403     -0.93239128903622     -1.61061296327136
  H   -0.23869205112354      0.78986895904228     -1.77745760724924
  N   -0.10074064627755      1.13270921281688      0.97730429614051
  H   0.34359575164524      1.26489232701081      1.87540631534113
  H   -0.34485127012299      2.00741733282413      0.53397057144320
  N   0.94238040753613     -1.00089073900733      0.93394079965504
  O   0.98202930004212     -0.87932360541174      2.15099290263847
  O   1.20106490349598     -2.00124163930355      0.28570188592984
  N   -1.59479491828256     -0.41148462491354     -0.73081910475274
  O   -1.74169699261290     -1.39731204880019     -0.01680603968664
  O   -2.48172563794518      0.32859970003099     -1.14747337885351
