14
Coordinates from ORCA-job run
  C   0.59311175610150      0.26543442321436      0.12340905556742
  C   -0.82388447937949      0.25208218744625     -0.44148449189803
  Br  1.86770025943378      0.21282248876189     -1.31582889889218
  H   -0.99899808150580      1.15917853468377     -1.01660313675554
  H   -1.53198775014048      0.16828484978869      0.38543942507810
  N   0.87550623160519      1.39432006529944      0.95900361398368
  H   0.96009399012452      2.24321790957795      0.41642824742452
  H   0.16527202185373      1.49196166005099      1.67581828071979
  N   0.76232005929122     -0.94593494481554      1.06084010644454
  O   -0.06529829891276     -0.94310846259810      1.96815358811940
  O   1.66767165387674     -1.73864843281536      0.89381095049787
  N   -1.08657881386593     -0.89935517236286     -1.35064165293142
  O   -0.75461486374056     -2.00620859446184     -0.93504721032114
  O   -1.62931368474166     -0.65504651176963     -2.42329787703700
