14
Coordinates from ORCA-job run
  C   0.48573669631681      0.30713494771886      0.21810876275257
  C   -0.79330514954267      0.19885745904914     -0.60402593405991
  Br  2.13215876706162      0.10635966538999     -0.86885003187801
  H   -0.81712082428370      1.03304028433845     -1.30811332343021
  H   -1.63077191584138      0.26064282271405      0.08830927328842
  N   0.42974159771499      1.51227365480878      0.94856860806828
  H   1.17221212282838      1.54408387638338      1.63767562124420
  H   0.49335522420199      2.31545181123933      0.33621515983381
  N   0.56914088962820     -0.82374451462266      1.24119157970667
  O   0.00472259195160     -1.86928561016265      0.94832051923734
  O   1.21460191570813     -0.59483536015411      2.25457873976663
  N   -1.01479691466512     -1.03722300808502     -1.41800600611297
  O   -2.03214201117589     -1.67300325632213     -1.16253884339623
  O   -0.21153298990296     -1.27975277229540     -2.31043412502059
