14
Coordinates from ORCA-job run
  C   0.71548169666318      0.33793138093732      0.10431118489460
  C   -0.17590651417007     -0.07582381291132     -1.07699532358885
  Br  2.43320218239521      0.81750655494312     -0.65681100301996
  H   -0.36667726955051      0.79010383180368     -1.70957298071342
  H   0.26750207279514     -0.89917053215922     -1.63245988560929
  N   0.29124632044006      1.37368323093841      0.96680861235710
  H   -0.60834399597775      1.16448014884151      1.38197627271617
  H   0.25397121375744      2.25768414172616      0.47717752241334
  N   0.87228113506481     -0.94950897023732      0.94220699872374
  O   0.24642525338417     -0.97329805386818      1.99521009148624
  O   1.51972368339014     -1.86026260828907      0.44918339654585
  N   -1.49300708717598     -0.54567075444218     -0.55483693082035
  O   -2.26881785144718      0.32385814116298     -0.15743999710119
  O   -1.68808083956865     -1.75851269844588     -0.52875795828399
