14
Coordinates from ORCA-job run
  C   0.72175734703117      0.32426990573070      0.10452445647623
  C   -0.18826233865382     -0.04882769016431     -1.07638283852964
  Br  2.43834400283071      0.79522548993852     -0.66350186419291
  H   0.23678456324511     -0.86593840262768     -1.65498989896610
  H   -0.37266092557693      0.83416401845634     -1.68683213289686
  N   0.32215491567247      1.34610775540897      0.99504603966712
  H   0.30078286000591      2.24295207946455      0.52848620243224
  H   -0.57941843614923      1.14416176331612      1.40948929335311
  N   0.86678340775764     -0.98445242333875      0.91109264216004
  O   0.24487133881670     -1.02465723933670      1.96602797107695
  O   1.50036596866029     -1.89187504691511      0.39440090584181
  N   -1.50667145355412     -0.51130936842700     -0.55090360163785
  O   -2.26512527586448      0.35964963945046     -0.12405888129596
  O   -1.71970597422143     -1.72147048095611     -0.55139829348819
