14
Coordinates from ORCA-job run
  C   0.60861588628250      0.21055434777912      0.15284994961474
  C   -0.73895244561367      0.28008145118833     -0.55905996111674
  Br  1.99538711322340     -0.19174034981245     -1.11746086996231
  H   -0.74021933678857      1.10964482283588     -1.26335424242633
  H   -1.52617595539141      0.39740344559485      0.18844120721649
  N   0.95439610947157      1.40679676902045      0.86147245482303
  H   0.19869581147283      1.68478307170790      1.47753542360216
  H   1.19496354834877      2.15528027249015      0.22570098892530
  N   0.53099058698307     -0.86667235034714      1.25177693869584
  O   -0.37018592284948     -0.63893281859249      2.05458179751163
  O   1.33639850517328     -1.77549455770731      1.28894582897131
  N   -1.06192786334173     -0.95146910260138     -1.33393199654402
  O   -0.91576564154600     -2.01858007750149     -0.74406303955376
  O   -1.46622039542456     -0.80165492405443     -2.48243447975735
