14
Coordinates from ORCA-job run
  C   0.52981865411560      0.33777189575335      0.06838788960112
  C   -0.86139940386813      0.25452005418864     -0.53648541009435
  Br  1.87529831142686      0.22368267088696     -1.30231151247817
  H   -1.60391369281027      0.21537541686805      0.26327690385167
  H   -1.02220095462768      1.11592922709591     -1.17936849349102
  N   0.64565048644253      1.58193642966791      0.74734513691126
  H   0.00950260447011      1.60580083493292      1.53751832928162
  H   1.59384330235350      1.74568386272682      1.06334168535718
  N   0.70647438998315     -0.84245181524415      1.07791367281234
  O   1.67230941251209     -1.58000183352091      1.01613436633999
  O   -0.17108455429874     -0.84673171341912      1.93785765532858
  N   -1.06495935758082     -0.96660040186693     -1.36485257680512
  O   -1.64316665992770     -0.81805903787385     -2.43631678752631
  O   -0.66617253819049     -2.02785559019560     -0.89344085908879
