14
Coordinates from ORCA-job run
  C   0.63913736350425      0.37471168154862      0.07048108802546
  C   -0.26760074050215      0.05977624518528     -1.10306698178575
  Br  2.36658592694563      0.88473482971577     -0.67299682755098
  H   0.17848189838404     -0.66984887206767     -1.77263915286535
  H   -0.49101325102983      0.98095836495143     -1.64154774061227
  N   0.16864786805531      1.40590638861519      0.89766483982782
  H   -0.71171699642903      1.12782949300295      1.31631629512578
  H   0.83657701975981      1.62391261418646      1.62599447504852
  N   0.93150651283505     -0.95614546634330      0.83186211607447
  O   0.92145813584573     -1.98874642526953      0.17442444857641
  O   1.16694206594215     -0.84722737614460      2.02653759556602
  N   -1.58431533822151     -0.52314665734833     -0.68161510068336
  O   -2.30874985641828     -0.90133202931550     -1.59112619218779
  O   -1.84594060867116     -0.57338279071677      0.51971113744102
