14
Coordinates from ORCA-job run
  C   0.58698186436287      0.26332310512861      0.14905567967780
  C   -0.19052742854746     -0.04700547861850     -1.11294696785594
  Br  2.39136383402470      0.90893671735943     -0.48540436530993
  H   0.24863106932603     -0.89829230021065     -1.62903112536109
  H   -0.24070711747923      0.82558784515615     -1.76080549775959
  N   -0.09905773908094      1.11838606338661      0.99838491543259
  H   -0.32739871615162      2.00588371806574      0.57227073951168
  H   0.34263679798563      1.22674529758108      1.90106286958459
  N   0.93697696011388     -1.01829552600601      0.91643940772729
  O   0.97185206854829     -0.92114269565619      2.13576073917070
  O   1.19714341068394     -2.00587468751791      0.24954067356077
  N   -1.59455317204032     -0.40035196004300     -0.74036231707126
  O   -2.48572435187719      0.32636544150932     -1.17090839084955
  O   -1.73761747986858     -1.38426554013468     -0.02305636045807
