14
Coordinates from ORCA-job run
  C   0.64194203072877      0.36845439939826      0.07570446343990
  C   -0.26712982811135      0.07720266910192     -1.10215973884718
  Br  2.37351883825915      0.87528120939607     -0.66062334920376
  H   -0.48275115344647      1.00733819505794     -1.62824189233724
  H   0.17321486304519     -0.64695133129912     -1.78143185557609
  N   0.17973633349243      1.39160973937839      0.91729055890827
  H   -0.70217679475454      1.11443273628994      1.33322369514712
  H   0.84986179882833      1.59530599751550      1.64770933126078
  N   0.92401298907317     -0.97524719924472      0.81806650363058
  O   1.15862254830073     -0.88540969118537      2.01444465530265
  O   0.90723769008677     -1.99815054855293      0.14582714104633
  N   -1.58879961983142     -0.50033419999430     -0.68887718511806
  O   -2.31672061240634     -0.85856623427105     -1.60360049901766
  O   -1.85056908326441     -0.56596574159053      0.51166817136435
