14
Coordinates from ORCA-job run
  C   0.51010010951044      0.17500490283475      0.21173256842795
  C   -0.67266746742496      0.24083292449005     -0.73104583585621
  Br  1.97982960875841     -0.84287500959650     -0.63753477140188
  H   -0.43000628976296      0.87247566150133     -1.58451356222038
  H   -1.53253978177425      0.64487087917829     -0.19681236584164
  N   0.87074478675218      1.48616699670305      0.59968829670635
  H   1.11931924871162      2.05544321586345     -0.19951168906925
  H   1.64829560953620      1.46670760292587      1.25054313940271
  N   0.14437104583618     -0.51372411400350      1.53429965151285
  O   -1.04713582556541     -0.60606035671666      1.79219644360201
  O   1.07996031153036     -0.80293753994445      2.26562577041471
  N   -1.09911888041958     -1.07441550149836     -1.29598989807411
  O   -1.64829441603318     -1.02157896194801     -2.39207848099252
  O   -0.92185805965506     -2.07891069978931     -0.61759926661059
