14
Coordinates from ORCA-job run
  C   0.53489183775527      0.18548455966959      0.13348506897130
  C   -0.48619358818583     -0.64987461982115     -0.63100046934277
  Br  1.93396284911656      0.87595473005150     -1.03337783769676
  H   -1.08709633512768     -1.22543719097108      0.07485960673584
  H   -0.00160071362863     -1.30464061675071     -1.34801130791874
  N   -0.05403894119143      1.23446257234008      0.83706994093433
  H   -0.89506899952281      0.96012755041212      1.32900970447290
  H   0.59789455418198      1.70805343557722      1.44721280660115
  N   1.29613768394375     -0.83411761404202      1.05068698984249
  O   1.49216864394554     -1.95490369086849      0.59767552547496
  O   1.64078527878297     -0.41423068079354      2.14694814149730
  N   -1.42387983317981      0.24837654838917     -1.35910724826101
  O   -2.42771266342368      0.60285709681850     -0.74325930278425
  O   -1.11924977346621      0.56888791998880     -2.50319161852674
