14
Coordinates from ORCA-job run
  C   0.53160446397357      0.19742759941682      0.12850765546599
  C   -0.47800944032636     -0.66337495387701     -0.62268089361840
  Br  1.90455873010636      0.91199517903103     -1.05508256396574
  H   0.01402014389705     -1.31220768971052     -1.33998048711081
  H   -1.06125160301201     -1.24678533407159      0.09147764720321
  N   -0.07304078066788      1.23587845475866      0.83343353076302
  H   -0.90862758030404      0.94948231584748      1.32740596213578
  H   0.57237295468800      1.72514453953121      1.43789744964023
  N   1.32373482690371     -0.80088384168160      1.04301398131135
  O   1.53420081430427     -1.92193670061720      0.59704403048930
  O   1.67573787794391     -0.36530465903522      2.13082964835971
  N   -1.44017725636472      0.21043477450660     -1.34851020999081
  O   -2.44424779239273      0.55093130193992     -0.72498999019978
  O   -1.15387535874914      0.52719901396140     -2.49836576048304
