14
Coordinates from ORCA-job run
  C   0.52258454709767      0.34276981175008      0.09331643855028
  C   -0.84127636134707      0.25028317743419     -0.56989539131429
  Br  1.92527683048877      0.25823622747103     -1.22049219785414
  H   -0.98484991828621      1.11634484883934     -1.21060724238029
  H   -1.61545136165356      0.19512263793582      0.19829774446506
  N   0.59500322301821      1.58226527410282      0.78823642473525
  H   1.52877839321604      1.75523589552648      1.14025894216089
  H   -0.06975066067679      1.58775087379648      1.55489202172879
  N   0.67060333113017     -0.84422925555164      1.09862374645691
  O   -0.24111967247297     -0.86502617578620      1.92205603372323
  O   1.64539887141747     -1.57184720529198      1.06919069953637
  N   -0.99678806782023     -0.96512416458134     -1.41671998793324
  O   -0.60467329934940     -2.02576938640846     -0.93818190610052
  O   -1.53373585476210     -0.81401255923663     -2.50897532577428
