14
Coordinates from ORCA-job run
  C   0.57194436635782      0.08898376832732      0.05552410106844
  C   -0.66990143307275     -0.66970215280504     -0.39913322682099
  Br  1.95925675429186      0.10295967262153     -1.31306154238555
  H   -1.30374238194561     -0.88062874718629      0.46362678357385
  H   -0.40403346314629     -1.58657097958671     -0.91511342879788
  N   0.28488425206670      1.39400633277647      0.45106695817878
  H   -0.54562142832366      1.46236786060926      1.02556689391569
  H   1.07611020500814      1.85387829536019      0.88004277077204
  N   1.19602846511727     -0.78711900592440      1.19643214685145
  O   1.73547657730598     -0.17409529873257      2.10751177659945
  O   1.10422360280886     -2.00300285656993      1.08131751652782
  N   -1.47003278710730      0.18401921208529     -1.31999442342329
  O   -2.30931032905450      0.91380637027174     -0.79490900503238
  O   -1.22528240030651      0.09909752875315     -2.51887732102743
