14
Coordinates from ORCA-job run
  C   0.58036840582383      0.16579293026780      0.23754432345376
  C   -0.50083630488350     -0.55805331720012     -0.58437370445837
  Br  1.81296476425165      1.02819110202464     -0.96532231954922
  H   -1.23217411471008     -0.99132743945168      0.10023920199961
  H   -0.06411279182697     -1.31795998606347     -1.23109014488169
  N   0.17978004081735      1.08590940425252      1.24603084491940
  H   -0.27781407073905      1.88396260462553      0.82426919314176
  H   -0.46527927023868      0.63080475477112      1.88279655804570
  N   1.27288748241031     -0.99202039785288      0.98881519895743
  O   2.39834026892877     -1.34589894222113      0.68513957558240
  O   0.55312008844306     -1.48738472700196      1.85376332407392
  N   -1.23260114818628      0.39390549407737     -1.46337004016672
  O   -1.21674851593224      0.17625339766619     -2.67017036636696
  O   -1.80789483415817      1.32682512210608     -0.90427164475102
