14
Coordinates from ORCA-job run
  C   0.58558038925839      0.26560081347904      0.15019469193784
  C   -0.18550535808655     -0.05330458526499     -1.11363100104990
  Br  2.39071341981736      0.91341700769990     -0.47930369737279
  H   -0.23475719952893      0.81632198938006     -1.76559387966956
  H   0.25871879812631     -0.90545225390541     -1.62388414903534
  N   -0.10695512236570      1.12236748454264      0.99236251990744
  H   -0.33746787654364      2.00684996654934      0.56122891216805
  H   0.33023931048000      1.23663515258460      1.89648059304300
  N   0.93637743681529     -1.01112015124269      0.92555603982499
  O   1.20077819385930     -2.00183318537451      0.26507640612861
  O   0.96801106891839     -0.90690589631474      2.14441042126242
  N   -1.59036353743914     -0.40801791467339     -0.74539417700777
  O   -2.48126213654145      0.31436070684634     -1.18369191078550
  O   -1.73410738676961     -1.38791913430621     -0.02281076935148
