14
Coordinates from ORCA-job run
  C   0.48595713549320      0.20231503956487      0.24461407432400
  C   -0.64100229588874      0.21456499128882     -0.76605971844763
  Br  2.06651305422324     -0.69899426499268     -0.53426223440033
  H   -1.55388727784807      0.55595902482773     -0.27814277320295
  H   -0.38844603561638      0.87599413890900     -1.59375795604037
  N   0.73705793664503      1.52412515411595      0.67958593608223
  H   0.99295904178031      2.12759626708553     -0.09169651751675
  H   1.47508935116666      1.53929628738554      1.37499721195877
  N   0.08808777508441     -0.53983418364512      1.52833637054617
  O   0.99536921139665     -0.78766766971372      2.30878646829555
  O   -1.10830267784652     -0.71255525932064      1.71179377091547
  N   -0.95268012995269     -1.11277186817832     -1.37644987951985
  O   -0.74285606540365     -2.11935671575752     -0.71067182788772
  O   -1.45085902323344     -1.06967094156943     -2.49707292510657
