14
Coordinates from ORCA-job run
  C   0.60218580765292      0.19751436937769      0.18971740733868
  C   -0.64111512604571      0.21016336935369     -0.69413859535005
  Br  2.08782220684407     -0.53527611192184     -0.78706777659040
  H   -1.49748520250735      0.52194068556845     -0.09274589892196
  H   -0.48745431245925      0.88285079606518     -1.53562989566684
  N   0.96593713317607      1.48610786807695      0.69965151464065
  H   1.34953542554092      2.07535834902464     -0.02688894015340
  H   0.16955988611583      1.93019545159009      1.14281608489606
  N   0.30187232637994     -0.63375441279889      1.45191900860970
  O   -0.66475956662654     -0.19600461983787      2.07013768648345
  O   1.01562904210153     -1.56500432578628      1.76673448116483
  N   -0.97736571404488     -1.12724479214233     -1.25971033501814
  O   -1.22926386877358     -1.18195858195829     -2.45898725315344
  O   -0.99509803735398     -2.06388804461118     -0.46580748827916
