14
Coordinates from ORCA-job run
  C   0.71589440837413      0.33320098587482      0.11539147551514
  C   -0.16731838923904     -0.05830519207760     -1.07955633480242
  Br  2.44182215433484      0.81779747027224     -0.62404736695626
  H   0.27748159761964     -0.87464576705971     -1.64416445981973
  H   -0.34962996171010      0.81815732215744     -1.69999582525615
  N   0.28856412750878      1.35693093882627      0.99062466358331
  H   0.25810178082544      2.24846811820074      0.51438176992697
  H   -0.61499730356869      1.14445207616037      1.39539041378077
  N   0.86105047961407     -0.96789151901407      0.93424215169574
  O   1.50817474868907     -1.87370162978034      0.43170181374459
  O   0.22752107244133     -1.00520480571567      1.98225495316311
  N   -1.49064098737415     -0.53101484958174     -0.57572375169173
  O   -2.26634650578367      0.33512655993229     -0.17073870146619
  O   -1.69067722173163     -1.74336970819504     -0.57076080141715
