14
Coordinates from ORCA-job run
  C   0.72041130789794      0.32297978519799      0.10375374195445
  C   -0.17859300103286     -0.05232136426239     -1.08372595464969
  Br  2.44037991481860      0.80845168246159     -0.65923216147410
  H   -0.34507412389015      0.82669264574837     -1.70462328511752
  H   0.24408691075959     -0.87940026327705     -1.64980503623562
  N   0.30463908971401      1.34089482639144      0.98895477256451
  H   0.18536589131734      2.21956504005724      0.50299934287149
  H   -0.54476298138465      1.08718380936385      1.47768617153247
  N   0.87942429929787     -0.98140066981145      0.91306141111392
  O   0.29477822352971     -1.01540898306303      1.98922251870605
  O   1.49577489520719     -1.89128002000112      0.38101198854681
  N   -1.50701381189822     -0.48903677773429     -0.56318219264139
  O   -2.28447383550162      0.40289041958581     -0.22335743696621
  O   -1.70494277883477     -1.69881013065696     -0.47376388020517
