14

C	0.0	0.0	0.0
C	-0.545718	-0.143283	-1.425603
Cl	1.794049	0.0	0.0
H	-1.646573	-0.113166	-1.336262
H	-0.214373	0.697198	-2.042024
C	-0.39427	1.314978	0.520084
N	-0.618552	2.382859	0.956092
C	-0.493837	-1.115919	0.907921
H	-0.121208	-0.965108	1.922732
H	-1.588017	-1.097463	0.902844
H	-0.128822	-2.074302	0.532113
C	-0.122464	-1.392738	-2.048359
N	0.217684	-2.392486	-2.561818
Br	-3.823151	0.0	0.0
