14

C	0.0	0.0	0.0
C	-0.539279	0.294039	-1.403309
Cl	1.793115	0.0	0.0
H	-0.238051	-0.520894	-2.068504
H	-1.640233	0.295649	-1.314579
C	-0.386575	1.067989	0.930245
N	-0.633936	1.940184	1.67739
C	-0.501726	-1.352946	0.483438
H	-1.59556	-1.320429	0.495189
H	-0.151988	-2.129619	-0.201497
H	-0.119384	-1.562107	1.483524
C	-0.071539	1.562067	-1.951683
N	0.300522	2.576569	-2.410262
Br	-3.823447	0.0	0.0
