14

C	0.0	0.0	0.0
C	-0.2408	0.214564	-1.528394
Cl	1.796393	0.0	0.0
H	0.309512	-0.597182	-2.010422
H	0.285685	1.135289	-1.793936
C	-0.416808	1.161995	0.784151
N	-0.633251	2.128438	1.416645
C	-0.545702	-1.30676	0.533731
H	-0.175694	-2.129189	-0.081678
H	-0.229163	-1.451789	1.567777
H	-1.640356	-1.251375	0.481889
C	-1.539084	0.286622	-2.201562
N	-2.332818	0.493646	-3.044127
Br	-3.821876	0.0	0.0
