14

C	0.0	0.0	0.0
C	-0.282695	0.186298	-1.530444
Cl	1.796455	0.0	0.0
H	0.503736	0.840901	-1.913664
H	-0.127504	-0.794702	-1.994232
C	-0.398198	1.192152	0.750633
N	-0.623092	2.182206	1.340177
C	-0.578006	-1.267572	0.588928
H	-1.673204	-1.178382	0.54858
H	-0.252409	-1.387778	1.623911
H	-0.245952	-2.125186	0.002236
C	-1.521942	0.774104	-2.047201
N	-2.319298	1.368799	-2.676727
Br	-3.954579	0.0	0.0
