14

C	0.0	0.0	0.0
C	-0.246729	0.127472	-1.532568
Cl	1.796362	0.0	0.0
H	0.295534	-0.716116	-1.970946
H	0.2888	1.025693	-1.852055
C	-0.418099	1.190896	0.739795
N	-0.61939	2.170426	1.357253
C	-0.488144	-1.296534	0.612592
H	-0.096812	-2.133502	0.028465
H	-1.581509	-1.284874	0.588431
H	-0.130278	-1.381074	1.641031
C	-1.541185	0.167172	-2.223517
N	-2.234277	0.215803	-3.173656
Br	-3.638873	0.0	0.0
