14

C	0.0	0.0	0.0
C	-0.543091	0.280753	-1.403416
Cl	1.793205	0.0	0.0
H	-1.643337	0.299043	-1.30859
H	-0.260135	-0.5497	-2.057662
C	-0.38367	1.077765	0.919933
N	-0.615038	1.959332	1.660849
C	-0.503094	-1.346359	0.498318
H	-0.144645	-2.13362	-0.169931
H	-0.130867	-1.53802	1.506062
H	-1.59706	-1.315336	0.499949
C	-0.057099	1.529422	-1.979289
N	0.333143	2.522387	-2.468906
Br	-3.827133	0.0	0.0
