14

C	0.0	0.0	0.0
C	-0.545725	-0.147416	-1.425818
Cl	1.79227	0.0	0.0
H	-1.646225	-0.124744	-1.334444
H	-0.222045	0.694418	-2.043416
C	-0.388765	1.319046	0.514943
N	-0.602358	2.395805	0.933277
C	-0.495013	-1.112208	0.911238
H	-1.588429	-1.084055	0.910344
H	-0.139857	-2.073365	0.533392
H	-0.11548	-0.963393	1.923395
C	-0.116079	-1.394501	-2.048627
N	0.227207	-2.391214	-2.565427
Br	-3.821198	0.0	0.0
