14

C	-0.420506	0.066763	-1.471308
C	0.0	0.0	0.0
Cl	-0.028239	-1.497177	-2.276835
H	1.093627	0.0	0.0
H	-0.305837	0.936711	0.480905
C	-1.862934	0.272574	-1.631774
N	-3.012294	0.487533	-1.755147
C	0.378777	1.175045	-2.147925
H	1.436687	0.988165	-1.9377
H	0.097418	2.138836	-1.713668
H	0.184759	1.193068	-3.221383
C	-0.573654	-1.116264	0.72737
N	-1.023759	-2.013767	1.338353
H	2.759047	0.0	0.0
