14

C	-0.414372	0.063488	-1.476269
C	0.0	0.0	0.0
Cl	0.04934	-1.508178	-2.234372
H	1.093872	0.0	0.0
H	-0.367228	-0.915879	0.469657
C	-1.864061	0.192027	-1.652864
N	-3.025672	0.317432	-1.786517
C	0.339511	1.186642	-2.175827
H	1.404091	1.0377	-1.968808
H	0.141018	1.176959	-3.248766
H	0.026872	2.147297	-1.757515
C	-0.49215	1.161376	0.720686
N	-0.889043	2.107838	1.294649
H	2.753523	0.0	0.0
