14

C	-0.421535	0.05624	-1.471027
C	0.0	0.0	0.0
Cl	-0.038143	-1.51502	-2.266039
H	1.098104	0.0	0.0
H	-0.303647	0.941311	0.473405
C	-1.863595	0.269125	-1.63072
N	-3.010699	0.498961	-1.748277
C	0.380183	1.15725	-2.15796
H	1.438464	0.969149	-1.94997
H	0.182358	1.169123	-3.231327
H	0.103415	2.124898	-1.729478
C	-0.573451	-1.108382	0.738929
N	-1.021486	-2.000246	1.359761
H	2.753746	0.0	0.0
