14

C	-0.420373	0.086146	-1.47049
C	0.0	0.0	0.0
Cl	-0.037711	-1.469218	-2.297037
H	1.094575	0.0	0.0
H	-0.303952	0.931925	0.49148
C	-1.861665	0.304284	-1.627271
N	-3.008536	0.536332	-1.743051
C	0.384518	1.199464	-2.133526
H	1.441754	1.005767	-1.925424
H	0.190901	1.23184	-3.206968
H	0.107922	2.159117	-1.687683
C	-0.575048	-1.123372	0.714557
N	-1.029707	-2.034496	1.301855
H	2.75876	0.0	0.0
