14

C	-0.381135	-0.08782	-1.468695
C	0.0	0.0	0.0
Cl	-2.164267	-0.433003	-1.679724
H	1.099192	0.0	0.0
H	-0.311011	-0.926483	0.491222
C	-0.135103	1.180986	-2.155703
N	0.057452	2.182127	-2.736884
C	0.426705	-1.202846	-2.112731
H	0.151243	-2.153555	-1.65098
H	0.238801	-1.255022	-3.187385
H	1.483626	-1.003953	-1.897116
C	-0.569117	1.134104	0.700522
N	-1.024811	2.042391	1.293319
H	2.720767	0.0	0.0
