14

C	-0.362473	-0.074348	-1.476474
C	0.0	0.0	0.0
Cl	-2.16987	-0.205959	-1.738436
H	1.098474	0.0	0.0
H	-0.361574	0.923147	0.45844
C	0.033768	1.176118	-2.130956
N	0.319817	2.172626	-2.683482
C	0.330725	-1.259166	-2.128008
H	1.401295	-1.16028	-1.906679
H	-0.042579	-2.18402	-1.683967
H	0.152217	-1.275764	-3.204292
C	-0.48381	-1.152319	0.735547
N	-0.840464	-2.095492	1.340024
H	2.698851	0.0	0.0
