15

C	-0.493011	0.011223	-1.45011
C	0.0	0.0	0.0
Cl	-0.035612	-1.530423	-2.250932
H	1.095212	0.0	0.0
H	-1.587499	0.030665	-1.483879
C	0.125688	1.168556	-2.213383
H	-0.150923	1.133279	-3.269369
H	-0.214252	2.119038	-1.793958
H	1.211538	1.109675	-2.112355
N	-0.435026	-1.1752	0.755325
H	0.390102	-1.540378	1.22077
H	-1.116109	-0.92965	1.461111
C	-0.438126	1.238923	0.640692
N	-0.814584	2.216299	1.177784
H	2.768235	0.0	0.0
