15

C	-0.435199	0.03913	-1.475897
C	0.0	0.0	0.0
Cl	-0.053176	-1.539592	-2.259149
H	1.096553	0.0	0.0
H	-1.524227	0.129481	-1.560237
C	0.283323	1.150083	-2.217645
H	-0.016886	2.117766	-1.807445
H	1.358654	1.025772	-2.068087
H	0.043514	1.131121	-3.283256
N	-0.426928	-1.147591	0.78745
H	0.325014	-1.826517	0.734038
H	-1.262425	-1.568124	0.397223
C	-0.488847	1.233051	0.620493
N	-0.905513	2.22519	1.095209
H	2.782814	0.0	0.0
