15

C	-0.384754	-0.013537	-1.464815
C	0.0	0.0	0.0
Cl	-2.193405	-0.079927	-1.679206
H	1.096736	0.0	0.0
H	-0.086181	0.937871	-1.911318
C	0.269232	-1.17357	-2.178397
H	0.06592	-1.141103	-3.25135
H	1.346492	-1.099643	-1.992323
H	-0.094462	-2.112131	-1.761816
N	-0.38529	-1.227024	0.686656
H	-1.26956	-1.12058	1.165627
H	0.340051	-1.436569	1.364114
C	-0.464734	1.213582	0.672682
N	-0.83745	2.169742	1.24788
H	2.740824	0.0	0.0
