15

C	-0.516666	0.007805	-1.431683
C	0.0	0.0	0.0
Br	0.570261	-1.150881	-2.656385
H	1.093075	0.0	0.0
C	-1.910696	-0.41481	-1.553639
N	-3.054177	-0.677519	-1.640879
C	-0.392669	1.356899	-1.987812
N	-0.324226	2.41121	-2.503215
N	-0.397655	-1.201918	0.697203
O	-0.619875	-2.227638	0.030109
O	-0.355022	-1.17025	1.940177
N	-0.293724	1.211783	0.696308
H	-1.040945	1.07289	1.364838
H	0.551048	1.473686	1.20328
H	2.359819	0.0	0.0
