15

C	-0.488379	-0.062651	-1.458813
C	0.0	0.0	0.0
Br	0.05427	1.608632	-2.359415
H	1.096896	0.0	0.0
C	0.108956	-1.14171	-2.251956
N	0.578552	-1.95691	-2.956828
C	-1.948297	-0.123199	-1.519264
N	-3.124233	-0.138346	-1.526264
N	-0.418136	-1.194091	0.694834
O	-0.677761	-2.212219	0.02295
O	-0.379634	-1.171255	1.937438
N	-0.363447	1.205083	0.667867
H	0.47674	1.551476	1.126559
H	-1.055896	1.017555	1.38153
H	2.404618	0.0	0.0
