15

C	-0.476121	0.044595	-1.432563
C	0.0	0.0	0.0
Br	-2.488124	-0.071567	-1.546691
H	1.095299	0.0	0.0
C	-0.131334	1.348276	-2.002744
N	0.140845	2.366206	-2.52377
C	0.056184	-0.993099	-2.317299
N	0.480698	-1.736839	-3.123789
N	-0.38145	-1.23921	0.648573
O	-0.439702	-2.26515	-0.047296
O	-0.505233	-1.222905	1.884604
N	-0.341215	1.181145	0.714185
H	-1.115413	1.012462	1.343141
H	0.473021	1.446512	1.26383
H	2.388923	0.0	0.0
