15

C	-0.416266	0.054544	-1.455299
C	0.0	0.0	0.0
Br	-2.428754	0.063449	-1.664212
H	1.094475	0.0	0.0
C	0.020111	1.340737	-2.004184
N	0.334348	2.3842	-2.446771
C	0.092099	-1.00755	-2.323337
N	0.498089	-1.760994	-3.131609
N	-0.418972	-1.260649	0.619731
O	-0.410854	-1.327501	1.849792
O	-0.621977	-2.224887	-0.137467
N	-0.336632	1.135896	0.771556
H	-1.137113	1.651519	0.436908
H	0.481907	1.727498	0.871523
H	2.421194	0.0	0.0
