15

C	-0.525656	0.101642	-1.427608
C	0.0	0.0	0.0
Br	0.229332	-1.287215	-2.629382
H	1.090786	0.0	0.0
C	-1.985493	0.043473	-1.495548
N	-3.159931	0.080484	-1.552664
C	-0.084466	1.379898	-1.995124
N	0.20118	2.405489	-2.492918
N	-0.47503	-1.184027	0.682801
O	-1.019149	-2.094701	0.031746
O	-0.217912	-1.246678	1.897072
N	-0.267531	1.215076	0.715545
H	0.595435	1.477702	1.189657
H	-1.000858	1.088311	1.401357
H	2.404424	0.0	0.0
