12

C	-0.346204	0.045372	-1.496084
C	0.0	0.0	0.0
Br	-2.256539	0.340039	-1.830594
H	1.098773	0.0	0.0
H	0.17662	0.898751	-1.933467
C	0.052745	-1.179645	-2.177227
N	0.333121	-2.172492	-2.741011
C	-0.5295	-1.189926	0.654572
N	-0.956893	-2.148208	1.18285
C	-0.451085	1.214267	0.673435
N	-0.799925	2.201123	1.206502
Cl	3.104689	0.0	0.0
