12

C	-0.346279	0.046853	-1.496016
C	0.0	0.0	0.0
Br	-2.257496	0.341174	-1.829896
H	1.098756	0.0	0.0
H	0.175099	0.901612	-1.932547
C	0.054096	-1.176179	-2.179311
N	0.334534	-2.1671	-2.745336
C	-0.529805	-1.190647	0.653363
N	-0.96122	-2.151867	1.172822
C	-0.451117	1.213486	0.675186
N	-0.80034	2.198732	1.210948
Cl	3.105299	0.0	0.0
