12

C	-0.352208	0.049968	-1.4939
C	0.0	0.0	0.0
Br	-2.267415	0.33279	-1.816393
H	1.10018	0.0	0.0
H	0.160048	0.90959	-1.931085
C	0.053171	-1.165792	-2.186945
N	0.372267	-2.128352	-2.780573
C	-0.524764	-1.193602	0.652495
N	-0.944781	-2.156248	1.178777
C	-0.451314	1.210822	0.679736
N	-0.800273	2.193392	1.220335
Cl	3.104308	0.0	0.0
