12

C	-0.491932	-0.118383	-1.461938
C	0.0	0.0	0.0
Br	0.135772	-1.779021	-2.263689
H	1.104001	0.0	0.0
H	-1.582711	-0.170956	-1.490831
C	-0.053978	1.011466	-2.27155
N	0.238513	1.927723	-2.946705
C	-0.511857	-1.116692	0.7914
N	-0.959514	-2.007972	1.411663
C	-0.486324	1.263958	0.55461
N	-0.899914	2.282186	0.970946
Cl	3.130799	0.0	0.0
