12

C	-0.400763	-0.027461	-1.490103
C	0.0	0.0	0.0
Br	0.188587	1.595124	-2.384585
H	1.097086	0.0	0.0
H	0.149103	-0.846875	-1.95861
C	-1.834542	-0.194279	-1.697328
N	-2.989824	-0.336613	-1.860224
C	-0.459204	-1.237392	0.631903
N	-0.831277	-2.247346	1.103295
C	-0.534749	1.163399	0.699677
N	-0.976005	2.092895	1.266235
Cl	3.130938	0.0	0.0
