12

C	-0.503599	0.045187	-1.459918
C	0.0	0.0	0.0
Br	0.148385	-1.494892	-2.455997
H	1.103516	0.0	0.0
H	-1.593688	-0.027304	-1.485228
C	-0.10561	1.273891	-2.136071
N	0.135234	2.270816	-2.709572
C	-0.495966	-1.203586	0.66427
N	-0.92012	-2.162172	1.194565
C	-0.485773	1.186143	0.705815
N	-0.896137	2.142	1.25282
Cl	3.12832	0.0	0.0
