9
Coordinates from ORCA-job run
  C   -0.94698237036817     -0.21087544036996     -0.19108444987240
  C   0.35576922209371      0.50358034817624      0.14562128459196
  F   -1.96287943166581      0.72885337012613     -0.19271936520039
  H   0.26462172370466      0.98498506700106      1.12214493728351
  H   -1.18208237307371     -0.97114064899562      0.55576043350867
  H   -0.89929701138298     -0.66844290550084     -1.18073693895460
  H   0.54432678877081      1.28425492792771     -0.59509483701832
  C   1.47520280615429     -0.43467719615123      0.16448375957109
  N   2.35032064576720     -1.21553752221348      0.17162517609049
