11

C	-0.464071	0.006018	-1.460426
C	0.0	0.0	0.0
Br	0.08132	-1.653157	-2.333439
H	1.092618	0.0	0.0
H	0.046825	0.805889	-1.999677
H	-0.359645	-0.897923	0.507959
C	-1.908364	0.149488	-1.611128
N	-3.071701	0.268068	-1.724729
C	-0.499975	1.188859	0.683548
N	-0.901617	2.154143	1.218544
Cl	3.294496	0.0	0.0
