11

C	-0.43433	-0.016844	-1.461818
C	0.0	0.0	0.0
Br	-2.392967	-0.091324	-1.652086
H	1.095059	0.0	0.0
H	-0.057217	-0.913468	-1.957199
H	-0.350096	0.91184	0.489725
C	0.026135	1.168415	-2.178138
N	0.366063	2.121431	-2.776741
C	-0.498565	-1.166429	0.715177
N	-0.899327	-2.109082	1.288819
Cl	3.282098	0.0	0.0
