11

C	-0.473273	0.014098	-1.457125
C	0.0	0.0	0.0
Br	0.115897	-1.612635	-2.362633
H	1.092751	0.0	0.0
H	0.005912	0.839431	-1.989043
H	-0.355205	-0.903033	0.502328
C	-1.92477	0.112296	-1.592226
N	-3.094473	0.196822	-1.680183
C	-0.50297	1.181273	0.693926
N	-0.907046	2.141266	1.236422
Cl	3.307354	0.0	0.0
