11

C	-0.557625	0.014777	-1.425699
C	0.0	0.0	0.0
Br	0.096398	1.550084	-2.43829
H	1.092848	0.0	0.0
H	-1.644486	0.126458	-1.41905
H	-0.318904	-0.931992	0.480998
C	-0.234166	-1.214446	-2.141935
N	-0.047256	-2.223702	-2.713689
C	-0.532164	1.120674	0.766197
N	-1.004531	2.00457	1.377967
Cl	3.292547	0.0	0.0
