11

C	-0.572235	-0.005457	-1.421921
C	0.0	0.0	0.0
Br	-0.038409	1.623363	-2.358928
H	1.092579	0.0	0.0
H	-1.663241	0.031539	-1.396896
H	-0.324724	0.917582	0.498605
C	-0.170975	-1.169555	-2.204221
N	0.132886	-2.109114	-2.840978
C	-0.531762	-1.146128	0.731768
N	-1.011565	-2.06218	1.287739
Cl	3.285483	0.0	0.0
