11

C	-0.420359	-0.071918	-1.463246
C	0.0	0.0	0.0
Br	-2.310386	-0.594358	-1.665079
H	1.095315	0.0	0.0
H	0.15233	-0.864458	-1.947731
H	-0.310231	-0.922484	0.498272
C	-0.22266	1.176776	-2.187319
N	-0.091873	2.184734	-2.776376
C	-0.571265	1.139935	0.699896
N	-1.05309	2.04906	1.265144
Cl	3.265976	0.0	0.0
