18

C	-0.372303	-0.028964	-1.48366
C	0.0	0.0	0.0
Cl	-2.210391	-0.033724	-1.635398
H	1.093377	0.0	0.0
C	0.117801	1.258286	-2.127725
H	-0.347204	2.131568	-1.676698
H	1.200887	1.308041	-1.980805
H	-0.106784	1.233055	-3.197979
N	0.136639	-1.217229	-2.097726
H	1.00978	-1.490885	-1.657284
H	0.296425	-1.051882	-3.082913
N	-0.428263	-1.30197	0.670485
O	-1.420735	-1.265364	1.401226
O	0.246883	-2.303377	0.45427
N	-0.500973	1.145268	0.672213
H	-1.473631	1.004899	0.915782
H	0.036598	1.293478	1.51664
Br	3.467418	0.0	0.0
