18

C	-0.532665	-0.046207	-1.442983
C	0.0	0.0	0.0
Cl	-0.107764	1.521588	-2.211017
H	1.090825	0.0	0.0
C	0.14788	-1.128993	-2.269009
H	-0.15424	-2.118478	-1.922553
H	1.232603	-1.045169	-2.17476
H	-0.142728	-1.017422	-3.316686
N	-1.989232	-0.103406	-1.409173
H	-2.34084	-0.014515	-2.356305
H	-2.276082	-1.009679	-1.051893
N	-0.396188	-1.363055	0.621975
O	-1.437358	-1.402164	1.289002
O	0.330068	-2.330611	0.413624
N	-0.520109	1.082001	0.736271
H	-1.518512	0.996061	0.860896
H	-0.042368	1.170576	1.621453
Br	3.530532	0.0	0.0
