18

C	-0.505853	-0.038051	-1.453871
C	0.0	0.0	0.0
Cl	0.215477	1.400118	-2.273484
H	1.089288	0.0	0.0
C	0.00789	-1.267458	-2.188435
H	1.090995	-1.34851	-2.071301
H	-0.461799	-2.166895	-1.7822
H	-0.241815	-1.193343	-3.249877
N	-1.941764	0.165481	-1.476127
H	-2.277917	0.114429	-2.431143
H	-2.386975	-0.555787	-0.918882
N	-0.452538	-1.311514	0.623381
O	0.364588	-2.221292	0.719922
O	-1.638074	-1.397781	0.95879
N	-0.501241	1.077828	0.78342
H	0.234534	1.759624	0.897622
H	-1.3103	1.493408	0.341079
Br	3.525209	0.0	0.0
