18

C	-0.376061	-0.000154	-1.494208
C	0.0	0.0	0.0
Cl	-2.183697	-0.250933	-1.612474
H	1.093642	0.0	0.0
C	-0.040631	1.359675	-2.074325
H	1.023853	1.546797	-1.900062
H	-0.242848	1.332465	-3.145874
H	-0.613984	2.145716	-1.591617
N	0.272433	-1.009102	-2.288826
H	1.264539	-0.774633	-2.293556
H	0.201094	-1.902967	-1.816615
N	-0.422067	-1.321012	0.645507
O	-1.224448	-1.274121	1.578654
O	0.056449	-2.363216	0.200789
N	-0.497249	1.122998	0.70904
H	0.036625	1.244724	1.559547
H	-1.471384	0.990046	0.948013
Br	3.461051	0.0	0.0
