16

C	0.0	0.0	0.0
C	-0.260263	0.063143	-1.564304
F	1.39454	0.0	0.0
H	0.579987	0.674396	-1.90069
N	-0.593166	1.080269	0.64361
H	-0.388807	1.966801	0.211167
H	-0.569105	1.075086	1.647227
C	-0.416172	-1.269341	0.607248
N	-0.659089	-2.341898	1.017008
N	-1.480459	0.63905	-2.011226
H	-1.442678	1.604072	-2.274129
H	-2.242447	0.501685	-1.336338
N	-0.003375	-1.279632	-2.077054
H	-0.837933	-1.828377	-1.894195
H	0.041317	-1.197209	-3.088368
Br	-4.125537	0.0	0.0
