16

C	0.0	0.0	0.0
C	-0.4164	0.19791	-1.463541
F	1.423949	0.0	0.0
H	-1.509719	0.214765	-1.445876
N	-0.47126	0.982896	0.90595
H	-1.448696	0.75879	1.108115
H	-0.477294	1.858121	0.388475
C	-0.352776	-1.359668	0.468023
N	-0.518684	-2.450651	0.866014
N	0.023167	-0.869843	-2.35793
H	0.95179	-1.174634	-2.085325
H	-0.599982	-1.663182	-2.256561
N	0.064088	1.514951	-1.856621
H	-0.385208	1.752116	-2.732842
H	1.061141	1.455406	-2.034792
Br	-3.707968	0.0	0.0
