16

C	0.0	0.0	0.0
C	-0.418511	0.284147	-1.458573
F	1.417521	0.0	0.0
H	0.130177	-0.444347	-2.0728
N	-0.560809	0.939513	0.856873
H	-0.347425	0.819378	1.833958
H	-0.427797	1.875902	0.50136
C	-0.353642	-1.378984	0.394586
N	-0.570912	-2.497162	0.676975
N	-0.010378	1.6667	-1.722319
H	-0.560276	1.973091	-2.515379
H	0.973481	1.704164	-1.95686
N	-1.815842	0.160791	-1.741302
H	-2.421643	0.537325	-1.01123
H	-2.097215	-0.804965	-1.843388
Br	-4.787583	0.0	0.0
