16

C	0.0	0.0	0.0
C	-0.330241	0.27975	-1.491606
F	1.388701	0.0	0.0
H	0.052779	1.308364	-1.640508
N	-0.508586	0.95018	0.932602
H	-1.48667	0.738475	1.129199
H	-0.470107	1.876474	0.519628
C	-0.413815	-1.362705	0.388333
N	-0.699019	-2.459403	0.69234
N	-1.70351	0.260516	-1.886387
H	-2.270561	0.945368	-1.401421
H	-2.136182	-0.627506	-1.65421
N	0.356994	-0.716874	-2.297063
H	0.053129	-0.586351	-3.253236
H	1.358311	-0.599252	-2.237949
Br	-4.372023	0.0	0.0
