16

C	0.0	0.0	0.0
C	-0.362941	0.085334	-1.519475
F	1.373654	0.0	0.0
H	0.376326	-0.589329	-1.970409
N	-0.561929	1.064731	0.763181
H	-1.577398	1.026408	0.633419
H	-0.38507	0.918285	1.750717
C	-0.351494	-1.36138	0.498433
N	-0.542467	-2.454284	0.883004
N	-0.077722	1.446693	-1.953403
H	-0.427709	2.094422	-1.257634
H	-0.607377	1.580816	-2.807225
N	-1.659515	-0.369054	-1.946071
H	-2.431063	0.072628	-1.445984
H	-1.766958	-1.365121	-1.79406
Br	-4.287032	0.0	0.0
