16

C	0.0	0.0	0.0
C	-0.296593	-0.269396	-1.501607
F	1.392425	0.0	0.0
H	0.291174	0.528285	-1.986064
N	-0.517056	1.259751	0.415462
H	-0.363038	1.382087	1.410945
H	-1.529856	1.222583	0.27954
C	-0.367603	-1.133371	0.885879
N	-0.563625	-1.938014	1.71905
N	-1.635345	-0.178356	-1.994027
H	-2.307809	-0.663651	-1.403593
H	-1.947096	0.782816	-2.013621
N	0.194698	-1.611374	-1.785625
H	-0.09333	-1.835556	-2.728708
H	1.20426	-1.642258	-1.72407
Br	-4.21706	0.0	0.0
