16

C	0.0	0.0	0.0
C	-0.434805	0.00142	-1.467445
F	1.431071	0.0	0.0
H	-1.517373	-0.155463	-1.427182
N	-0.475853	1.09153	0.766551
H	-1.443403	0.88159	1.018761
H	-0.50897	1.882614	0.128354
C	-0.34376	-1.283234	0.64995
N	-0.513374	-2.304392	1.201705
N	0.191557	-1.113553	-2.150046
H	-0.15475	-1.181141	-3.098339
H	1.195897	-0.983955	-2.168227
N	-0.198698	1.34442	-2.0056
H	-0.904067	1.562551	-2.696507
H	0.71499	1.390831	-2.438925
Br	-3.752763	0.0	0.0
