15

C	0.0	0.0	0.0
C	-0.43925	-0.2187	-1.440088
Br	2.038642	0.0	0.0
H	-0.049674	0.596567	-2.052178
H	-1.530127	-0.138773	-1.354685
N	-0.221513	1.531969	0.352216
O	-0.40309	1.789026	1.537111
O	-0.185658	2.36487	-0.546612
N	-0.606456	-0.821852	0.902518
H	-1.664348	-0.64869	0.637448
H	-0.428681	-0.485481	1.842659
N	-0.050171	-1.546501	-1.904349
H	0.827151	-1.498976	-2.406045
H	-0.760622	-1.893432	-2.533564
F	-2.816967	0.0	0.0
