15

C	0.0	0.0	0.0
C	-0.502057	0.057931	-1.442513
Br	1.928887	0.0	0.0
H	-0.31425	-0.949586	-1.821931
H	-1.585401	0.190992	-1.309519
N	-0.332036	1.360704	0.721126
O	-0.408287	1.321662	1.943806
O	-0.474157	2.375469	0.046948
N	-0.605948	-1.063754	0.662238
H	-0.40029	-0.998903	1.652625
H	-1.647495	-0.831193	0.495987
N	0.1753	1.014413	-2.319891
H	-0.186182	1.936154	-2.105197
H	-0.10585	0.794412	-3.269223
F	-2.852439	0.0	0.0
