15

C	0.0	0.0	0.0
C	-0.468011	0.047537	-1.45026
Br	1.936593	0.0	0.0
H	-1.540403	0.247104	-1.361597
H	0.047047	0.852792	-1.974106
N	-0.319973	1.3919	0.653112
O	-0.394871	2.377783	-0.07049
O	-0.444968	1.40156	1.871
N	-0.614181	-1.0392	0.684877
H	-0.368814	-1.002939	1.666141
H	-1.664751	-0.775571	0.52959
N	-0.140764	-1.239185	-2.08457
H	-0.543738	-1.952962	-1.485418
H	-0.647572	-1.275242	-2.961962
F	-2.824883	0.0	0.0
