15

C	0.0	0.0	0.0
C	-0.272585	-0.375472	-1.487935
Br	2.012485	0.0	0.0
H	-0.3489	-1.484773	-1.421266
H	0.620971	-0.115713	-2.071533
N	-0.24451	1.536777	0.202258
O	-0.680822	1.88961	1.297825
O	0.043701	2.292732	-0.714401
N	-0.513689	-0.789594	0.983236
H	-1.542408	-0.599213	0.867926
H	-0.226861	-0.433458	1.881696
N	-1.360901	0.381529	-2.037998
H	-1.446958	0.161308	-3.019841
H	-2.173925	0.139475	-1.45304
F	-2.700663	0.0	0.0
