15

C	0.0	0.0	0.0
C	-0.286557	0.582596	-1.433797
Br	2.012605	0.0	0.0
H	-0.174141	-0.303684	-2.069811
H	0.524863	1.265325	-1.67338
N	-0.246172	1.109611	1.0781
O	-0.507482	0.727117	2.212989
O	-0.148332	2.284008	0.732539
N	-0.659197	-1.170158	0.286916
H	-1.697534	-0.872901	0.159482
H	-0.519506	-1.404519	1.265477
N	-1.531775	1.248786	-1.733158
H	-2.293099	0.724739	-1.274517
H	-1.514606	2.142634	-1.253784
F	-2.946688	0.0	0.0
