17

C	-0.442818	0.018548	-1.465884
C	0.0	0.0	0.0
Br	0.285294	-1.698057	-2.24483
H	1.090135	0.0	0.0
N	-1.870193	-0.037933	-1.548712
H	-2.3075	0.39357	-0.743786
H	-2.214346	0.369422	-2.408653
C	0.217051	1.124267	-2.271422
H	-0.195476	2.088255	-1.970658
H	0.020021	0.960873	-3.334425
H	1.293119	1.12087	-2.083497
C	-0.539969	-1.133023	0.726011
N	-0.923039	-2.055109	1.346683
N	-0.38904	1.245936	0.665812
O	-1.26056	1.225256	1.556648
O	0.230711	2.263459	0.324828
H	2.463734	0.0	0.0
