17

C	-0.309482	-0.087077	-1.510472
C	0.0	0.0	0.0
Br	-0.02769	1.833462	-2.285867
H	1.092293	0.0	0.0
N	0.632225	-0.993604	-1.989432
H	1.574409	-0.79273	-1.615524
H	0.621778	-1.090965	-2.995614
C	-1.736486	-0.418954	-1.896149
H	-1.979302	-1.410679	-1.505419
H	-1.83701	-0.426859	-2.984841
H	-2.428241	0.31352	-1.481713
C	-0.491451	-1.193681	0.664289
N	-0.847639	-2.173081	1.208789
N	-0.584559	1.189074	0.676455
O	0.172173	2.103289	0.98059
O	-1.800271	1.169546	0.89192
H	2.647861	0.0	0.0
