17

C	-0.240247	-0.007783	-1.519314
C	0.0	0.0	0.0
Br	-2.165915	0.381484	-1.900299
H	1.09523	0.0	0.0
N	0.560486	0.950443	-2.237787
H	0.349227	1.869096	-1.863548
H	1.519477	0.754211	-1.929439
C	0.077958	-1.393188	-2.048208
H	-0.585912	-2.154915	-1.641988
H	1.111487	-1.622774	-1.761599
H	-0.001558	-1.369606	-3.135227
C	-0.516819	-1.15921	0.690164
N	-0.859288	-2.158992	1.20761
N	-0.394086	1.220395	0.703932
O	-0.841395	1.120053	1.852889
O	-0.160407	2.299211	0.145894
H	2.473711	0.0	0.0
