17

C	-0.442538	0.03256	-1.46491
C	0.0	0.0	0.0
Br	0.296868	-1.745112	-2.222975
H	1.090348	0.0	0.0
N	-1.85221	0.073772	-1.573647
H	-2.286788	-0.668804	-1.037852
H	-2.14312	0.000142	-2.540962
C	0.227685	1.099786	-2.303269
H	0.043747	0.901056	-3.362261
H	-0.183122	2.071191	-2.034068
H	1.300135	1.089562	-2.101555
C	-0.546042	-1.144243	0.703229
N	-0.980408	-2.073979	1.279476
N	-0.368413	1.228929	0.714421
O	-1.013591	1.152571	1.768043
O	0.092996	2.281413	0.257571
H	2.4599	0.0	0.0
