17

C	-0.215249	-0.00225	-1.524213
C	0.0	0.0	0.0
Br	-2.132928	0.39308	-1.947113
H	1.095201	0.0	0.0
N	0.60336	0.955022	-2.223972
H	0.384954	1.873948	-1.853349
H	1.55751	0.756386	-1.896765
C	0.113365	-1.386072	-2.051674
H	0.056013	-1.358944	-3.140568
H	-0.558358	-2.149552	-1.661551
H	1.141686	-1.615413	-1.745787
C	-0.523177	-1.158471	0.685272
N	-0.870778	-2.156467	1.202416
N	-0.390211	1.218631	0.707416
O	-0.763009	1.113269	1.881188
O	-0.213401	2.300256	0.133219
H	2.465428	0.0	0.0
