12
Coordinates from ORCA-job run
  C   -0.13196322734723     -0.05374987942683     -0.01253528471548
  C   1.03581840353470      0.38396278612309     -0.55503582806691
  H   1.07589781930836      0.72070651998155     -1.58236711250259
  N   -0.21932497731524     -0.59396471090908      1.24787937421672
  H   0.56776687935294     -0.44077434869060      1.86148528537972
  H   -1.11521411267792     -0.52617769984319      1.70206820431646
  C   -1.40678977882741     -0.06649624219519     -0.80042031054505
  H   -2.16852789188358      0.54646678121530     -0.30770719188942
  H   -1.79530678512999     -1.08571239205835     -0.87307243533290
  H   -1.25265134843866      0.32469116441388     -1.80520334263920
  C   2.22872851046171      0.39749430009722      0.21631376346288
  N   3.18156650896232      0.39255372129220      0.90859487831578
