12
Coordinates from ORCA-job run
  C   -0.14217791243298     -0.00191603807043     -0.00834476122121
  C   1.08766505426259      0.21945508125279     -0.54513527219053
  H   1.22689387723800      0.23339642044417     -1.61791596713909
  N   -0.39932245174102      0.07518923733247      1.33886998834439
  H   0.40145335296957      0.06423051268297      1.95380426686588
  H   -1.18538589777913     -0.45574348771082      1.67594868889422
  C   -1.34106021248156     -0.25134320810183     -0.87226772287809
  H   -1.79394799225337     -1.21852136286433     -0.63191112590885
  H   -2.09539830439415      0.52121384561023     -0.70150559851594
  H   -1.07215542345738     -0.25297865865468     -1.92776346996539
  C   2.21101425792843      0.44656192279267      0.29432124555064
  N   3.10442165214099      0.62045573528678      1.04189972816396
