12
Coordinates from ORCA-job run
  C   -0.10083617079733     -0.17661303899277      0.30339440812114
  C   1.25273376290498     -0.12050672574591      0.20524122218890
  H   1.88409309408147     -0.51094975730879      0.99839159647985
  N   -0.73050682744627     -0.79745196623934      1.36252151557811
  H   -0.16730508353018     -0.96000656238192      2.18287394364222
  H   -1.65687462067379     -0.46394410660739      1.57559569402399
  C   -1.02628189663647      0.33607223142787     -0.75820474073686
  H   -1.66801141252922     -0.47449164250274     -1.11347107948310
  H   -1.67252891874662      1.12017255672645     -0.35049547415702
  H   -0.47776629882461      0.74842333007662     -1.60340594922680
  C   1.90734172831080      0.42258773614980     -0.93208268634575
  N   2.45694264388725      0.87570794539812     -1.86935845008468
