12
Coordinates from ORCA-job run
  C   -0.13567875098035     -0.03849597671215     -0.01789683820995
  C   1.06045809092887      0.39437953703989     -0.49928154007785
  H   1.12281883520144      0.89082437329545     -1.45843499389854
  N   -0.26053502434844     -0.77071725560146      1.13807014963557
  H   0.53665800729992     -0.78122677977863      1.75748061231958
  H   -1.14887652023347     -0.71543277463052      1.60859440440011
  C   -1.40984979253652      0.17134958974715     -0.77850759972588
  H   -2.12840754468728      0.73516599748078     -0.17532927688964
  H   -1.86467244670328     -0.79188300502093     -1.02394522934422
  H   -1.23240293428216      0.72192666440162     -1.70122839621112
  C   2.25394950884458      0.18817172861440      0.24318339743713
  N   3.20653857149669     -0.00506209883559      0.90829531056480
