12
Coordinates from ORCA-job run
  C   -0.14109409991063      0.01654234530316     -0.01482304473169
  C   1.12004403940976      0.02830180374577     -0.52374714689880
  H   1.28785857579976     -0.08521474297060     -1.58655263214477
  N   -0.42027265128545      0.26466928748139      1.30794090861877
  H   0.35802351982372      0.21815234916478      1.94967787253387
  H   -1.27203899860441     -0.13534153035795      1.66611369603907
  C   -1.34055146510763     -0.17265922658494     -0.89308287001000
  H   -2.00202823535842      0.69444237288760     -0.82013262779697
  H   -1.04982723523821     -0.30850891420644     -1.93382147236567
  H   -1.90990065630567     -1.05323565355437     -0.57904619365590
  C   2.24090204353474      0.19822824357888      0.33232546419306
  N   3.12888516324245      0.33362366551272      1.09414804621903
